MODEL 2
REMARK VINA RESULT: -6.814264843      0.778      1.457
REMARK  6 active torsions:
REMARK  status: ('A' for Active; 'I' for Inactive)
REMARK    1  A    between atoms: C3_3  and  N1_4
REMARK       I    between atoms: N1_4  and  C4_5
REMARK    2  A    between atoms: C4_5  and  C5_7
REMARK    3  A    between atoms: C5_7  and  N2_8
REMARK    4  A    between atoms: C5_7  and  C12_17
REMARK    5  A    between atoms: C6_10  and  C7_11
REMARK    6  A    between atoms: C7_11  and  N3_12
ROOT
HETATM    1  C1  UNL     1      -1.783   4.644  81.055  1.00  0.00     0.019 C
HETATM    2  C2  UNL     1      -1.235   3.847  81.776  1.00  0.00    -0.058 C
HETATM    3  C3  UNL     1      -0.571   2.843  82.660  1.00  0.00     0.249 C
ENDROOT
BRANCH   3   4
HETATM    4  N1  UNL     1      -0.919   2.969  83.978  1.00  0.00    -0.373 NA
HETATM    5  C4  UNL     1      -1.271   3.096  85.310  1.00  0.00     0.315 C
HETATM    6  O1  UNL     1      -1.703   2.103  85.953  1.00  0.00    -0.255 OA
BRANCH   5   7
HETATM    7  C5  UNL     1      -1.174   4.408  86.042  1.00  0.00     0.192 C
BRANCH   7   8
HETATM    8  N2  UNL     1      -0.253   5.345  85.642  1.00  0.00    -0.386 N
HETATM    9  C6  UNL     1      -0.292   6.596  85.145  1.00  0.00     0.086 C
ATOM     10  H2  UNL     1       0.704   5.008  85.751  1.00  0.00     0.159 HD
BRANCH   9  11
HETATM   11  C7  UNL     1      -0.836   6.916  83.793  1.00  0.00     0.316 C
BRANCH  11  12
HETATM   12  N3  UNL     1       0.238   7.311  82.869  1.00  0.00     0.093 N
HETATM   13  C8  UNL     1      -0.215   7.998  81.704  1.00  0.00     0.273 C
HETATM   14  C9  UNL     1      -0.529   9.396  82.251  1.00  0.00     0.032 C
HETATM   15  C10 UNL     1       0.564   9.621  83.241  1.00  0.00     0.032 C
HETATM   16  C11 UNL     1       1.102   8.252  83.546  1.00  0.00     0.273 C
ENDBRANCH  11  12
ENDBRANCH   9  11
ENDBRANCH   7   8
BRANCH   7  17
HETATM   17  C12 UNL     1      -2.564   5.040  86.211  1.00  0.00     0.019 A
HETATM   18  C13 UNL     1      -2.997   5.264  87.635  1.00  0.00     0.007 A
HETATM   19  C14 UNL     1      -3.717   4.319  86.736  1.00  0.00     0.007 A
ENDBRANCH   7  17
ENDBRANCH   5   7
ENDBRANCH   3   4
TORSDOF 6
ENDMDL