MODEL 1
REMARK VINA RESULT: -6.435162585      0.000      0.000
REMARK  6 active torsions:
REMARK  status: ('A' for Active; 'I' for Inactive)
REMARK    1  A    between atoms: C2_2  and  C3_3
REMARK    2  A    between atoms: C3_3  and  N1_4
REMARK       I    between atoms: N1_4  and  C4_6
REMARK    3  A    between atoms: C4_6  and  C5_8
REMARK    4  A    between atoms: C5_8  and  N2_9
REMARK    5  A    between atoms: C5_8  and  C7_13
REMARK    6  A    between atoms: N2_9  and  C6_11
REMARK       I    between atoms: C7_13  and  N3_15
ROOT
HETATM    1  C5  UNL     1      -1.389   4.446  85.878  1.00  0.00     0.269 C
ENDROOT
BRANCH   1   2
HETATM    2  C4  UNL     1      -1.205   3.355  84.878  1.00  0.00     0.249 C
HETATM    3  N1  UNL     1      -0.875   3.641  83.548  1.00  0.00    -0.359 N
ATOM      4  H1  UNL     1      -0.762   4.615  83.266  1.00  0.00     0.162 HD
HETATM    5  O1  UNL     1      -1.341   2.158  85.220  1.00  0.00    -0.271 OA
BRANCH   3   6
HETATM    6  C3  UNL     1      -0.687   2.591  82.552  1.00  0.00     0.122 C
BRANCH   6   7
HETATM    7  C2  UNL     1      -1.390   2.918  81.265  1.00  0.00     0.015 C
HETATM    8  C1  UNL     1      -1.712   4.367  81.113  1.00  0.00     0.006 C
ENDBRANCH   6   7
ENDBRANCH   3   6
ENDBRANCH   1   2
BRANCH   1   9
HETATM    9  N2  UNL     1      -2.610   3.996  86.603  1.00  0.00    -0.347 N
ATOM     10  H2  UNL     1      -3.437   3.692  86.090  1.00  0.00     0.163 HD
BRANCH   9  11
HETATM   11  C6  UNL     1      -2.600   3.998  87.998  1.00  0.00     0.349 C
HETATM   12  O2  UNL     1      -3.004   4.949  88.719  1.00  0.00    -0.284 OA
ENDBRANCH   9  11
ENDBRANCH   1   9
BRANCH   1  13
HETATM   13  C7  UNL     1      -1.720   5.729  85.262  1.00  0.00     0.252 C
HETATM   14  O3  UNL     1      -2.952   5.936  85.001  1.00  0.00    -0.270 OA
HETATM   15  N3  UNL     1      -0.780   6.724  84.953  1.00  0.00    -0.350 N
HETATM   16  C8  UNL     1      -1.221   7.978  84.281  1.00  0.00     0.126 C
HETATM   17  C11 UNL     1       0.623   6.845  85.185  1.00  0.00     0.126 C
HETATM   18  C9  UNL     1      -0.004   8.855  84.188  1.00  0.00     0.021 C
HETATM   19  C10 UNL     1       1.093   7.787  84.058  1.00  0.00     0.021 C
ENDBRANCH   1  13
TORSDOF 6
ENDMDL