MODEL 5
REMARK VINA RESULT: -6.369597610      1.897      3.037
REMARK  7 active torsions:
REMARK  status: ('A' for Active; 'I' for Inactive)
REMARK       I    between atoms: C2_2  and  N1_4
REMARK    1  A    between atoms: N1_4  and  C3_6
REMARK    2  A    between atoms: C3_6  and  C4_7
REMARK    3  A    between atoms: C3_6  and  C10_18
REMARK    4  A    between atoms: C4_7  and  O2_8
REMARK    5  A    between atoms: C4_7  and  C5_10
REMARK       I    between atoms: C5_10  and  N2_12
REMARK    6  A    between atoms: N2_12  and  C6_14
REMARK    7  A    between atoms: C6_14  and  C7_15
ROOT
HETATM    1  C4  UNL     1      -1.254   6.661  83.348  1.00  0.00     0.134 C
ENDROOT
BRANCH   1   2
HETATM    2  C3  UNL     1      -0.415   5.999  82.375  1.00  0.00     0.150 C
BRANCH   2   3
HETATM    3  N1  UNL     1      -0.361   4.585  82.841  1.00  0.00    -0.350 N
HETATM    4  C2  UNL     1      -0.837   3.561  82.022  1.00  0.00     0.214 C
HETATM    5  C1  UNL     1      -0.806   2.132  82.436  1.00  0.00     0.117 C
HETATM    6  O1  UNL     1      -1.310   3.843  80.892  1.00  0.00    -0.274 OA
ATOM      7  H1  UNL     1       0.024   4.365  83.759  1.00  0.00     0.163 HD
ENDBRANCH   2   3
BRANCH   2   8
HETATM    8  C10 UNL     1       1.013   6.381  82.230  1.00  0.00     0.007 C
HETATM    9  C11 UNL     1       1.065   7.108  80.842  1.00  0.00     0.012 C
HETATM   10  C12 UNL     1       1.470   7.487  83.172  1.00  0.00     0.012 C
ENDBRANCH   2   8
ENDBRANCH   1   2
BRANCH   1  11
HETATM   11  O2  UNL     1      -1.876   7.716  82.858  1.00  0.00    -0.358 OA
ATOM     12  H2  UNL     1      -1.686   8.513  83.339  1.00  0.00     0.217 HD
ENDBRANCH   1  11
BRANCH   1  13
HETATM   13  C5  UNL     1      -1.556   6.412  84.726  1.00  0.00     0.272 C
HETATM   14  O3  UNL     1      -0.683   6.225  85.574  1.00  0.00    -0.266 OA
HETATM   15  N2  UNL     1      -2.910   6.365  85.214  1.00  0.00    -0.355 N
ATOM     16  H2  UNL     1      -3.676   6.513  84.556  1.00  0.00     0.162 HD
BRANCH  15  17
HETATM   17  C6  UNL     1      -3.218   6.117  86.592  1.00  0.00     0.127 C
BRANCH  17  18
HETATM   18  C7  UNL     1      -3.629   4.700  86.900  1.00  0.00     0.003 A
HETATM   19  C8  UNL     1      -2.880   4.100  88.078  1.00  0.00     0.007 A
HETATM   20  C9  UNL     1      -2.645   3.597  86.717  1.00  0.00     0.007 A
ENDBRANCH  17  18
ENDBRANCH  15  17
ENDBRANCH   1  13
TORSDOF 7
ENDMDL