MODEL 5
REMARK VINA RESULT: -7.730846585      3.960     10.121
REMARK  8 active torsions:
REMARK  status: ('A' for Active; 'I' for Inactive)
REMARK    1  A    between atoms: C2_4  and  C3_5
REMARK    2  A    between atoms: C2_4  and  N5_24
REMARK    3  A    between atoms: C3_5  and  N2_6
REMARK    4  A    between atoms: N2_6  and  C4_8
REMARK    5  A    between atoms: C8_15  and  N4_16
REMARK    6  A    between atoms: N5_24  and  C13_26
REMARK    7  A    between atoms: C18_33  and  O3_34
REMARK    8  A    between atoms: C20_36  and  O4_37
ROOT
HETATM    1  C1  UNL     1      17.787  -3.182   6.230  1.00  0.00     0.147 C
HETATM    2  N1  UNL     1      17.796  -2.001   5.413  1.00  0.00    -0.383 N
ATOM      3  H1  UNL     1      17.033  -1.873   4.748  1.00  0.00     0.160 HD
HETATM    4  C2  UNL     1      18.709  -1.094   5.470  1.00  0.00     0.095 C
ENDROOT
BRANCH   4   5
HETATM    5  C3  UNL     1      19.812  -1.306   6.450  1.00  0.00     0.196 C
BRANCH   5   6
HETATM    6  N2  UNL     1      21.039  -1.557   5.763  1.00  0.00    -0.382 N
ATOM      7  H2  UNL     1      21.260  -1.084   4.887  1.00  0.00     0.160 HD
BRANCH   6   8
HETATM    8  C4  UNL     1      21.864  -2.412   6.293  1.00  0.00     0.044 A
HETATM    9  C5  UNL     1      21.411  -3.506   6.987  1.00  0.00     0.072 A
HETATM   10  C6  UNL     1      22.327  -4.373   7.527  1.00  0.00     0.106 A
HETATM   11 CL1  UNL     1      21.832  -5.799   8.431  1.00  0.00    -0.064 Cl
HETATM   12  N3  UNL     1      23.675  -4.179   7.396  1.00  0.00    -0.344 N
HETATM   13  C7  UNL     1      24.134  -3.115   6.721  1.00  0.00     0.079 A
ATOM     14  H3  UNL     1      24.329  -4.841   7.811  1.00  0.00     0.167 HD
HETATM   15  C8  UNL     1      25.492  -2.883   6.574  1.00  0.00     0.132 A
HETATM   16  C12 UNL     1      23.242  -2.216   6.160  1.00  0.00     0.021 A
HETATM   17  C9  UNL     1      25.915  -1.760   5.873  1.00  0.00     0.062 A
HETATM   18  C10 UNL     1      25.011  -0.882   5.326  1.00  0.00     0.037 A
HETATM   19 CL2  UNL     1      25.592   0.533   4.444  1.00  0.00    -0.084 Cl
HETATM   20  C11 UNL     1      23.664  -1.114   5.473  1.00  0.00     0.040 A
BRANCH  15  21
HETATM   21  N4  UNL     1      26.491  -3.715   7.091  1.00  0.00    -0.113 N
HETATM   22  O1  UNL     1      27.487  -3.117   7.645  1.00  0.00    -0.532 OA
HETATM   23  O2  UNL     1      26.573  -5.065   7.109  1.00  0.00    -0.532 OA
ENDBRANCH  15  21
ENDBRANCH   6   8
ENDBRANCH   5   6
ENDBRANCH   4   5
BRANCH   4  24
HETATM   24  N5  UNL     1      18.733   0.080   4.690  1.00  0.00    -0.344 N
ATOM     25  H5  UNL     1      18.727  -0.002   3.674  1.00  0.00     0.167 HD
BRANCH  24  26
HETATM   26  C13 UNL     1      18.760   1.240   5.215  1.00  0.00     0.047 A
HETATM   27  C14 UNL     1      19.876   1.844   5.738  1.00  0.00     0.047 A
HETATM   28  C15 UNL     1      19.727   3.122   6.267  1.00  0.00     0.090 A
HETATM   29  N6  UNL     1      18.560   3.786   6.289  1.00  0.00    -0.365 N
HETATM   30  C16 UNL     1      17.459   3.225   5.786  1.00  0.00     0.047 A
ATOM     31  H6  UNL     1      18.516   4.722   6.691  1.00  0.00     0.165 HD
HETATM   32  C17 UNL     1      16.236   3.879   5.796  1.00  0.00     0.070 A
HETATM   33  C23 UNL     1      17.552   1.944   5.244  1.00  0.00     0.020 A
HETATM   34  C18 UNL     1      15.121   3.259   5.271  1.00  0.00     0.103 A
HETATM   35  C20 UNL     1      15.180   1.996   4.730  1.00  0.00     0.102 A
HETATM   36  C22 UNL     1      16.409   1.362   4.730  1.00  0.00     0.055 A
BRANCH  34  37
HETATM   37  O3  UNL     1      13.918   3.912   5.286  1.00  0.00    -0.353 OA
HETATM   38  C19 UNL     1      13.237   4.279   6.487  1.00  0.00     0.210 C
ENDBRANCH  34  37
BRANCH  35  39
HETATM   39  O4  UNL     1      14.058   1.357   4.195  1.00  0.00    -0.353 OA
HETATM   40  C21 UNL     1      13.358   1.931   3.104  1.00  0.00     0.210 C
ENDBRANCH  35  39
ENDBRANCH  24  26
ENDBRANCH   4  24
TORSDOF 8
ENDMDL