MODEL 3
REMARK VINA RESULT: -7.210715455      2.964      7.038
REMARK  9 active torsions:
REMARK  status: ('A' for Active; 'I' for Inactive)
REMARK       I    between atoms: C2_2  and  N1_4
REMARK    1  A    between atoms: N1_4  and  C3_6
REMARK    2  A    between atoms: C4_9  and  O2_10
REMARK    3  A    between atoms: O2_10  and  C5_11
REMARK    4  A    between atoms: C5_11  and  C6_12
REMARK    5  A    between atoms: C12_20  and  C13_21
REMARK    6  A    between atoms: C14_22  and  C15_23
REMARK    7  A    between atoms: C15_23  and  O3_24
REMARK    8  A    between atoms: C16_26  and  C17_27
REMARK    9  A    between atoms: C20_30  and  C21_31
ROOT
HETATM    1  C3  UNL     1      22.375  -2.530   6.505  1.00  0.00     0.122 C
HETATM    2  N2  UNL     1      21.066  -2.148   6.521  1.00  0.00    -0.321 N
ATOM      3  H2  UNL     1      20.406  -2.874   6.799  1.00  0.00     0.169 HD
HETATM    4  C4  UNL     1      20.518  -0.957   6.225  1.00  0.00     0.166 C
HETATM    5  C9  UNL     1      21.161   0.265   6.275  1.00  0.00     0.086 C
HETATM    6 CL1  UNL     1      20.184   1.636   6.637  1.00  0.00    -0.080 Cl
HETATM    7  C10 UNL     1      22.532   0.468   6.055  1.00  0.00     0.048 C
HETATM    8  C11 UNL     1      23.474  -0.515   5.732  1.00  0.00     0.023 A
HETATM    9  S1  UNL     1      24.970  -0.217   4.972  1.00  0.00    -0.079 SA
HETATM   10  C12 UNL     1      25.555  -1.823   4.882  1.00  0.00     0.071 A
HETATM   11  C16 UNL     1      24.543  -2.550   5.462  1.00  0.00     0.015 A
HETATM   12  C24 UNL     1      23.473  -1.882   5.899  1.00  0.00     0.038 A
ENDROOT
BRANCH  11  13
HETATM   13  C17 UNL     1      24.748  -4.023   5.515  1.00  0.00    -0.021 A
HETATM   14  C18 UNL     1      25.455  -4.602   6.544  1.00  0.00     0.013 A
HETATM   15  C19 UNL     1      25.603  -5.973   6.581  1.00  0.00     0.019 A
HETATM   16  C20 UNL     1      25.069  -6.807   5.617  1.00  0.00     0.051 A
HETATM   17  C22 UNL     1      24.361  -6.232   4.586  1.00  0.00     0.050 A
HETATM   18 CL2  UNL     1      23.628  -7.199   3.298  1.00  0.00    -0.083 Cl
HETATM   19  C23 UNL     1      24.215  -4.858   4.556  1.00  0.00     0.037 A
BRANCH  16  20
HETATM   20  C21 UNL     1      25.237  -8.253   5.671  1.00  0.00     0.266 C
HETATM   21  N3  UNL     1      24.311  -9.085   6.354  1.00  0.00    -0.057 NA
HETATM   22  O4  UNL     1      26.218  -8.787   5.106  1.00  0.00    -0.271 OA
ENDBRANCH  16  20
ENDBRANCH  11  13
BRANCH  10  23
HETATM   23  C13 UNL     1      26.814  -2.241   4.320  1.00  0.00    -0.056 C
HETATM   24  C14 UNL     1      27.870  -2.593   3.825  1.00  0.00    -0.075 C
BRANCH  24  25
HETATM   25  C15 UNL     1      29.138  -3.014   3.198  1.00  0.00     0.258 C
BRANCH  25  26
HETATM   26  O3  UNL     1      28.960  -3.321   1.844  1.00  0.00    -0.389 OA
ATOM     27  H3  UNL     1      28.740  -4.238   1.725  1.00  0.00     0.210 HD
ENDBRANCH  25  26
ENDBRANCH  24  25
ENDBRANCH  10  23
BRANCH   1  28
HETATM   28  N1  UNL     1      22.648  -3.616   7.120  1.00  0.00    -0.313 N
HETATM   29  C2  UNL     1      21.619  -4.524   7.442  1.00  0.00     0.219 C
HETATM   30  C1  UNL     1      21.905  -5.979   7.447  1.00  0.00     0.117 C
HETATM   31  O1  UNL     1      20.455  -4.170   7.731  1.00  0.00    -0.274 OA
ATOM     32  H1  UNL     1      23.612  -3.827   7.377  1.00  0.00     0.170 HD
ENDBRANCH   1  28
BRANCH   4  33
HETATM   33  O2  UNL     1      19.189  -0.882   5.824  1.00  0.00    -0.334 OA
BRANCH  33  34
HETATM   34  C5  UNL     1      18.952  -1.051   4.430  1.00  0.00     0.181 C
BRANCH  34  35
HETATM   35  C6  UNL     1      17.485  -1.105   4.105  1.00  0.00     0.002 C
HETATM   36  C7  UNL     1      16.701  -0.061   4.887  1.00  0.00     0.011 C
HETATM   37  C8  UNL     1      16.903  -2.480   4.244  1.00  0.00     0.011 C
ENDBRANCH  34  35
ENDBRANCH  33  34
ENDBRANCH   4  33
TORSDOF 9
ENDMDL