MODEL 4
REMARK VINA RESULT: -8.867101235      2.352      3.450
REMARK  9 active torsions:
REMARK  status: ('A' for Active; 'I' for Inactive)
REMARK    1  A    between atoms: C2_2  and  C3_3
REMARK    2  A    between atoms: C4_4  and  C5_5
REMARK    3  A    between atoms: C8_9  and  C9_10
REMARK       I    between atoms: C9_10  and  N1_12
REMARK    4  A    between atoms: N1_12  and  N2_14
REMARK    5  A    between atoms: N2_14  and  C10_15
REMARK    6  A    between atoms: C10_15  and  C11_16
REMARK    7  A    between atoms: C13_18  and  O2_19
REMARK    8  A    between atoms: C15_21  and  O3_22
REMARK    9  A    between atoms: C16_24  and  O4_25
ROOT
HETATM    1  C9  UNL     1      19.879   0.739   6.465  1.00  0.00     0.281 C
HETATM    2  O1  UNL     1      20.084   0.743   7.701  1.00  0.00    -0.265 OA
HETATM    3  N1  UNL     1      20.955   0.430   5.555  1.00  0.00    -0.199 N
ATOM      4  H1  UNL     1      20.758   0.436   4.554  1.00  0.00     0.205 HD
ENDROOT
BRANCH   3   5
HETATM    5  N2  UNL     1      22.156   0.146   5.943  1.00  0.00    -0.335 NA
BRANCH   5   6
HETATM    6  C10 UNL     1      23.232  -0.172   6.315  1.00  0.00     0.220 C
BRANCH   6   7
HETATM    7  C11 UNL     1      23.462  -1.443   7.041  1.00  0.00     0.000 A
HETATM    8  C12 UNL     1      24.397  -1.516   8.061  1.00  0.00     0.053 A
HETATM    9  C13 UNL     1      24.603  -2.698   8.728  1.00  0.00     0.105 A
HETATM   10  C15 UNL     1      23.871  -3.817   8.375  1.00  0.00     0.133 A
HETATM   11  C16 UNL     1      22.960  -3.713   7.369  1.00  0.00     0.105 A
HETATM   12  C18 UNL     1      22.725  -2.540   6.676  1.00  0.00     0.053 A
BRANCH   9  13
HETATM   13  O2  UNL     1      25.529  -2.808   9.751  1.00  0.00    -0.353 OA
HETATM   14  C14 UNL     1      26.676  -1.988   9.711  1.00  0.00     0.210 C
ENDBRANCH   9  13
BRANCH  10  15
HETATM   15  O3  UNL     1      24.063  -5.035   9.039  1.00  0.00    -0.356 OA
ATOM     16  H3  UNL     1      23.931  -5.101   9.978  1.00  0.00     0.218 HD
ENDBRANCH  10  15
BRANCH  11  17
HETATM   17  O4  UNL     1      22.219  -4.838   7.010  1.00  0.00    -0.353 OA
HETATM   18  C17 UNL     1      20.885  -5.049   7.361  1.00  0.00     0.210 C
ENDBRANCH  11  17
ENDBRANCH   6   7
ENDBRANCH   5   6
ENDBRANCH   3   5
BRANCH   1  19
HETATM   19  C8  UNL     1      18.557   1.048   5.961  1.00  0.00     0.053 A
HETATM   20  C7  UNL     1      17.833   0.055   5.352  1.00  0.00     0.028 A
HETATM   21  C6  UNL     1      16.579   0.321   4.867  1.00  0.00     0.042 A
HETATM   22 BR1  UNL     1      18.545  -1.706   5.168  1.00  0.00    -0.050 Br
HETATM   23  C5  UNL     1      15.983   1.563   4.955  1.00  0.00     0.036 A
HETATM   24  C20 UNL     1      16.746   2.543   5.578  1.00  0.00     0.030 A
HETATM   25  C19 UNL     1      18.001   2.296   6.069  1.00  0.00     0.039 A
HETATM   26 BR2  UNL     1      15.948   4.285   5.718  1.00  0.00    -0.050 Br
BRANCH  23  27
HETATM   27  C4  UNL     1      14.667   1.822   4.439  1.00  0.00    -0.066 C
HETATM   28  C3  UNL     1      13.552   2.032   4.023  1.00  0.00    -0.101 C
BRANCH  28  29
HETATM   29  C2  UNL     1      12.194   2.276   3.536  1.00  0.00     0.090 C
HETATM   30  C1  UNL     1      11.317   2.553   4.713  1.00  0.00     0.018 C
ENDBRANCH  28  29
ENDBRANCH  23  27
ENDBRANCH   1  19
TORSDOF 9
ENDMDL