MODEL 5
REMARK VINA RESULT: -8.736652262      2.529      3.858
REMARK  7 active torsions:
REMARK  status: ('A' for Active; 'I' for Inactive)
REMARK    1  A    between atoms: C2_2  and  C3_3
REMARK    2  A    between atoms: C3_3  and  O1_4
REMARK    3  A    between atoms: O1_4  and  C4_5
REMARK    4  A    between atoms: C10_13  and  C11_14
REMARK    5  A    between atoms: C11_14  and  N2_15
REMARK    6  A    between atoms: N2_15  and  N3_17
REMARK    7  A    between atoms: N3_17  and  C12_19
ROOT
HETATM    1  C4  UNL     1      23.660  -3.320   6.566  1.00  0.00     0.101 A
HETATM    2  C5  UNL     1      23.670  -4.373   5.681  1.00  0.00     0.080 A
HETATM    3  C6  UNL     1      22.836  -5.520   5.995  1.00  0.00     0.102 C
HETATM    4  N1  UNL     1      22.179  -6.443   6.235  1.00  0.00    -0.191 NA
HETATM    5  C7  UNL     1      24.442  -4.341   4.540  1.00  0.00     0.044 A
HETATM    6  C8  UNL     1      25.230  -3.256   4.247  1.00  0.00     0.013 A
HETATM    7 BR1  UNL     1      26.316  -3.171   2.677  1.00  0.00    -0.051 Br
HETATM    8  C9  UNL     1      25.218  -2.190   5.146  1.00  0.00     0.034 A
HETATM    9  C10 UNL     1      24.456  -2.197   6.290  1.00  0.00     0.017 A
ENDROOT
BRANCH   1  10
HETATM   10  O1  UNL     1      22.886  -3.346   7.712  1.00  0.00    -0.345 OA
BRANCH  10  11
HETATM   11  C3  UNL     1      23.448  -3.932   8.871  1.00  0.00     0.202 C
BRANCH  11  12
HETATM   12  C2  UNL     1      22.456  -4.696   9.653  1.00  0.00    -0.011 C
HETATM   13  C1  UNL     1      22.629  -5.041  10.919  1.00  0.00     0.009 C
ENDBRANCH  11  12
ENDBRANCH  10  11
ENDBRANCH   1  10
BRANCH   9  14
HETATM   14  C11 UNL     1      24.410  -1.122   7.246  1.00  0.00     0.121 C
BRANCH  14  15
HETATM   15  N2  UNL     1      23.482  -0.294   7.419  1.00  0.00    -0.309 N
ATOM     16  H2  UNL     1      23.179  -0.276   8.393  1.00  0.00     0.186 HD
BRANCH  15  17
HETATM   17  N3  UNL     1      22.782   0.570   6.678  1.00  0.00    -0.280 N
ATOM     18  H3  UNL     1      23.283   1.408   6.379  1.00  0.00     0.189 HD
BRANCH  17  19
HETATM   19  C12 UNL     1      21.556   0.481   6.291  1.00  0.00     0.165 A
HETATM   20  N4  UNL     1      20.739   1.546   6.417  1.00  0.00    -0.335 N
HETATM   21  C13 UNL     1      19.462   1.599   6.063  1.00  0.00     0.047 A
ATOM     22  H4  UNL     1      21.142   2.391   6.823  1.00  0.00     0.168 HD
HETATM   23  C14 UNL     1      18.810   2.820   6.290  1.00  0.00     0.032 A
HETATM   24  C18 UNL     1      18.708   0.596   5.503  1.00  0.00     0.025 A
HETATM   25  C15 UNL     1      17.491   3.025   5.976  1.00  0.00     0.021 A
HETATM   26  C16 UNL     1      16.741   2.036   5.422  1.00  0.00     0.012 A
HETATM   27 BR2  UNL     1      14.914   2.351   4.998  1.00  0.00    -0.051 Br
HETATM   28  C17 UNL     1      17.359   0.828   5.190  1.00  0.00     0.035 A
HETATM   29  C19 UNL     1      19.177  -0.667   5.209  1.00  0.00     0.083 A
HETATM   30  N5  UNL     1      18.402  -1.548   4.685  1.00  0.00    -0.393 N
HETATM   31  S1  UNL     1      20.823  -0.895   5.610  1.00  0.00    -0.034 SA
ATOM     32  H52 UNL     1      17.420  -1.412   4.446  1.00  0.00     0.156 HD
ATOM     33  H51 UNL     1      18.749  -2.482   4.467  1.00  0.00     0.156 HD
ENDBRANCH  17  19
ENDBRANCH  15  17
ENDBRANCH  14  15
ENDBRANCH   9  14
TORSDOF 7
ENDMDL