MODEL 1
REMARK VINA RESULT: -7.067649446      0.000      0.000
REMARK  8 active torsions:
REMARK  status: ('A' for Active; 'I' for Inactive)
REMARK    1  A    between atoms: C3_3  and  N1_4
REMARK    2  A    between atoms: C11_14  and  C12_15
REMARK    3  A    between atoms: C14_17  and  O1_18
REMARK    4  A    between atoms: C16_20  and  O2_21
REMARK    5  A    between atoms: C17_23  and  O3_24
REMARK    6  A    between atoms: C21_29  and  N2_30
REMARK       I    between atoms: N2_30  and  C22_32
REMARK    7  A    between atoms: C22_32  and  O6_34
REMARK    8  A    between atoms: O6_34  and  C23_35
ROOT
HETATM    1  C1  UNL     1      27.850  -2.351   8.671  1.00  0.00     0.014 C
HETATM    2  C2  UNL     1      27.202  -3.063   7.950  1.00  0.00    -0.098 C
HETATM    3  C3  UNL     1      26.403  -3.944   7.043  1.00  0.00     0.218 C
ENDROOT
BRANCH   3   4
HETATM    4  N1  UNL     1      25.297  -3.239   6.509  1.00  0.00    -0.341 N
HETATM    5  C4  UNL     1      23.952  -3.589   6.808  1.00  0.00     0.046 A
HETATM    6  C5  UNL     1      23.661  -4.835   7.319  1.00  0.00     0.057 A
HETATM    7  C9  UNL     1      22.906  -2.659   6.614  1.00  0.00     0.008 A
HETATM    8  C6  UNL     1      22.378  -5.250   7.671  1.00  0.00     0.074 A
HETATM    9 CL1  UNL     1      22.088  -6.854   8.313  1.00  0.00    -0.081 Cl
HETATM   10  C7  UNL     1      21.378  -4.348   7.488  1.00  0.00     0.139 A
HETATM   11  F1  UNL     1      20.110  -4.712   7.823  1.00  0.00    -0.204 F
HETATM   12  C8  UNL     1      21.651  -3.089   6.975  1.00  0.00     0.058 A
HETATM   13  C10 UNL     1      23.144  -1.323   6.112  1.00  0.00     0.027 C
HETATM   14  C11 UNL     1      22.257  -0.471   5.780  1.00  0.00     0.027 C
HETATM   15  C20 UNL     1      24.594  -1.036   5.843  1.00  0.00     0.202 C
HETATM   16  O4  UNL     1      24.936   0.147   5.799  1.00  0.00    -0.288 OA
HETATM   17  C21 UNL     1      25.589  -2.103   5.636  1.00  0.00     0.266 C
BRANCH  14  18
HETATM   18  C12 UNL     1      20.843  -0.320   5.695  1.00  0.00    -0.030 A
HETATM   19  C13 UNL     1      20.259   0.781   6.332  1.00  0.00     0.051 A
HETATM   20  C14 UNL     1      18.922   1.059   6.238  1.00  0.00     0.104 A
HETATM   21  C16 UNL     1      18.091   0.237   5.493  1.00  0.00     0.133 A
HETATM   22  C17 UNL     1      18.640  -0.853   4.856  1.00  0.00     0.104 A
HETATM   23  C19 UNL     1      19.984  -1.124   4.955  1.00  0.00     0.051 A
BRANCH  20  24
HETATM   24  O1  UNL     1      18.399   2.156   6.882  1.00  0.00    -0.353 OA
HETATM   25  C15 UNL     1      18.272   3.442   6.315  1.00  0.00     0.210 C
ENDBRANCH  20  24
BRANCH  21  26
HETATM   26  O2  UNL     1      16.744   0.544   5.419  1.00  0.00    -0.356 OA
ATOM     27  H2  UNL     1      16.437   1.080   4.697  1.00  0.00     0.218 HD
ENDBRANCH  21  26
BRANCH  22  28
HETATM   28  O3  UNL     1      17.768  -1.647   4.124  1.00  0.00    -0.353 OA
HETATM   29  C18 UNL     1      17.285  -2.855   4.672  1.00  0.00     0.210 C
ENDBRANCH  22  28
ENDBRANCH  14  18
BRANCH  17  30
HETATM   30  N2  UNL     1      25.724  -2.444   4.261  1.00  0.00    -0.308 N
HETATM   31  C22 UNL     1      27.029  -2.547   3.686  1.00  0.00     0.363 C
HETATM   32  O5  UNL     1      28.047  -2.336   4.401  1.00  0.00    -0.238 OA
ATOM     33  H2  UNL     1      24.896  -2.613   3.690  1.00  0.00     0.167 HD
BRANCH  31  34
HETATM   34  O6  UNL     1      27.286  -2.868   2.372  1.00  0.00    -0.294 OA
BRANCH  34  35
HETATM   35  C23 UNL     1      27.612  -4.172   1.959  1.00  0.00     0.061 C
HETATM   36  C24 UNL     1      26.870  -4.458   0.675  1.00  0.00     0.046 C
HETATM   37  C25 UNL     1      27.287  -5.249   2.935  1.00  0.00     0.046 C
HETATM   38  C26 UNL     1      29.110  -4.232   1.677  1.00  0.00     0.046 C
ENDBRANCH  34  35
ENDBRANCH  31  34
ENDBRANCH  17  30
ENDBRANCH   3   4
TORSDOF 8
ENDMDL