MODEL 5
REMARK VINA RESULT: -8.054870589      2.630      4.646
REMARK  7 active torsions:
REMARK  status: ('A' for Active; 'I' for Inactive)
REMARK    1  A    between atoms: C3_3  and  O1_4
REMARK    2  A    between atoms: C3_3  and  C4_6
REMARK    3  A    between atoms: C3_3  and  C25_35
REMARK    4  A    between atoms: C4_6  and  C5_7
REMARK    5  A    between atoms: C8_10  and  O2_11
REMARK    6  A    between atoms: C9_13  and  C10_14
REMARK    7  A    between atoms: C10_14  and  C12_16
ROOT
HETATM    1  C1  UNL     1      15.819   2.034   4.191  1.00  0.00     0.015 C
HETATM    2  C2  UNL     1      16.886   1.628   4.583  1.00  0.00    -0.079 C
HETATM    3  C3  UNL     1      18.170   1.162   5.028  1.00  0.00     0.126 C
ENDROOT
BRANCH   3   4
HETATM    4  O1  UNL     1      18.886   0.726   3.912  1.00  0.00    -0.377 OA
ATOM      5  H1  UNL     1      19.716   1.187   3.894  1.00  0.00     0.211 HD
ENDBRANCH   3   4
BRANCH   3   6
HETATM    6  C4  UNL     1      18.188   0.210   6.157  1.00  0.00     0.092 C
BRANCH   6   7
HETATM    7  C5  UNL     1      18.085  -1.233   5.874  1.00  0.00     0.099 C
HETATM    8  C6  UNL     1      17.046  -1.621   4.877  1.00  0.00     0.049 C
HETATM    9  C7  UNL     1      18.085  -2.098   7.116  1.00  0.00     0.075 C
HETATM   10  C8  UNL     1      19.188  -3.189   6.938  1.00  0.00     0.153 C
HETATM   11  C9  UNL     1      20.462  -2.458   6.892  1.00  0.00     0.195 C
HETATM   12  O5  UNL     1      20.332  -1.358   6.047  1.00  0.00    -0.232 OA
HETATM   13  O6  UNL     1      19.327  -1.580   5.243  1.00  0.00    -0.229 OA
BRANCH  10  14
HETATM   14  O2  UNL     1      18.812  -3.882   5.838  1.00  0.00    -0.393 OA
ATOM     15  H2  UNL     1      18.605  -4.752   6.160  1.00  0.00     0.210 HD
ENDBRANCH  10  14
BRANCH  11  16
HETATM   16  C10 UNL     1      21.716  -3.173   6.554  1.00  0.00     0.046 C
HETATM   17  C11 UNL     1      22.567  -2.194   5.795  1.00  0.00     0.015 C
BRANCH  16  18
HETATM   18  C12 UNL     1      22.400  -3.850   7.708  1.00  0.00     0.136 C
HETATM   19  O3  UNL     1      21.599  -4.903   8.130  1.00  0.00    -0.377 OA
HETATM   20  C13 UNL     1      22.157  -6.104   7.733  1.00  0.00     0.156 C
HETATM   21  C14 UNL     1      22.687  -6.792   8.975  1.00  0.00     0.037 C
HETATM   22  C24 UNL     1      23.402  -5.798   6.911  1.00  0.00     0.206 C
HETATM   23  C15 UNL     1      23.048  -5.717   9.963  1.00  0.00     0.030 C
HETATM   24  C16 UNL     1      24.439  -5.163   9.774  1.00  0.00     0.055 C
HETATM   25 CL1  UNL     1      25.464  -6.669   9.890  1.00  0.00    -0.118 Cl
HETATM   26  C17 UNL     1      24.751  -4.496  11.097  1.00  0.00     0.109 C
HETATM   27  C21 UNL     1      24.719  -4.399   8.574  1.00  0.00     0.004 C
HETATM   28  C18 UNL     1      25.759  -3.408  10.962  1.00  0.00     0.150 C
HETATM   29  O4  UNL     1      26.780  -3.296  11.663  1.00  0.00    -0.293 OA
HETATM   30  C19 UNL     1      25.430  -2.460   9.906  1.00  0.00     0.047 C
HETATM   31  C20 UNL     1      24.943  -2.952   8.798  1.00  0.00    -0.011 C
HETATM   32  C22 UNL     1      26.043  -4.840   7.888  1.00  0.00     0.022 C
HETATM   33  C23 UNL     1      23.726  -4.453   7.437  1.00  0.00     0.065 C
HETATM   34  F1  UNL     1      24.361  -6.749   6.978  1.00  0.00    -0.246 F
ENDBRANCH  16  18
ENDBRANCH  11  16
ENDBRANCH   6   7
ENDBRANCH   3   6
BRANCH   3  35
HETATM   35  C25 UNL     1      18.942   2.406   5.506  1.00  0.00     0.024 C
HETATM   36  C26 UNL     1      20.245   1.957   6.132  1.00  0.00     0.014 C
HETATM   37  C27 UNL     1      18.157   3.153   6.554  1.00  0.00     0.014 C
ENDBRANCH   3  35
TORSDOF 7
ENDMDL