MODEL 4
REMARK VINA RESULT: -5.862600385      1.812      2.401
REMARK  7 active torsions:
REMARK  status: ('A' for Active; 'I' for Inactive)
REMARK    1  A    between atoms: C2_2  and  C3_3
REMARK       I    between atoms: C3_3  and  N1_5
REMARK    2  A    between atoms: N1_5  and  C4_7
REMARK    3  A    between atoms: C7_10  and  C8_11
REMARK    4  A    between atoms: C12_17  and  O2_18
REMARK    5  A    between atoms: C15_21  and  N2_22
REMARK    6  A    between atoms: C18_25  and  N3_26
REMARK    7  A    between atoms: C23_33  and  O3_34
ROOT
HETATM    1  C4  UNL     1      21.890  -1.500   6.029  1.00  0.00     0.069 A
HETATM    2  C5  UNL     1      22.784  -2.446   5.615  1.00  0.00     0.047 A
HETATM    3  C6  UNL     1      24.119  -2.196   5.396  1.00  0.00     0.007 A
HETATM    4  C7  UNL     1      24.984  -3.185   4.982  1.00  0.00     0.017 A
HETATM    5  C15 UNL     1      26.305  -2.936   4.770  1.00  0.00     0.087 A
HETATM    6  C18 UNL     1      26.789  -1.621   4.984  1.00  0.00     0.131 A
HETATM    7  N4  UNL     1      25.947  -0.630   5.392  1.00  0.00    -0.335 N
HETATM    8  C20 UNL     1      26.460   0.705   5.574  1.00  0.00     0.158 C
HETATM    9  C21 UNL     1      24.628  -0.910   5.597  1.00  0.00     0.049 A
HETATM   10  C22 UNL     1      23.731   0.047   6.017  1.00  0.00     0.069 A
HETATM   11  C23 UNL     1      22.389  -0.213   6.234  1.00  0.00     0.094 A
ENDROOT
BRANCH   4  12
HETATM   12  C8  UNL     1      24.474  -4.532   4.779  1.00  0.00    -0.019 A
HETATM   13  C9  UNL     1      24.224  -5.336   5.866  1.00  0.00     0.033 A
HETATM   14  C10 UNL     1      23.731  -6.613   5.682  1.00  0.00     0.036 A
HETATM   15 BR1  UNL     1      23.374  -7.761   7.168  1.00  0.00    -0.049 Br
HETATM   16  C11 UNL     1      23.497  -7.052   4.374  1.00  0.00     0.084 A
HETATM   17 CL1  UNL     1      22.868  -8.671   4.130  1.00  0.00    -0.080 Cl
HETATM   18  C12 UNL     1      23.743  -6.257   3.277  1.00  0.00     0.092 A
HETATM   19  C14 UNL     1      24.235  -4.989   3.495  1.00  0.00     0.051 A
BRANCH  18  20
HETATM   20  O2  UNL     1      23.486  -6.762   2.013  1.00  0.00    -0.354 OA
HETATM   21  C13 UNL     1      23.623  -6.014   0.832  1.00  0.00     0.210 C
ENDBRANCH  18  20
ENDBRANCH   4  12
BRANCH   5  22
HETATM   22  N2  UNL     1      27.164  -3.982   4.360  1.00  0.00    -0.374 N
HETATM   23  C16 UNL     1      27.866  -4.746   3.268  1.00  0.00     0.143 A
HETATM   24  C17 UNL     1      28.014  -5.089   4.706  1.00  0.00     0.143 A
ENDBRANCH   5  22
BRANCH   6  25
HETATM   25  N3  UNL     1      28.016  -1.518   4.776  1.00  0.00    -0.379 N
HETATM   26  C19 UNL     1      28.951  -1.125   3.839  1.00  0.00     0.147 C
ATOM     27  H3  UNL     1      28.511  -1.844   5.605  1.00  0.00     0.160 HD
ENDBRANCH   6  25
BRANCH   1  28
HETATM   28  N1  UNL     1      20.509  -1.699   6.257  1.00  0.00    -0.321 N
HETATM   29  C3  UNL     1      19.435  -1.199   5.533  1.00  0.00     0.245 C
HETATM   30  O1  UNL     1      19.550  -0.470   4.534  1.00  0.00    -0.268 OA
ATOM     31  H1  UNL     1      20.271  -2.285   7.057  1.00  0.00     0.169 HD
BRANCH  29  32
HETATM   32  C2  UNL     1      18.065  -1.526   5.936  1.00  0.00     0.064 C
HETATM   33  C1  UNL     1      17.783  -2.592   6.670  1.00  0.00     0.017 C
ENDBRANCH  29  32
ENDBRANCH   1  28
BRANCH  11  34
HETATM   34  O3  UNL     1      21.571   0.833   6.657  1.00  0.00    -0.358 OA
ATOM     35  H3  UNL     1      20.818   0.684   7.216  1.00  0.00     0.217 HD
ENDBRANCH  11  34
TORSDOF 7
ENDMDL