MODEL 5
REMARK VINA RESULT: -7.302790412      2.040      3.483
REMARK  6 active torsions:
REMARK  status: ('A' for Active; 'I' for Inactive)
REMARK    1  A    between atoms: O1_2  and  C2_3
REMARK    2  A    between atoms: C4_5  and  N1_6
REMARK    3  A    between atoms: C7_9  and  C8_10
REMARK    4  A    between atoms: C11_14  and  O2_15
REMARK    5  A    between atoms: C16_25  and  O4_26
REMARK    6  A    between atoms: C18_28  and  O5_29
ROOT
HETATM    1  N1  UNL     1      20.960  -0.283   5.828  1.00  0.00    -0.285 N
HETATM    2  C5  UNL     1      21.528  -1.602   5.744  1.00  0.00     0.193 C
HETATM    3  C6  UNL     1      22.856  -1.489   6.473  1.00  0.00     0.032 C
HETATM    4  C7  UNL     1      23.542  -2.532   6.877  1.00  0.00     0.026 C
HETATM    5  C14 UNL     1      23.119  -0.078   6.633  1.00  0.00     0.268 C
HETATM    6  O3  UNL     1      24.167   0.465   7.047  1.00  0.00    -0.266 OA
HETATM    7  N2  UNL     1      21.930   0.634   6.226  1.00  0.00    -0.263 N
ATOM      8  H2  UNL     1      21.818   1.648   6.229  1.00  0.00     0.190 HD
ENDROOT
BRANCH   1   9
HETATM    9  C4  UNL     1      19.598   0.017   5.546  1.00  0.00     0.056 A
HETATM   10  C3  UNL     1      19.053   1.252   5.844  1.00  0.00     0.071 A
HETATM   11  C2  UNL     1      17.735   1.554   5.572  1.00  0.00     0.106 A
HETATM   12  C18 UNL     1      16.971   0.555   4.978  1.00  0.00     0.135 A
HETATM   13  C16 UNL     1      17.474  -0.688   4.665  1.00  0.00     0.106 A
HETATM   14  C15 UNL     1      18.793  -0.957   4.950  1.00  0.00     0.071 A
BRANCH  11  15
HETATM   15  O1  UNL     1      17.165   2.787   5.862  1.00  0.00    -0.353 OA
HETATM   16  C1  UNL     1      17.981   3.749   6.506  1.00  0.00     0.210 C
ENDBRANCH  11  15
BRANCH  12  17
HETATM   17  O5  UNL     1      15.663   0.845   4.704  1.00  0.00    -0.351 OA
HETATM   18  C19 UNL     1      15.336   1.785   3.692  1.00  0.00     0.210 C
ENDBRANCH  12  17
BRANCH  13  19
HETATM   19  O4  UNL     1      16.640  -1.626   4.074  1.00  0.00    -0.353 OA
HETATM   20  C17 UNL     1      17.004  -2.988   4.209  1.00  0.00     0.210 C
ENDBRANCH  13  19
ENDBRANCH   1   9
BRANCH   4  21
HETATM   21  C8  UNL     1      24.801  -2.567   7.565  1.00  0.00    -0.033 A
HETATM   22  C9  UNL     1      26.046  -2.409   7.039  1.00  0.00     0.033 A
HETATM   23  C10 UNL     1      27.206  -2.429   7.809  1.00  0.00     0.046 A
HETATM   24 BR1  UNL     1      28.895  -2.198   6.978  1.00  0.00    -0.048 Br
HETATM   25  C11 UNL     1      27.126  -2.617   9.173  1.00  0.00     0.100 A
HETATM   26  C12 UNL     1      25.885  -2.780   9.736  1.00  0.00     0.046 A
HETATM   27 BR2  UNL     1      25.796  -3.038  11.624  1.00  0.00    -0.048 Br
HETATM   28  C13 UNL     1      24.756  -2.756   8.953  1.00  0.00     0.033 A
BRANCH  25  29
HETATM   29  O2  UNL     1      28.275  -2.641   9.969  1.00  0.00    -0.358 OA
ATOM     30  H2  UNL     1      28.465  -1.939  10.581  1.00  0.00     0.217 HD
ENDBRANCH  25  29
ENDBRANCH   4  21
TORSDOF 6
ENDMDL