MODEL 4
REMARK VINA RESULT: -7.911110012      2.587      4.559
REMARK  6 active torsions:
REMARK  status: ('A' for Active; 'I' for Inactive)
REMARK    1  A    between atoms: C3_4  and  O1_5
REMARK    2  A    between atoms: O1_5  and  C4_6
REMARK    3  A    between atoms: C13_20  and  N3_21
REMARK    4  A    between atoms: N3_21  and  C14_23
REMARK    5  A    between atoms: C14_23  and  C15_24
REMARK    6  A    between atoms: C15_24  and  C16_25
ROOT
HETATM    1  N1  UNL     1      24.238   0.196   5.085  1.00  0.00    -0.191 NA
HETATM    2  C1  UNL     1      23.852  -0.736   5.611  1.00  0.00     0.106 C
HETATM    3  C2  UNL     1      23.347  -1.885   6.262  1.00  0.00     0.131 A
HETATM    4  C3  UNL     1      21.997  -2.076   6.352  1.00  0.00     0.186 A
HETATM    5  N2  UNL     1      21.614  -3.212   7.047  1.00  0.00    -0.169 N
ATOM      6  H2  UNL     1      20.613  -3.388   7.138  1.00  0.00     0.186 HD
HETATM    7  C13 UNL     1      22.424  -4.076   7.598  1.00  0.00     0.681 A
HETATM    8  N4  UNL     1      23.751  -3.852   7.484  1.00  0.00    -0.183 N
ATOM      9  H4  UNL     1      24.409  -4.510   7.902  1.00  0.00     0.185 HD
HETATM   10  C17 UNL     1      24.221  -2.771   6.826  1.00  0.00     0.121 A
HETATM   11 BR2  UNL     1      26.129  -2.503   6.698  1.00  0.00    -0.029 Br
ENDROOT
BRANCH   4  12
HETATM   12  O1  UNL     1      21.022  -1.348   5.874  1.00  0.00    -0.291 OA
BRANCH  12  13
HETATM   13  C4  UNL     1      19.826  -1.051   5.521  1.00  0.00     0.092 A
HETATM   14  C5  UNL     1      18.992  -1.987   4.893  1.00  0.00     0.057 A
HETATM   15  C6  UNL     1      17.709  -1.722   4.493  1.00  0.00     0.016 A
HETATM   16 BR1  UNL     1      16.618  -3.046   3.635  1.00  0.00    -0.051 Br
HETATM   17  C7  UNL     1      17.215  -0.462   4.727  1.00  0.00     0.057 A
HETATM   18  C8  UNL     1      17.981   0.522   5.345  1.00  0.00     0.093 A
HETATM   19  O2  UNL     1      17.502   1.722   5.559  1.00  0.00    -0.275 OA
HETATM   20  C12 UNL     1      19.256   0.207   5.725  1.00  0.00     0.032 A
HETATM   21  C9  UNL     1      18.173   2.693   6.131  1.00  0.00     0.288 A
HETATM   22  O3  UNL     1      17.677   3.842   6.322  1.00  0.00    -0.260 OA
HETATM   23  C10 UNL     1      19.479   2.461   6.548  1.00  0.00     0.083 A
HETATM   24  C11 UNL     1      19.993   1.210   6.332  1.00  0.00     0.023 A
ENDBRANCH  12  13
ENDBRANCH   4  12
BRANCH   7  25
HETATM   25  N3  UNL     1      22.083  -5.128   8.254  1.00  0.00    -0.225 N
ATOM     26  H3  UNL     1      21.151  -5.215   8.656  1.00  0.00     0.177 HD
BRANCH  25  27
HETATM   27  C14 UNL     1      23.076  -6.199   8.407  1.00  0.00     0.148 C
BRANCH  27  28
HETATM   28  C15 UNL     1      23.182  -6.571   9.897  1.00  0.00     0.133 C
BRANCH  28  29
HETATM   29  C16 UNL     1      23.111  -5.311  10.674  1.00  0.00     0.174 C
HETATM   30  O4  UNL     1      22.146  -5.065  11.433  1.00  0.00    -0.648 OA
HETATM   31  O5  UNL     1      24.140  -4.383  10.558  1.00  0.00    -0.648 OA
ENDBRANCH  28  29
ENDBRANCH  27  28
ENDBRANCH  25  27
ENDBRANCH   7  25
TORSDOF 6
ENDMDL