MODEL 1
REMARK VINA RESULT: -7.813467887      0.000      0.000
REMARK  8 active torsions:
REMARK  status: ('A' for Active; 'I' for Inactive)
REMARK    1  A    between atoms: C2_2  and  N1_3
REMARK    2  A    between atoms: C2_2  and  C15_26
REMARK       I    between atoms: N1_3  and  C3_5
REMARK    3  A    between atoms: C3_5  and  C4_7
REMARK    4  A    between atoms: C4_7  and  N2_8
REMARK    5  A    between atoms: C7_13  and  C8_14
REMARK    6  A    between atoms: C11_18  and  O3_19
REMARK    7  A    between atoms: C15_26  and  O6_28
REMARK    8  A    between atoms: O6_28  and  C16_29
ROOT
HETATM    1  N2  UNL     1      22.359  -3.884   6.795  1.00  0.00    -0.265 N
HETATM    2  C5  UNL     1      23.699  -3.639   6.449  1.00  0.00     0.294 C
HETATM    3  O2  UNL     1      24.620  -4.428   6.197  1.00  0.00    -0.259 OA
HETATM    4  S1  UNL     1      23.849  -1.864   6.435  1.00  0.00    -0.023 SA
HETATM    5  C6  UNL     1      22.059  -1.561   6.207  1.00  0.00     0.079 C
HETATM    6  C7  UNL     1      21.568  -0.445   5.747  1.00  0.00     0.036 C
HETATM    7  C14 UNL     1      21.483  -2.808   6.677  1.00  0.00     0.268 C
HETATM    8  O4  UNL     1      20.229  -2.883   6.964  1.00  0.00    -0.266 OA
ENDROOT
BRANCH   1   9
HETATM    9  C4  UNL     1      21.941  -5.221   7.252  1.00  0.00     0.238 C
BRANCH   9  10
HETATM   10  C3  UNL     1      21.991  -5.300   8.733  1.00  0.00     0.236 C
HETATM   11  N1  UNL     1      23.147  -5.816   9.396  1.00  0.00    -0.346 N
ATOM     12  H1  UNL     1      23.936  -6.125   8.829  1.00  0.00     0.163 HD
HETATM   13  O1  UNL     1      21.047  -4.927   9.462  1.00  0.00    -0.272 OA
BRANCH  11  14
HETATM   14  C2  UNL     1      23.248  -5.918  10.822  1.00  0.00     0.180 C
HETATM   15  C1  UNL     1      23.862  -7.231  11.260  1.00  0.00     0.043 C
BRANCH  14  16
HETATM   16  C15 UNL     1      23.994  -4.756  11.389  1.00  0.00     0.282 C
HETATM   17  O5  UNL     1      24.017  -4.625  12.627  1.00  0.00    -0.263 OA
BRANCH  16  18
HETATM   18  O6  UNL     1      24.646  -3.844  10.610  1.00  0.00    -0.310 OA
BRANCH  18  19
HETATM   19  C16 UNL     1      26.045  -3.673  10.527  1.00  0.00     0.060 C
HETATM   20  C17 UNL     1      26.799  -4.973  10.618  1.00  0.00     0.045 C
HETATM   21  C18 UNL     1      26.320  -3.093   9.133  1.00  0.00     0.045 C
HETATM   22  C19 UNL     1      26.511  -2.700  11.571  1.00  0.00     0.045 C
ENDBRANCH  18  19
ENDBRANCH  16  18
ENDBRANCH  14  16
ENDBRANCH  11  14
ENDBRANCH   9  10
ENDBRANCH   1   9
BRANCH   6  23
HETATM   23  C8  UNL     1      20.200  -0.079   5.517  1.00  0.00    -0.032 A
HETATM   24  C9  UNL     1      19.311  -0.954   4.901  1.00  0.00     0.038 A
HETATM   25  C10 UNL     1      17.985  -0.616   4.707  1.00  0.00     0.069 A
HETATM   26 CL1  UNL     1      16.857  -1.723   3.929  1.00  0.00    -0.081 Cl
HETATM   27  C11 UNL     1      17.513   0.624   5.131  1.00  0.00     0.104 A
HETATM   28  C12 UNL     1      18.373   1.484   5.734  1.00  0.00     0.046 A
HETATM   29 BR1  UNL     1      17.755   3.179   6.327  1.00  0.00    -0.048 Br
HETATM   30  C13 UNL     1      19.707   1.130   5.924  1.00  0.00     0.033 A
BRANCH  27  31
HETATM   31  O3  UNL     1      16.167   0.919   4.911  1.00  0.00    -0.358 OA
ATOM     32  H3  UNL     1      15.952   1.770   4.547  1.00  0.00     0.217 HD
ENDBRANCH  27  31
ENDBRANCH   6  23
TORSDOF 8
ENDMDL