MODEL 2
REMARK VINA RESULT: -5.754722655      2.109      6.323
REMARK  3 active torsions:
REMARK  status: ('A' for Active; 'I' for Inactive)
REMARK    1  A    between atoms: O1_1  and  C1_3
REMARK    2  A    between atoms: C4_6  and  O2_7
REMARK    3  A    between atoms: N1_9  and  C5_10
ROOT
HETATM    1  C1  UNL     1      -2.159   3.437   3.079  1.00  0.00     0.172 A
HETATM    2  C2  UNL     1      -2.455   2.390   2.227  1.00  0.00     0.093 A
HETATM    3  C3  UNL     1      -2.225   1.231   2.896  1.00  0.00     0.061 A
HETATM    4  C4  UNL     1      -1.789   1.601   4.155  1.00  0.00     0.156 A
HETATM    5  N1  UNL     1      -1.750   2.963   4.262  1.00  0.00    -0.301 N
HETATM    6  C11 UNL     1      -2.521   0.049   2.043  1.00  0.00     0.174 C
HETATM    7  C12 UNL     1      -3.729  -0.659   2.562  1.00  0.00     0.046 C
HETATM    8  C13 UNL     1      -3.927  -2.031   2.010  1.00  0.00     0.004 C
HETATM    9  C14 UNL     1      -2.668  -2.826   2.132  1.00  0.00     0.027 C
HETATM   10  C15 UNL     1      -1.578  -2.055   1.377  1.00  0.00     0.233 C
HETATM   11  N2  UNL     1      -1.371  -0.829   2.120  1.00  0.00    -0.060 N
ATOM     12  H21 UNL     1      -1.114  -1.020   3.088  1.00  0.00     0.278 HD
ATOM     13  H22 UNL     1      -0.521  -0.353   1.819  1.00  0.00     0.278 HD
HETATM   14  C16 UNL     1      -2.706   0.639   0.679  1.00  0.00     0.164 C
HETATM   15  N3  UNL     1      -2.907   2.055   0.922  1.00  0.00    -0.383 N
ATOM     16  H3  UNL     1      -3.311   2.713   0.256  1.00  0.00     0.159 HD
ENDROOT
BRANCH   4  17
HETATM   17  O2  UNL     1      -1.432   0.775   5.189  1.00  0.00    -0.345 OA
ATOM     18  H2  UNL     1      -1.493   0.956   6.119  1.00  0.00     0.219 HD
ENDBRANCH   4  17
BRANCH   1  19
HETATM   19  O1  UNL     1      -2.310   4.761   2.643  1.00  0.00    -0.344 OA
ATOM     20  H1  UNL     1      -2.807   5.380   3.165  1.00  0.00     0.219 HD
ENDBRANCH   1  19
BRANCH   5  21
HETATM   21  C5  UNL     1      -1.360   3.722   5.391  1.00  0.00     0.094 C
HETATM   22  C6  UNL     1       0.017   4.303   5.377  1.00  0.00     0.026 C
HETATM   23  C7  UNL     1       0.377   4.667   6.805  1.00  0.00     0.002 C
HETATM   24  C8  UNL     1      -0.837   5.016   7.624  1.00  0.00     0.000 C
HETATM   25  C9  UNL     1      -1.790   5.785   6.739  1.00  0.00     0.002 C
HETATM   26  C10 UNL     1      -2.310   4.886   5.615  1.00  0.00     0.026 C
ENDBRANCH   5  21
TORSDOF 3
ENDMDL