MODEL 4
REMARK VINA RESULT: -3.364547299      0.821      1.061
REMARK  2 active torsions:
REMARK  status: ('A' for Active; 'I' for Inactive)
REMARK    1  A    between atoms: C3_5  and  C4_6
REMARK    2  A    between atoms: N5_24  and  O1_26
ROOT
HETATM    1  C1  UNL     1      -0.220   0.873   3.624  1.00  0.00     0.066 C
HETATM    2  C2  UNL     1      -1.050   2.108   3.684  1.00  0.00     0.022 C
HETATM    3  N1  UNL     1      -0.850   3.090   4.483  1.00  0.00    -0.362 N
ATOM      4  H1  UNL     1      -0.097   3.140   5.171  1.00  0.00     0.161 HD
HETATM    5  C3  UNL     1      -1.835   4.108   4.271  1.00  0.00     0.336 C
HETATM    6  N4  UNL     1      -2.949   3.359   3.746  1.00  0.00    -0.029 N
ATOM      7  H41 UNL     1      -3.688   3.908   3.310  1.00  0.00     0.281 HD
ATOM      8  H42 UNL     1      -3.564   2.931   4.438  1.00  0.00     0.281 HD
HETATM    9  C8  UNL     1      -2.230   2.428   2.860  1.00  0.00     0.205 C
HETATM   10  C9  UNL     1      -1.915   3.168   1.602  1.00  0.00     0.052 C
HETATM   11  C10 UNL     1      -2.319   2.278   0.432  1.00  0.00     0.012 C
HETATM   12  C11 UNL     1      -3.801   2.010   0.445  1.00  0.00    -0.043 C
HETATM   13  C12 UNL     1      -4.098   1.003  -0.647  1.00  0.00     0.015 C
HETATM   14  C13 UNL     1      -4.502   3.308   0.080  1.00  0.00     0.015 C
HETATM   15  C14 UNL     1      -4.299   1.476   1.756  1.00  0.00     0.066 C
HETATM   16  C15 UNL     1      -3.115   1.262   2.648  1.00  0.00     0.052 C
HETATM   17  N5  UNL     1      -2.891   0.120   3.193  1.00  0.00    -0.275 N
ATOM     18  H5  UNL     1      -2.081  -0.017   3.798  1.00  0.00     0.193 HD
ENDROOT
BRANCH   5  19
HETATM   19  C4  UNL     1      -2.187   4.812   5.505  1.00  0.00     0.061 A
HETATM   20  C5  UNL     1      -1.765   4.531   6.778  1.00  0.00     0.057 A
HETATM   21  C6  UNL     1      -2.317   5.422   7.677  1.00  0.00     0.063 A
HETATM   22  N2  UNL     1      -2.165   5.516   9.088  1.00  0.00    -0.101 NA
HETATM   23  C7  UNL     1      -3.097   6.264   6.912  1.00  0.00     0.114 A
HETATM   24  N3  UNL     1      -3.001   5.876   5.609  1.00  0.00    -0.364 N
ATOM     25  H3  UNL     1      -3.478   6.327   4.828  1.00  0.00     0.165 HD
ENDBRANCH   5  19
BRANCH  17  26
HETATM   26  O1  UNL     1      -3.760  -0.912   2.947  1.00  0.00    -0.290 OA
ATOM     27  H1  UNL     1      -4.437  -1.102   3.585  1.00  0.00     0.244 HD
ENDBRANCH  17  26
TORSDOF 2
ENDMDL