MODEL 2
REMARK VINA RESULT: -5.712641920      2.283      4.641
REMARK  4 active torsions:
REMARK  status: ('A' for Active; 'I' for Inactive)
REMARK    1  A    between atoms: C6_6  and  O1_8
REMARK    2  A    between atoms: C10_12  and  O2_13
REMARK    3  A    between atoms: O2_13  and  O3_14
REMARK    4  A    between atoms: C13_21  and  O4_22
ROOT
HETATM    1  C1  UNL     1      -8.946  -4.468  10.511  1.00  0.00     0.014 C
HETATM    2  C2  UNL     1      -8.351  -5.651  10.475  1.00  0.00    -0.089 C
HETATM    3  C3  UNL     1      -8.804  -6.683   9.537  1.00  0.00     0.033 C
HETATM    4  C4  UNL     1      -9.301  -6.139   8.226  1.00  0.00     0.007 C
HETATM    5  C5  UNL     1      -8.312  -5.229   7.554  1.00  0.00     0.038 C
HETATM    6  C6  UNL     1      -7.640  -5.820   6.363  1.00  0.00     0.054 C
HETATM    7  C7  UNL     1      -8.542  -6.722   5.554  1.00  0.00     0.045 C
HETATM    8  C8  UNL     1      -6.326  -6.529   6.711  1.00  0.00     0.040 C
HETATM    9  C9  UNL     1      -5.311  -5.487   6.997  1.00  0.00     0.038 C
HETATM   10  C10 UNL     1      -4.202  -5.878   7.903  1.00  0.00     0.165 C
HETATM   11  C11 UNL     1      -4.594  -6.722   9.074  1.00  0.00     0.089 C
HETATM   12  C12 UNL     1      -3.916  -6.339  10.337  1.00  0.00     0.011 C
HETATM   13  N1  UNL     1      -2.651  -6.440  10.494  1.00  0.00    -0.403 N
ATOM     14  H11 UNL     1      -2.185  -6.176  11.362  1.00  0.00     0.155 HD
ATOM     15  H12 UNL     1      -2.110  -6.798   9.708  1.00  0.00     0.155 HD
HETATM   16  C13 UNL     1      -4.707  -5.816  11.486  1.00  0.00     0.163 C
HETATM   17  C14 UNL     1      -5.982  -5.153  11.064  1.00  0.00     0.042 C
HETATM   18  C15 UNL     1      -7.216  -5.963  11.382  1.00  0.00     0.036 C
ENDROOT
BRANCH   6  19
HETATM   19  O1  UNL     1      -7.274  -4.752   5.512  1.00  0.00    -0.390 OA
ATOM     20  H1  UNL     1      -6.358  -4.868   5.289  1.00  0.00     0.210 HD
ENDBRANCH   6  19
BRANCH  10  21
HETATM   21  O2  UNL     1      -3.572  -4.696   8.339  1.00  0.00    -0.238 OA
BRANCH  21  22
HETATM   22  O3  UNL     1      -2.330  -4.620   7.957  1.00  0.00    -0.250 OA
ATOM     23  H3  UNL     1      -1.761  -4.269   8.631  1.00  0.00     0.253 HD
ENDBRANCH  21  22
ENDBRANCH  10  21
BRANCH  16  24
HETATM   24  O4  UNL     1      -3.920  -4.980  12.309  1.00  0.00    -0.390 OA
ATOM     25  H4  UNL     1      -4.265  -4.095  12.329  1.00  0.00     0.210 HD
ENDBRANCH  16  24
TORSDOF 4
ENDMDL