MODEL 3
REMARK VINA RESULT: -6.314541461      3.168      5.714
REMARK  3 active torsions:
REMARK  status: ('A' for Active; 'I' for Inactive)
REMARK    1  A    between atoms: C3_5  and  C4_6
REMARK    2  A    between atoms: C7_9  and  O1_10
REMARK    3  A    between atoms: C11_17  and  N3_18
ROOT
HETATM    1  C1  UNL     1      -6.677  -5.858   5.260  1.00  0.00     0.069 C
HETATM    2  C2  UNL     1      -5.312  -5.311   5.177  1.00  0.00     0.020 A
HETATM    3  N1  UNL     1      -4.790  -4.849   4.022  1.00  0.00    -0.360 N
ATOM      4  H1  UNL     1      -5.369  -4.897   3.185  1.00  0.00     0.165 HD
HETATM    5  C3  UNL     1      -3.564  -4.331   3.905  1.00  0.00     0.048 A
HETATM    6  C7  UNL     1      -2.699  -4.224   4.991  1.00  0.00     0.116 A
HETATM    7  C8  UNL     1      -3.183  -4.687   6.203  1.00  0.00     0.084 A
HETATM    8  N2  UNL     1      -2.351  -4.608   7.254  1.00  0.00    -0.338 N
ATOM      9  H2  UNL     1      -1.417  -4.209   7.150  1.00  0.00     0.167 HD
HETATM   10  C9  UNL     1      -2.776  -5.070   8.457  1.00  0.00     0.131 A
HETATM   11  C10 UNL     1      -4.036  -5.609   8.613  1.00  0.00     0.100 A
HETATM   12  C11 UNL     1      -4.887  -5.684   7.515  1.00  0.00     0.071 A
HETATM   13  C12 UNL     1      -4.460  -5.210   6.261  1.00  0.00     0.044 A
HETATM   14  N4  UNL     1      -4.655  -6.133   9.789  1.00  0.00    -0.385 N
ATOM     15  H4  UNL     1      -5.672  -6.095   9.872  1.00  0.00     0.159 HD
HETATM   16  C13 UNL     1      -3.876  -6.722  10.878  1.00  0.00     0.121 C
HETATM   17  C14 UNL     1      -3.136  -5.568  11.509  1.00  0.00     0.039 C
HETATM   18  C15 UNL     1      -1.838  -5.219  10.897  1.00  0.00     0.123 C
HETATM   19  N5  UNL     1      -1.809  -4.953   9.503  1.00  0.00    -0.374 N
ATOM     20  H5  UNL     1      -0.907  -4.605   9.179  1.00  0.00     0.161 HD
ENDROOT
BRANCH   5  21
HETATM   21  C4  UNL     1      -3.054  -3.821   2.598  1.00  0.00     0.030 C
HETATM   22  C5  UNL     1      -4.038  -4.192   1.490  1.00  0.00     0.016 C
HETATM   23  C6  UNL     1      -2.923  -2.303   2.619  1.00  0.00     0.016 C
ENDBRANCH   5  21
BRANCH   6  24
HETATM   24  O1  UNL     1      -1.438  -3.680   4.825  1.00  0.00    -0.357 OA
ATOM     25  H1  UNL     1      -0.707  -4.004   5.338  1.00  0.00     0.218 HD
ENDBRANCH   6  24
BRANCH  12  26
HETATM   26  N3  UNL     1      -6.025  -6.172   7.569  1.00  0.00    -0.396 N
ATOM     27  H32 UNL     1      -6.708  -5.818   6.900  1.00  0.00     0.156 HD
ATOM     28  H31 UNL     1      -6.288  -6.906   8.227  1.00  0.00     0.156 HD
ENDBRANCH  12  26
TORSDOF 3
ENDMDL