MODEL 3
REMARK VINA RESULT: -5.287145224      8.909     11.465
REMARK  3 active torsions:
REMARK  status: ('A' for Active; 'I' for Inactive)
REMARK    1  A    between atoms: C4_4  and  C5_5
REMARK    2  A    between atoms: C11_18  and  N4_19
REMARK    3  A    between atoms: C12_24  and  N6_25
ROOT
HETATM    1  C5  UNL     1      -2.093   4.668   4.999  1.00  0.00     0.031 C
HETATM    2  C6  UNL     1      -1.785   3.432   4.676  1.00  0.00     0.052 A
HETATM    3  N1  UNL     1      -1.005   2.640   5.562  1.00  0.00    -0.351 N
ATOM      4  H1  UNL     1      -0.666   2.992   6.457  1.00  0.00     0.166 HD
HETATM    5  C7  UNL     1      -0.758   1.433   5.145  1.00  0.00     0.181 A
HETATM    6  N2  UNL     1      -1.186   0.874   3.936  1.00  0.00    -0.350 N
ATOM      7  H2  UNL     1      -0.928  -0.088   3.719  1.00  0.00     0.166 HD
HETATM    8  C8  UNL     1      -1.987   1.622   2.977  1.00  0.00     0.069 A
HETATM    9  C9  UNL     1      -2.262   2.894   3.389  1.00  0.00     0.061 A
HETATM   10  S1  UNL     1      -3.189   3.539   2.119  1.00  0.00    -0.066 SA
HETATM   11  C10 UNL     1      -3.212   2.181   1.086  1.00  0.00     0.107 A
HETATM   12  N3  UNL     1      -3.767   1.937  -0.134  1.00  0.00    -0.185 N
ATOM     13  H3  UNL     1      -4.299   2.675  -0.595  1.00  0.00     0.185 HD
HETATM   14  C11 UNL     1      -3.633   0.751  -0.746  1.00  0.00     0.678 A
HETATM   15  N5  UNL     1      -2.931  -0.167  -0.098  1.00  0.00    -0.176 N
ATOM     16  H5  UNL     1      -2.818  -1.076  -0.547  1.00  0.00     0.186 HD
HETATM   17  C12 UNL     1      -2.357   0.005   1.104  1.00  0.00     0.130 A
HETATM   18  C13 UNL     1      -2.486   1.245   1.765  1.00  0.00     0.070 A
ENDROOT
BRANCH   1  19
HETATM   19  C4  UNL     1      -1.648   5.228   6.243  1.00  0.00     0.004 C
HETATM   20  C2  UNL     1      -2.384   6.044   6.986  1.00  0.00    -0.088 C
HETATM   21  C1  UNL     1      -3.743   6.376   6.469  1.00  0.00     0.043 C
HETATM   22  C3  UNL     1      -1.863   6.585   8.257  1.00  0.00     0.043 C
ENDBRANCH   1  19
BRANCH  17  23
HETATM   23  N6  UNL     1      -1.702  -0.980   1.614  1.00  0.00    -0.384 N
ATOM     24  H62 UNL     1      -0.827  -1.317   1.213  1.00  0.00     0.157 HD
ATOM     25  H61 UNL     1      -2.080  -1.432   2.447  1.00  0.00     0.157 HD
ENDBRANCH  17  23
BRANCH  14  26
HETATM   26  N4  UNL     1      -4.167   0.543  -1.899  1.00  0.00    -0.234 N
ATOM     27  H42 UNL     1      -4.970   1.069  -2.243  1.00  0.00     0.174 HD
ATOM     28  H41 UNL     1      -3.795  -0.173  -2.523  1.00  0.00     0.174 HD
ENDBRANCH  14  26
TORSDOF 3
ENDMDL