MODEL 5
REMARK VINA RESULT: -4.965770226      1.459      6.802
REMARK  2 active torsions:
REMARK  status: ('A' for Active; 'I' for Inactive)
REMARK    1  A    between atoms: C4_4  and  N1_5
REMARK    2  A    between atoms: N1_5  and  C5_7
ROOT
HETATM    1  C5  UNL     1      -2.690   3.207   3.145  1.00  0.00     0.399 C
HETATM    2  N2  UNL     1      -1.682   3.497   2.154  1.00  0.00    -0.075 NA
HETATM    3  N3  UNL     1      -0.738   4.390   2.620  1.00  0.00    -0.034 NA
HETATM    4  N4  UNL     1      -0.150   3.855   3.744  1.00  0.00    -0.090 NA
HETATM    5  C6  UNL     1      -1.123   3.875   4.852  1.00  0.00     0.215 C
HETATM    6  C7  UNL     1      -1.599   5.274   4.929  1.00  0.00     0.058 C
HETATM    7  C8  UNL     1      -2.571   5.660   5.932  1.00  0.00     0.004 C
HETATM    8  C9  UNL     1      -2.806   4.784   7.108  1.00  0.00     0.000 C
HETATM    9  C10 UNL     1      -1.712   4.725   8.110  1.00  0.00     0.000 C
HETATM   10  C11 UNL     1      -0.398   5.277   7.661  1.00  0.00     0.000 C
HETATM   11  C12 UNL     1       0.371   4.427   6.723  1.00  0.00     0.004 C
HETATM   12  C13 UNL     1      -0.404   3.347   6.041  1.00  0.00     0.058 C
HETATM   13  N5  UNL     1      -2.184   2.970   4.449  1.00  0.00    -0.014 N
ATOM     14  H51 UNL     1      -1.879   2.001   4.543  1.00  0.00     0.283 HD
ATOM     15  H52 UNL     1      -2.941   2.982   5.133  1.00  0.00     0.283 HD
ENDROOT
BRANCH   1  16
HETATM   16  N1  UNL     1      -3.436   2.055   2.690  1.00  0.00    -0.349 N
ATOM     17  H1  UNL     1      -3.758   1.382   3.385  1.00  0.00     0.163 HD
BRANCH  16  18
HETATM   18  C4  UNL     1      -3.744   1.815   1.327  1.00  0.00     0.030 A
HETATM   19  C3  UNL     1      -4.318   2.732   0.480  1.00  0.00     0.029 A
HETATM   20  C2  UNL     1      -4.604   2.478  -0.833  1.00  0.00     0.002 A
HETATM   21  C1  UNL     1      -4.313   1.249  -1.364  1.00  0.00     0.000 A
HETATM   22  C15 UNL     1      -3.729   0.278  -0.549  1.00  0.00     0.002 A
HETATM   23  C14 UNL     1      -3.456   0.582   0.783  1.00  0.00     0.029 A
ENDBRANCH  16  18
ENDBRANCH   1  16
TORSDOF 2
ENDMDL