MODEL 3
REMARK VINA RESULT: -7.192603736      1.864      2.245
REMARK  5 active torsions:
REMARK  status: ('A' for Active; 'I' for Inactive)
REMARK    1  A    between atoms: O1_1  and  N1_3
REMARK    2  A    between atoms: C1_5  and  O2_6
REMARK    3  A    between atoms: C1_5  and  N2_8
REMARK    4  A    between atoms: N2_8  and  C2_10
REMARK    5  A    between atoms: C11_24  and  O3_25
ROOT
HETATM    1  C2  UNL     1      -0.827   3.579   5.141  1.00  0.00     0.079 A
HETATM    2  C3  UNL     1      -1.042   2.310   4.665  1.00  0.00     0.050 A
HETATM    3  C4  UNL     1      -1.800   2.191   3.555  1.00  0.00     0.008 A
HETATM    4  C5  UNL     1      -2.288   3.334   3.002  1.00  0.00     0.099 A
HETATM    5  S1  UNL     1      -1.684   4.552   4.032  1.00  0.00    -0.053 SA
HETATM    6  N3  UNL     1      -3.113   3.519   1.834  1.00  0.00    -0.297 N
ATOM      7  H3  UNL     1      -3.051   4.454   1.432  1.00  0.00     0.187 HD
HETATM    8  N4  UNL     1      -3.960   2.688   1.161  1.00  0.00    -0.325 N
ATOM      9  H4  UNL     1      -4.774   3.061   0.674  1.00  0.00     0.181 HD
HETATM   10  C6  UNL     1      -3.692   1.307   1.152  1.00  0.00     0.048 C
HETATM   11  C7  UNL     1      -2.737   0.910   0.059  1.00  0.00     0.033 C
HETATM   12  C8  UNL     1      -3.961   0.820  -0.863  1.00  0.00     0.005 C
HETATM   13  C9  UNL     1      -4.775   0.548   0.407  1.00  0.00     0.033 C
HETATM   14  C10 UNL     1      -3.457   0.680   2.491  1.00  0.00     0.069 C
HETATM   15  C11 UNL     1      -2.064   0.809   2.991  1.00  0.00     0.156 C
ENDROOT
BRANCH   1  16
HETATM   16  N2  UNL     1      -0.061   3.981   6.299  1.00  0.00    -0.315 N
ATOM     17  H2  UNL     1       0.877   4.371   6.205  1.00  0.00     0.170 HD
BRANCH  16  18
HETATM   18  C1  UNL     1      -0.665   3.810   7.570  1.00  0.00     0.242 C
HETATM   19  N1  UNL     1      -1.416   4.713   8.090  1.00  0.00    -0.233 N
ATOM     20  H1  UNL     1      -1.841   4.566   9.006  1.00  0.00     0.198 HD
BRANCH  19  21
HETATM   21  O1  UNL     1      -1.643   5.886   7.398  1.00  0.00    -0.287 OA
ATOM     22  H1  UNL     1      -1.044   6.142   6.707  1.00  0.00     0.244 HD
ENDBRANCH  19  21
BRANCH  18  23
HETATM   23  O2  UNL     1      -0.432   2.633   8.255  1.00  0.00    -0.331 OA
ATOM     24  H2  UNL     1      -0.069   2.661   9.133  1.00  0.00     0.221 HD
ENDBRANCH  18  23
ENDBRANCH  16  18
ENDBRANCH   1  16
BRANCH  15  25
HETATM   25  O3  UNL     1      -1.849  -0.175   3.949  1.00  0.00    -0.391 OA
ATOM     26  H3  UNL     1      -0.923  -0.371   4.038  1.00  0.00     0.210 HD
ENDBRANCH  15  25
TORSDOF 5
ENDMDL