MODEL 2
REMARK VINA RESULT: -6.388557162      1.412      1.905
REMARK  3 active torsions:
REMARK  status: ('A' for Active; 'I' for Inactive)
REMARK    1  A    between atoms: C3_5  and  O1_6
REMARK    2  A    between atoms: C4_8  and  C5_9
REMARK    3  A    between atoms: C8_16  and  N4_17
ROOT
HETATM    1  C5  UNL     1      -2.154   3.449   3.250  1.00  0.00     0.035 A
HETATM    2  C6  UNL     1      -2.259   4.529   2.381  1.00  0.00     0.121 A
HETATM    3  N2  UNL     1      -2.724   4.347   1.123  1.00  0.00    -0.199 N
ATOM      4  H2  UNL     1      -2.798   5.144   0.490  1.00  0.00     0.183 HD
HETATM    5  C7  UNL     1      -3.092   3.112   0.697  1.00  0.00     0.719 A
HETATM    6  N3  UNL     1      -3.575   2.649  -0.466  1.00  0.00    -0.019 N
ATOM      7  H3  UNL     1      -3.757   3.219  -1.292  1.00  0.00     0.203 HD
HETATM    8  C8  UNL     1      -3.787   1.310  -0.383  1.00  0.00     0.706 A
HETATM    9  N5  UNL     1      -3.423   0.960   0.857  1.00  0.00    -0.110 N
ATOM     10  H5  UNL     1      -3.461   0.015   1.238  1.00  0.00     0.207 HD
HETATM   11  N6  UNL     1      -3.004   2.039   1.513  1.00  0.00    -0.059 N
HETATM   12  C9  UNL     1      -2.547   2.220   2.749  1.00  0.00     0.154 A
HETATM   13  S1  UNL     1      -2.431   0.943   3.750  1.00  0.00    -0.057 SA
ENDROOT
BRANCH   1  14
HETATM   14  C4  UNL     1      -1.659   3.613   4.603  1.00  0.00     0.037 A
HETATM   15  C3  UNL     1      -2.059   4.625   5.468  1.00  0.00     0.152 A
HETATM   16  N1  UNL     1      -1.411   4.490   6.642  1.00  0.00    -0.340 N
HETATM   17  C2  UNL     1      -0.606   3.416   6.554  1.00  0.00     0.014 A
ATOM     18  H1  UNL     1      -1.514   5.096   7.456  1.00  0.00     0.167 HD
HETATM   19  C1  UNL     1       0.284   2.913   7.622  1.00  0.00     0.068 C
HETATM   20  C10 UNL     1      -0.741   2.851   5.293  1.00  0.00    -0.024 A
HETATM   21  C11 UNL     1      -0.056   1.656   4.732  1.00  0.00     0.051 C
BRANCH  15  22
HETATM   22  O1  UNL     1      -2.984   5.618   5.162  1.00  0.00    -0.345 OA
ATOM     23  H1  UNL     1      -3.743   5.514   4.601  1.00  0.00     0.219 HD
ENDBRANCH  15  22
ENDBRANCH   1  14
BRANCH   8  24
HETATM   24  N4  UNL     1      -4.251   0.533  -1.328  1.00  0.00    -0.233 N
ATOM     25  H42 UNL     1      -3.846  -0.338  -1.672  1.00  0.00     0.174 HD
ATOM     26  H41 UNL     1      -5.100   0.680  -1.874  1.00  0.00     0.174 HD
ENDBRANCH   8  24
TORSDOF 3
ENDMDL