MODEL 1
REMARK VINA RESULT: -7.587317623      0.000      0.000
REMARK  2 active torsions:
REMARK  status: ('A' for Active; 'I' for Inactive)
REMARK    1  A    between atoms: N1_1  and  C1_4
REMARK    2  A    between atoms: C5_14  and  C6_15
ROOT
HETATM    1  C1  UNL     1      -2.691  -0.726   1.736  1.00  0.00     0.677 A
HETATM    2  N2  UNL     1      -3.339  -0.157   0.723  1.00  0.00    -0.180 N
ATOM      3  H2  UNL     1      -3.727  -0.728  -0.028  1.00  0.00     0.185 HD
HETATM    4  C2  UNL     1      -3.475   1.180   0.701  1.00  0.00     0.145 A
HETATM    5  S1  UNL     1      -4.261   1.906  -0.522  1.00  0.00    -0.057 SA
HETATM    6  C3  UNL     1      -2.959   1.996   1.707  1.00  0.00     0.100 A
HETATM    7  N3  UNL     1      -2.962   3.323   1.912  1.00  0.00    -0.345 N
ATOM      8  H3  UNL     1      -3.384   4.027   1.306  1.00  0.00     0.167 HD
HETATM    9  C4  UNL     1      -2.301   3.553   3.072  1.00  0.00     0.089 A
HETATM   10  S2  UNL     1      -1.763   4.735   4.173  1.00  0.00    -0.073 SA
HETATM   11  C5  UNL     1      -0.997   3.728   5.320  1.00  0.00     0.020 A
HETATM   12  C7  UNL     1      -1.190   2.480   4.796  1.00  0.00     0.075 A
HETATM   13  N4  UNL     1      -0.653   1.340   5.531  1.00  0.00    -0.100 NA
HETATM   14  C8  UNL     1      -1.862   2.384   3.636  1.00  0.00     0.053 A
HETATM   15  C9  UNL     1      -2.300   1.393   2.734  1.00  0.00     0.094 A
HETATM   16  N5  UNL     1      -2.200   0.053   2.695  1.00  0.00    -0.189 N
ATOM     17  H5  UNL     1      -1.706  -0.403   3.462  1.00  0.00     0.184 HD
ENDROOT
BRANCH   1  18
HETATM   18  N1  UNL     1      -2.536  -2.021   1.797  1.00  0.00    -0.234 N
ATOM     19  H12 UNL     1      -3.349  -2.635   1.837  1.00  0.00     0.174 HD
ATOM     20  H11 UNL     1      -1.606  -2.441   1.805  1.00  0.00     0.174 HD
ENDBRANCH   1  18
BRANCH  11  21
HETATM   21  C6  UNL     1      -0.282   4.101   6.597  1.00  0.00     0.134 C
HETATM   22  S3  UNL     1      -1.531   4.841   7.692  1.00  0.00    -0.092 SA
ENDBRANCH  11  21
TORSDOF 2
ENDMDL