MODEL 2
REMARK VINA RESULT: -3.720813612     10.013     11.898
REMARK  5 active torsions:
REMARK  status: ('A' for Active; 'I' for Inactive)
REMARK    1  A    between atoms: C2_2  and  O1_3
REMARK    2  A    between atoms: C5_7  and  O2_8
REMARK    3  A    between atoms: C7_11  and  C8_12
REMARK    4  A    between atoms: C9_13  and  O3_14
REMARK    5  A    between atoms: C11_18  and  O5_19
ROOT
HETATM    1  C1  UNL     1      -2.720   0.040   1.718  1.00  0.00     0.046 C
HETATM    2  C2  UNL     1      -2.619   1.382   2.356  1.00  0.00     0.058 C
HETATM    3  C3  UNL     1      -2.823   2.498   1.370  1.00  0.00     0.040 C
HETATM    4  C4  UNL     1      -2.412   3.845   1.781  1.00  0.00     0.035 C
HETATM    5  C5  UNL     1      -1.276   3.974   2.776  1.00  0.00     0.123 C
HETATM    6  C6  UNL     1      -1.449   2.896   3.801  1.00  0.00     0.030 C
HETATM    7  C7  UNL     1      -0.819   3.008   5.108  1.00  0.00     0.033 C
HETATM    8  C12 UNL     1      -0.999   1.777   5.949  1.00  0.00     0.010 C
HETATM    9  C13 UNL     1      -0.273   0.673   5.199  1.00  0.00     0.001 C
HETATM   10  C14 UNL     1      -0.878   0.417   3.854  1.00  0.00     0.008 C
HETATM   11  C15 UNL     1      -1.287   1.591   3.083  1.00  0.00     0.027 C
ENDROOT
BRANCH   7  12
HETATM   12  C8  UNL     1      -1.187   4.186   5.875  1.00  0.00     0.040 A
HETATM   13  C9  UNL     1      -2.367   4.877   5.863  1.00  0.00     0.099 A
HETATM   14  C10 UNL     1      -2.342   5.833   6.832  1.00  0.00     0.182 A
HETATM   15  O4  UNL     1      -1.177   5.743   7.436  1.00  0.00    -0.297 OA
HETATM   16  C11 UNL     1      -0.463   4.775   6.900  1.00  0.00     0.192 A
BRANCH  13  17
HETATM   17  O3  UNL     1      -3.438   4.638   4.999  1.00  0.00    -0.358 OA
ATOM     18  H3  UNL     1      -3.628   5.128   4.208  1.00  0.00     0.217 HD
ENDBRANCH  13  17
BRANCH  16  19
HETATM   19  O5  UNL     1       0.804   4.472   7.373  1.00  0.00    -0.340 OA
ATOM     20  H5  UNL     1       1.065   3.880   8.067  1.00  0.00     0.220 HD
ENDBRANCH  16  19
ENDBRANCH   7  12
BRANCH   5  21
HETATM   21  O2  UNL     1      -1.402   5.238   3.388  1.00  0.00    -0.395 OA
ATOM     22  H2  UNL     1      -1.471   5.089   4.323  1.00  0.00     0.210 HD
ENDBRANCH   5  21
BRANCH   2  23
HETATM   23  O1  UNL     1      -3.615   1.448   3.353  1.00  0.00    -0.390 OA
ATOM     24  H1  UNL     1      -3.345   2.111   3.977  1.00  0.00     0.210 HD
ENDBRANCH   2  23
TORSDOF 5
ENDMDL