MODEL 2
REMARK VINA RESULT: -7.875921098      2.962      4.644
REMARK  17 active torsions:
REMARK  status: ('A' for Active; 'I' for Inactive)
REMARK    1  A    between atoms: C1_2  and  O2_4
REMARK    2  A    between atoms: O2_4  and  N2_5
REMARK    3  A    between atoms: N2_5  and  C2_6
REMARK    4  A    between atoms: C2_6  and  C3_7
REMARK    5  A    between atoms: C2_6  and  C12_27
REMARK    6  A    between atoms: C3_7  and  O3_8
REMARK    7  A    between atoms: C4_10  and  C5_11
REMARK    8  A    between atoms: C5_11  and  N3_12
REMARK    9  A    between atoms: C5_11  and  C11_24
REMARK   10  A    between atoms: N3_12  and  C6_14
REMARK   11  A    between atoms: C7_16  and  C8_17
REMARK   12  A    between atoms: C10_21  and  O7_22
REMARK       I    between atoms: C12_27  and  N4_29
REMARK   13  A    between atoms: N4_29  and  C13_31
REMARK   14  A    between atoms: C13_31  and  C14_32
REMARK   15  A    between atoms: C13_31  and  C15_35
REMARK   16  A    between atoms: C15_35  and  O12_36
REMARK   17  A    between atoms: C15_35  and  C16_38
ROOT
HETATM    1  C2  UNL     1      -3.339   9.730 120.838  1.00  0.00     0.255 C
ENDROOT
BRANCH   1   2
HETATM    2  N2  UNL     1      -4.758  10.002 121.190  1.00  0.00    -0.069 NA
BRANCH   2   3
HETATM    3  O2  UNL     1      -4.889   9.561 122.510  1.00  0.00    -0.190 OA
BRANCH   3   4
HETATM    4  C1  UNL     1      -5.580   8.375 122.768  1.00  0.00     0.391 C
HETATM    5  N1  UNL     1      -4.951   7.196 123.223  1.00  0.00    -0.031 NA
HETATM    6  O1  UNL     1      -6.834   8.398 122.564  1.00  0.00    -0.241 OA
ENDBRANCH   3   4
ENDBRANCH   2   3
ENDBRANCH   1   2
BRANCH   1   7
HETATM    7  C3  UNL     1      -2.960  10.692 119.765  1.00  0.00     0.076 C
HETATM    8  C4  UNL     1      -3.092  12.095 119.559  1.00  0.00     0.070 C
BRANCH   7   9
HETATM    9  O3  UNL     1      -2.385  10.082 118.758  1.00  0.00    -0.363 OA
ATOM     10  H3  UNL     1      -2.870  10.210 117.952  1.00  0.00     0.217 HD
ENDBRANCH   7   9
BRANCH   8  11
HETATM   11  C5  UNL     1      -2.287  13.095 120.277  1.00  0.00     0.110 C
BRANCH  11  12
HETATM   12  N3  UNL     1      -2.967  13.577 121.475  1.00  0.00    -0.356 N
ATOM     13  H3  UNL     1      -2.498  13.601 122.380  1.00  0.00     0.162 HD
BRANCH  12  14
HETATM   14  C6  UNL     1      -4.309  14.013 121.326  1.00  0.00     0.251 C
HETATM   15  O4  UNL     1      -4.428  15.352 121.075  1.00  0.00    -0.348 OA
HETATM   16  C7  UNL     1      -5.378  15.954 121.842  1.00  0.00     0.227 C
HETATM   17  C9  UNL     1      -6.180  14.823 122.449  1.00  0.00     0.079 C
HETATM   18  C10 UNL     1      -5.021  13.823 122.673  1.00  0.00     0.169 C
BRANCH  16  19
HETATM   19  C8  UNL     1      -6.158  16.897 121.061  1.00  0.00     0.203 C
HETATM   20  O5  UNL     1      -5.582  17.377 119.995  1.00  0.00    -0.646 OA
HETATM   21  O6  UNL     1      -7.437  17.335 121.330  1.00  0.00    -0.646 OA
ENDBRANCH  16  19
BRANCH  18  22
HETATM   22  O7  UNL     1      -5.551  12.575 122.808  1.00  0.00    -0.391 OA
ATOM     23  H7  UNL     1      -5.065  12.042 123.427  1.00  0.00     0.210 HD
ENDBRANCH  18  22
ENDBRANCH  12  14
ENDBRANCH  11  12
BRANCH  11  24
HETATM   24  C11 UNL     1      -1.619  14.147 119.515  1.00  0.00     0.226 C
HETATM   25  O8  UNL     1      -1.939  14.662 118.430  1.00  0.00    -0.643 OA
HETATM   26  O9  UNL     1      -0.399  14.723 120.034  1.00  0.00    -0.643 OA
ENDBRANCH  11  24
ENDBRANCH   8  11
ENDBRANCH   1   7
BRANCH   1  27
HETATM   27  C12 UNL     1      -3.410   8.369 120.106  1.00  0.00     0.246 C
HETATM   28  O10 UNL     1      -4.416   8.262 119.344  1.00  0.00    -0.271 OA
HETATM   29  N4  UNL     1      -2.470   7.386 120.254  1.00  0.00    -0.343 N
ATOM     30  H4  UNL     1      -1.728   7.568 120.930  1.00  0.00     0.163 HD
BRANCH  29  31
HETATM   31  C13 UNL     1      -2.408   6.117 119.558  1.00  0.00     0.213 C
BRANCH  31  32
HETATM   32  C14 UNL     1      -2.760   4.925 120.403  1.00  0.00     0.257 C
HETATM   33  N5  UNL     1      -3.345   3.792 119.735  1.00  0.00    -0.060 NA
HETATM   34  O11 UNL     1      -2.590   4.851 121.639  1.00  0.00    -0.274 OA
ENDBRANCH  31  32
BRANCH  31  35
HETATM   35  C15 UNL     1      -1.032   5.964 118.999  1.00  0.00     0.250 C
BRANCH  35  36
HETATM   36  O12 UNL     1      -0.449   4.737 119.385  1.00  0.00    -0.382 OA
ATOM     37  H12 UNL     1       0.375   4.587 118.938  1.00  0.00     0.210 HD
ENDBRANCH  35  36
BRANCH  35  38
HETATM   38  C16 UNL     1      -0.135   7.087 119.367  1.00  0.00     0.205 C
HETATM   39  O13 UNL     1       0.539   7.076 120.396  1.00  0.00    -0.646 OA
HETATM   40  O14 UNL     1      -0.085   8.165 118.504  1.00  0.00    -0.646 OA
ENDBRANCH  35  38
ENDBRANCH  31  35
ENDBRANCH  29  31
ENDBRANCH   1  27
TORSDOF 17
ENDMDL