MODEL 4
REMARK VINA RESULT: -7.337848465      2.083      7.904
REMARK  18 active torsions:
REMARK  status: ('A' for Active; 'I' for Inactive)
REMARK       I    between atoms: C2_2  and  N1_4
REMARK    1  A    between atoms: N1_4  and  C3_6
REMARK    2  A    between atoms: C3_6  and  C4_7
REMARK    3  A    between atoms: C3_6  and  C17_43
REMARK       I    between atoms: C4_7  and  N2_9
REMARK    4  A    between atoms: N2_9  and  C5_11
REMARK    5  A    between atoms: C5_11  and  C6_12
REMARK    6  A    between atoms: C5_11  and  C13_31
REMARK    7  A    between atoms: C6_12  and  C7_14
REMARK    8  A    between atoms: C7_14  and  C8_15
REMARK    9  A    between atoms: C8_15  and  N3_16
REMARK   10  A    between atoms: C8_15  and  C11_25
REMARK       I    between atoms: N3_16  and  C9_18
REMARK   11  A    between atoms: C9_18  and  C10_20
REMARK   12  A    between atoms: C10_20  and  N4_21
REMARK   13  A    between atoms: C11_25  and  O5_26
REMARK   14  A    between atoms: C11_25  and  C12_28
REMARK   15  A    between atoms: N6_33  and  N7_35
REMARK       I    between atoms: N7_35  and  C15_37
REMARK       I    between atoms: C15_37  and  N8_39
REMARK   16  A    between atoms: C17_43  and  O8_44
REMARK   17  A    between atoms: C17_43  and  C18_46
REMARK   18  A    between atoms: C18_46  and  O9_47
ROOT
HETATM    1  N7  UNL     1      -4.487  11.835 126.272  1.00  0.00    -0.251 N
ATOM      2  H7  UNL     1      -4.406  10.890 126.648  1.00  0.00     0.191 HD
HETATM    3  C15 UNL     1      -4.497  12.931 127.175  1.00  0.00     0.347 C
HETATM    4  O7  UNL     1      -4.597  14.088 126.714  1.00  0.00    -0.245 OA
HETATM    5  N8  UNL     1      -4.398  12.714 128.556  1.00  0.00    -0.244 N
ATOM      6  H8  UNL     1      -4.319  11.754 128.893  1.00  0.00     0.183 HD
HETATM    7  C16 UNL     1      -4.403  13.758 129.495  1.00  0.00     0.186 C
HETATM    8  N9  UNL     1      -4.391  14.606 130.265  1.00  0.00    -0.172 NA
ENDROOT
BRANCH   1   9
HETATM    9  N6  UNL     1      -4.583  12.002 124.900  1.00  0.00    -0.303 N
HETATM   10  C13 UNL     1      -3.529  11.935 124.172  1.00  0.00     0.030 C
HETATM   11  C14 UNL     1      -2.228  11.676 124.835  1.00  0.00     0.068 C
ATOM     12  H6  UNL     1      -5.491  12.178 124.469  1.00  0.00     0.186 HD
BRANCH  10  13
HETATM   13  C5  UNL     1      -3.618  12.112 122.713  1.00  0.00     0.201 C
BRANCH  13  14
HETATM   14  N2  UNL     1      -4.177  13.393 122.347  1.00  0.00    -0.343 N
HETATM   15  C4  UNL     1      -3.398  14.526 122.041  1.00  0.00     0.244 C
HETATM   16  O2  UNL     1      -2.149  14.410 122.089  1.00  0.00    -0.271 OA
ATOM     17  H2  UNL     1      -5.192  13.482 122.308  1.00  0.00     0.163 HD
BRANCH  15  18
HETATM   18  C3  UNL     1      -3.984  15.833 121.667  1.00  0.00     0.207 C
BRANCH  18  19
HETATM   19  N1  UNL     1      -5.334  15.667 121.152  1.00  0.00    -0.346 N
HETATM   20  C2  UNL     1      -6.272  16.697 121.166  1.00  0.00     0.214 C
HETATM   21  C1  UNL     1      -7.636  16.474 120.630  1.00  0.00     0.117 C
HETATM   22  O1  UNL     1      -6.006  17.838 121.626  1.00  0.00    -0.274 OA
ATOM     23  H1  UNL     1      -5.605  14.763 120.765  1.00  0.00     0.163 HD
ENDBRANCH  18  19
BRANCH  18  24
HETATM   24  C17 UNL     1      -3.178  16.545 120.620  1.00  0.00     0.173 C
BRANCH  24  25
HETATM   25  O8  UNL     1      -3.939  17.010 119.568  1.00  0.00    -0.391 OA
ATOM     26  H8  UNL     1      -4.707  17.496 119.845  1.00  0.00     0.210 HD
ENDBRANCH  24  25
BRANCH  24  27
HETATM   27  C18 UNL     1      -2.287  17.615 121.207  1.00  0.00     0.198 C
BRANCH  27  28
HETATM   28  O9  UNL     1      -1.060  17.112 121.608  1.00  0.00    -0.398 OA
ATOM     29  H9  UNL     1      -0.545  17.757 122.079  1.00  0.00     0.209 HD
ENDBRANCH  27  28
ENDBRANCH  24  27
ENDBRANCH  18  24
ENDBRANCH  15  18
ENDBRANCH  13  14
BRANCH  13  30
HETATM   30  C6  UNL     1      -4.401  10.968 122.114  1.00  0.00     0.157 C
HETATM   31  O3  UNL     1      -5.545  11.208 121.865  1.00  0.00    -0.295 OA
BRANCH  30  32
HETATM   32  C7  UNL     1      -3.793   9.678 121.861  1.00  0.00     0.109 C
BRANCH  32  33
HETATM   33  C8  UNL     1      -4.714   8.519 121.701  1.00  0.00     0.129 C
BRANCH  33  34
HETATM   34  N3  UNL     1      -3.935   7.384 121.137  1.00  0.00    -0.352 N
HETATM   35  C9  UNL     1      -3.787   7.286 119.750  1.00  0.00     0.243 C
HETATM   36  O4  UNL     1      -4.309   8.152 119.007  1.00  0.00    -0.272 OA
ATOM     37  H3  UNL     1      -3.516   6.687 121.753  1.00  0.00     0.163 HD
BRANCH  35  38
HETATM   38  C10 UNL     1      -3.029   6.187 119.119  1.00  0.00     0.332 C
BRANCH  38  39
HETATM   39  N4  UNL     1      -3.399   4.952 119.773  1.00  0.00    -0.071 N
ATOM     40  H43 UNL     1      -2.645   4.567 120.344  1.00  0.00     0.274 HD
ATOM     41  H42 UNL     1      -4.080   5.090 120.520  1.00  0.00     0.274 HD
ATOM     42  H41 UNL     1      -3.724   4.299 119.060  1.00  0.00     0.274 HD
ENDBRANCH  38  39
ENDBRANCH  35  38
ENDBRANCH  33  34
BRANCH  33  43
HETATM   43  C11 UNL     1      -5.391   7.996 122.945  1.00  0.00     0.230 C
BRANCH  43  44
HETATM   44  O5  UNL     1      -6.578   8.639 123.175  1.00  0.00    -0.384 OA
ATOM     45  H5  UNL     1      -6.996   8.895 122.361  1.00  0.00     0.210 HD
ENDBRANCH  43  44
BRANCH  43  46
HETATM   46  C12 UNL     1      -4.601   8.020 124.171  1.00  0.00     0.262 C
HETATM   47  N5  UNL     1      -4.790   8.808 125.320  1.00  0.00    -0.060 NA
HETATM   48  O6  UNL     1      -3.590   7.229 124.238  1.00  0.00    -0.274 OA
ENDBRANCH  43  46
ENDBRANCH  33  43
ENDBRANCH  32  33
ENDBRANCH  30  32
ENDBRANCH  13  30
ENDBRANCH  10  13
ENDBRANCH   1   9
TORSDOF 18
ENDMDL