MODEL 3
REMARK VINA RESULT: -7.818292787      1.818      3.369
REMARK  19 active torsions:
REMARK  status: ('A' for Active; 'I' for Inactive)
REMARK       I    between atoms: C2_2  and  N1_4
REMARK    1  A    between atoms: C3_6  and  C4_7
REMARK    2  A    between atoms: C3_6  and  C15_37
REMARK    3  A    between atoms: C4_7  and  O2_8
REMARK    4  A    between atoms: C4_7  and  N2_10
REMARK    5  A    between atoms: N2_10  and  C5_12
REMARK    6  A    between atoms: C5_12  and  C6_13
REMARK    7  A    between atoms: C6_13  and  C7_15
REMARK    8  A    between atoms: C7_15  and  N3_16
REMARK    9  A    between atoms: C7_15  and  C14_34
REMARK   10  A    between atoms: N3_16  and  C8_18
REMARK   11  A    between atoms: C8_18  and  C9_19
REMARK   12  A    between atoms: C8_18  and  N4_21
REMARK   13  A    between atoms: N4_21  and  C10_23
REMARK   14  A    between atoms: C10_23  and  O5_24
REMARK   15  A    between atoms: C10_23  and  C11_26
REMARK   16  A    between atoms: C11_26  and  C12_27
REMARK   17  A    between atoms: C11_26  and  N5_29
REMARK       I    between atoms: N5_29  and  C13_31
REMARK   18  A    between atoms: C17_39  and  N8_40
REMARK   19  A    between atoms: C19_45  and  N9_46
ROOT
HETATM    1  C5  UNL     1      -4.701   7.438 123.409  1.00  0.00     0.143 C
ENDROOT
BRANCH   1   2
HETATM    2  N2  UNL     1      -3.659   7.367 122.467  1.00  0.00    -0.365 N
ATOM      3  H2  UNL     1      -3.891   7.497 121.482  1.00  0.00     0.162 HD
BRANCH   2   4
HETATM    4  C4  UNL     1      -2.335   7.131 122.799  1.00  0.00     0.265 C
BRANCH   4   5
HETATM    5  C3  UNL     1      -1.290   7.919 122.084  1.00  0.00     0.044 C
HETATM    6  N1  UNL     1      -0.960   9.069 122.461  1.00  0.00    -0.330 N
HETATM    7  C2  UNL     1      -0.029   9.981 121.954  1.00  0.00     0.217 C
ATOM      8  H1  UNL     1      -1.461   9.398 123.286  1.00  0.00     0.168 HD
HETATM    9  C1  UNL     1       1.442   9.816 121.916  1.00  0.00     0.117 C
HETATM   10  O1  UNL     1      -0.493  11.066 121.475  1.00  0.00    -0.274 OA
BRANCH   5  11
HETATM   11  C15 UNL     1      -0.550   7.299 120.926  1.00  0.00     0.068 C
HETATM   12  C16 UNL     1      -0.227   5.863 121.200  1.00  0.00     0.045 C
HETATM   13  C17 UNL     1      -1.035   4.998 120.287  1.00  0.00     0.186 C
HETATM   14  C18 UNL     1      -1.742   5.896 119.330  1.00  0.00     0.066 C
HETATM   15  C19 UNL     1      -1.368   7.315 119.656  1.00  0.00     0.195 C
BRANCH  13  16
HETATM   16  N8  UNL     1      -0.191   4.067 119.540  1.00  0.00    -0.075 N
ATOM     17  H83 UNL     1       0.529   4.560 119.012  1.00  0.00     0.274 HD
ATOM     18  H82 UNL     1       0.410   3.527 120.164  1.00  0.00     0.274 HD
ATOM     19  H81 UNL     1      -0.745   3.458 118.938  1.00  0.00     0.274 HD
ENDBRANCH  13  16
BRANCH  15  20
HETATM   20  N9  UNL     1      -0.596   7.910 118.574  1.00  0.00    -0.074 N
ATOM     21  H93 UNL     1      -1.154   8.559 118.017  1.00  0.00     0.274 HD
ATOM     22  H92 UNL     1       0.099   8.572 118.920  1.00  0.00     0.274 HD
ATOM     23  H91 UNL     1      -0.176   7.178 118.002  1.00  0.00     0.274 HD
ENDBRANCH  15  20
ENDBRANCH   5  11
ENDBRANCH   4   5
BRANCH   4  24
HETATM   24  O2  UNL     1      -2.105   7.157 124.163  1.00  0.00    -0.371 OA
ATOM     25  H2  UNL     1      -1.453   6.507 124.399  1.00  0.00     0.212 HD
ENDBRANCH   4  24
ENDBRANCH   2   4
ENDBRANCH   1   2
BRANCH   1  26
HETATM   26  C6  UNL     1      -5.535   8.662 123.092  1.00  0.00     0.218 C
HETATM   27  O3  UNL     1      -6.701   8.316 122.773  1.00  0.00    -0.284 OA
BRANCH  26  28
HETATM   28  C7  UNL     1      -5.150  10.044 123.115  1.00  0.00     0.147 C
BRANCH  28  29
HETATM   29  N3  UNL     1      -4.806  10.775 121.979  1.00  0.00    -0.356 N
ATOM     30  H3  UNL     1      -3.818  10.963 121.806  1.00  0.00     0.162 HD
BRANCH  29  31
HETATM   31  C8  UNL     1      -5.719  11.252 121.085  1.00  0.00     0.242 C
BRANCH  31  32
HETATM   32  C9  UNL     1      -5.672  10.628 119.741  1.00  0.00     0.277 C
HETATM   33  O4  UNL     1      -5.332   9.452 119.630  1.00  0.00    -0.303 OA
ENDBRANCH  31  32
BRANCH  31  34
HETATM   34  N4  UNL     1      -5.751  12.687 120.886  1.00  0.00    -0.369 N
ATOM     35  H4  UNL     1      -5.227  13.143 120.139  1.00  0.00     0.158 HD
BRANCH  34  36
HETATM   36  C10 UNL     1      -6.554  13.415 121.791  1.00  0.00     0.245 C
BRANCH  36  37
HETATM   37  O5  UNL     1      -7.782  13.803 121.242  1.00  0.00    -0.375 OA
ATOM     38  H5  UNL     1      -8.156  14.563 121.671  1.00  0.00     0.212 HD
ENDBRANCH  36  37
BRANCH  36  39
HETATM   39  C11 UNL     1      -5.882  14.630 122.376  1.00  0.00     0.195 C
BRANCH  39  40
HETATM   40  C12 UNL     1      -4.738  14.119 123.224  1.00  0.00     0.260 C
HETATM   41  O6  UNL     1      -3.740  13.656 122.721  1.00  0.00    -0.304 OA
ENDBRANCH  39  40
BRANCH  39  42
HETATM   42  N5  UNL     1      -5.304  15.503 121.390  1.00  0.00    -0.330 N
HETATM   43  C13 UNL     1      -5.996  16.656 120.973  1.00  0.00     0.329 C
HETATM   44  N6  UNL     1      -5.440  17.525 120.007  1.00  0.00    -0.040 NA
HETATM   45  O7  UNL     1      -7.127  16.904 121.476  1.00  0.00    -0.251 OA
ATOM     46  H5  UNL     1      -4.390  15.286 120.992  1.00  0.00     0.164 HD
ENDBRANCH  39  42
ENDBRANCH  36  39
ENDBRANCH  34  36
ENDBRANCH  31  34
ENDBRANCH  29  31
ENDBRANCH  28  29
BRANCH  28  47
HETATM   47  C14 UNL     1      -4.292  10.400 124.304  1.00  0.00     0.285 C
HETATM   48  N7  UNL     1      -4.802  10.943 125.494  1.00  0.00    -0.056 NA
HETATM   49  O8  UNL     1      -3.062  10.188 124.180  1.00  0.00    -0.269 OA
ENDBRANCH  28  47
ENDBRANCH  26  28
ENDBRANCH   1  26
TORSDOF 19
ENDMDL