MODEL 3
REMARK VINA RESULT: -7.961778261      2.538      7.376
REMARK  16 active torsions:
REMARK  status: ('A' for Active; 'I' for Inactive)
REMARK    1  A    between atoms: N1_1  and  C1_5
REMARK    2  A    between atoms: C1_5  and  C2_6
REMARK    3  A    between atoms: C2_6  and  N2_7
REMARK    4  A    between atoms: C2_6  and  C16_38
REMARK       I    between atoms: N2_7  and  C3_9
REMARK    5  A    between atoms: C3_9  and  C4_11
REMARK    6  A    between atoms: C4_11  and  C5_12
REMARK    7  A    between atoms: C4_11  and  C13_28
REMARK    8  A    between atoms: C5_12  and  O2_13
REMARK    9  A    between atoms: O2_13  and  C6_14
REMARK   10  A    between atoms: C7_16  and  O4_17
REMARK   11  A    between atoms: O4_17  and  C8_18
REMARK   12  A    between atoms: C8_18  and  C9_19
REMARK   13  A    between atoms: C11_23  and  C12_24
REMARK   14  A    between atoms: C13_28  and  N4_29
REMARK   15  A    between atoms: C13_28  and  C15_35
REMARK   16  A    between atoms: N4_29  and  N5_30
REMARK       I    between atoms: N5_30  and  C14_32
ROOT
HETATM    1  C4  UNL     1      -3.923   9.923 123.187  1.00  0.00     0.131 C
ENDROOT
BRANCH   1   2
HETATM    2  C3  UNL     1      -4.361  10.743 124.359  1.00  0.00     0.226 C
HETATM    3  N2  UNL     1      -3.599  11.105 125.460  1.00  0.00    -0.344 N
ATOM      4  H2  UNL     1      -2.631  10.790 125.507  1.00  0.00     0.163 HD
HETATM    5  O1  UNL     1      -5.574  11.151 124.327  1.00  0.00    -0.273 OA
BRANCH   3   6
HETATM    6  C2  UNL     1      -4.120  11.910 126.545  1.00  0.00     0.211 C
BRANCH   6   7
HETATM    7  C1  UNL     1      -3.718  11.333 127.882  1.00  0.00     0.265 C
BRANCH   7   8
HETATM    8  N1  UNL     1      -2.461  10.636 127.794  1.00  0.00    -0.077 N
ATOM      9  H13 UNL     1      -2.263  10.340 126.839  1.00  0.00     0.274 HD
ATOM     10  H12 UNL     1      -1.671  11.268 127.930  1.00  0.00     0.274 HD
ATOM     11  H11 UNL     1      -2.427   9.850 128.443  1.00  0.00     0.274 HD
ENDBRANCH   7   8
ENDBRANCH   6   7
BRANCH   6  12
HETATM   12  C16 UNL     1      -3.750  13.325 126.431  1.00  0.00     0.198 C
HETATM   13  O11 UNL     1      -4.467  14.095 125.743  1.00  0.00    -0.646 OA
HETATM   14  O12 UNL     1      -2.634  13.810 127.063  1.00  0.00    -0.646 OA
ENDBRANCH   6  12
ENDBRANCH   3   6
ENDBRANCH   1   2
BRANCH   1  15
HETATM   15  C5  UNL     1      -2.865  10.579 122.384  1.00  0.00     0.189 C
BRANCH  15  16
HETATM   16  O2  UNL     1      -3.047  11.791 121.983  1.00  0.00    -0.338 OA
BRANCH  16  17
HETATM   17  C6  UNL     1      -3.849  12.618 121.432  1.00  0.00     0.416 C
HETATM   18  O3  UNL     1      -4.389  13.585 122.324  1.00  0.00    -0.308 OA
HETATM   19  C7  UNL     1      -4.023  14.838 121.857  1.00  0.00     0.268 C
HETATM   20  C10 UNL     1      -2.499  14.898 121.954  1.00  0.00     0.102 C
HETATM   21  C11 UNL     1      -2.030  13.905 120.872  1.00  0.00     0.220 C
HETATM   22  O8  UNL     1      -3.182  13.292 120.362  1.00  0.00    -0.324 OA
BRANCH  19  23
HETATM   23  O4  UNL     1      -4.622  15.802 122.624  1.00  0.00    -0.351 OA
BRANCH  23  24
HETATM   24  C8  UNL     1      -4.638  17.066 122.090  1.00  0.00     0.284 C
BRANCH  24  25
HETATM   25  C9  UNL     1      -5.701  17.297 121.092  1.00  0.00     0.197 C
HETATM   26  O5  UNL     1      -5.420  17.291 119.870  1.00  0.00    -0.646 OA
HETATM   27  O6  UNL     1      -7.014  17.522 121.457  1.00  0.00    -0.646 OA
ENDBRANCH  24  25
ENDBRANCH  23  24
ENDBRANCH  19  23
BRANCH  21  28
HETATM   28  C12 UNL     1      -1.351  14.600 119.763  1.00  0.00     0.260 C
HETATM   29  N3  UNL     1      -1.970  14.684 118.463  1.00  0.00    -0.060 NA
HETATM   30  O7  UNL     1      -0.238  15.124 119.920  1.00  0.00    -0.274 OA
ENDBRANCH  21  28
ENDBRANCH  16  17
ENDBRANCH  15  16
ENDBRANCH   1  15
BRANCH   1  31
HETATM   31  C13 UNL     1      -5.081   9.440 122.402  1.00  0.00     0.203 C
BRANCH  31  32
HETATM   32  N4  UNL     1      -4.618   9.174 121.004  1.00  0.00    -0.122 NA
BRANCH  32  33
HETATM   33  N5  UNL     1      -4.437   7.805 120.828  1.00  0.00    -0.257 N
HETATM   34  C14 UNL     1      -3.227   7.288 120.269  1.00  0.00     0.344 C
HETATM   35  N6  UNL     1      -3.033   5.911 120.091  1.00  0.00    -0.039 NA
HETATM   36  O9  UNL     1      -2.329   8.092 119.938  1.00  0.00    -0.250 OA
ATOM     37  H5  UNL     1      -5.179   7.161 121.102  1.00  0.00     0.186 HD
ENDBRANCH  32  33
ENDBRANCH  31  32
BRANCH  31  38
HETATM   38  C15 UNL     1      -5.735   8.209 122.892  1.00  0.00     0.253 C
HETATM   39  N7  UNL     1      -5.070   7.252 123.659  1.00  0.00    -0.061 NA
HETATM   40  O10 UNL     1      -6.963   7.962 122.631  1.00  0.00    -0.275 OA
ENDBRANCH  31  38
ENDBRANCH   1  31
TORSDOF 16
ENDMDL