MODEL 2
REMARK VINA RESULT: -7.023933902      2.335      8.009
REMARK  20 active torsions:
REMARK  status: ('A' for Active; 'I' for Inactive)
REMARK    1  A    between atoms: O1_2  and  C2_3
REMARK    2  A    between atoms: C2_3  and  O2_4
REMARK    3  A    between atoms: C2_3  and  C3_6
REMARK    4  A    between atoms: C3_6  and  N1_7
REMARK    5  A    between atoms: C3_6  and  C7_17
REMARK       I    between atoms: N1_7  and  C4_9
REMARK    6  A    between atoms: C4_9  and  C5_11
REMARK    7  A    between atoms: C5_11  and  N2_13
REMARK       I    between atoms: C7_17  and  N3_19
REMARK       I    between atoms: N3_19  and  C8_21
REMARK    8  A    between atoms: C8_21  and  C9_23
REMARK    9  A    between atoms: C9_23  and  N4_25
REMARK   10  A    between atoms: N4_25  and  C11_27
REMARK   11  A    between atoms: C11_27  and  O6_28
REMARK   12  A    between atoms: C11_27  and  N5_30
REMARK   13  A    between atoms: N5_30  and  C12_32
REMARK   14  A    between atoms: C12_32  and  C13_33
REMARK   15  A    between atoms: C12_32  and  C15_37
REMARK   16  A    between atoms: C13_33  and  C14_34
REMARK   17  A    between atoms: C15_37  and  O8_38
REMARK   18  A    between atoms: C15_37  and  N7_40
REMARK   19  A    between atoms: N7_40  and  C16_42
REMARK   20  A    between atoms: C16_42  and  C18_44
ROOT
HETATM    1  C9  UNL     1      -5.034  11.336 121.176  1.00  0.00     0.169 C
HETATM    2  C10 UNL     1      -4.768  10.621 119.837  1.00  0.00     0.042 C
ENDROOT
BRANCH   1   3
HETATM    3  C8  UNL     1      -4.840  10.316 122.211  1.00  0.00     0.246 C
HETATM    4  N3  UNL     1      -3.855   9.316 121.976  1.00  0.00    -0.294 N
HETATM    5  C7  UNL     1      -3.627   8.288 122.955  1.00  0.00     0.252 C
ATOM      6  H3  UNL     1      -3.311   9.328 121.113  1.00  0.00     0.171 HD
HETATM    7  O4  UNL     1      -4.301   8.295 124.008  1.00  0.00    -0.271 OA
HETATM    8  O5  UNL     1      -5.490  10.291 123.267  1.00  0.00    -0.271 OA
BRANCH   5   9
HETATM    9  C3  UNL     1      -2.606   7.233 122.722  1.00  0.00     0.232 C
BRANCH   9  10
HETATM   10  C2  UNL     1      -1.276   7.666 123.272  1.00  0.00     0.288 C
BRANCH  10  11
HETATM   11  O1  UNL     1      -1.244   9.048 123.399  1.00  0.00    -0.364 OA
HETATM   12  C1  UNL     1       0.091   9.507 123.404  1.00  0.00     0.204 C
ENDBRANCH  10  11
BRANCH  10  13
HETATM   13  O2  UNL     1      -1.010   7.006 124.471  1.00  0.00    -0.369 OA
ATOM     14  H2  UNL     1      -1.186   6.073 124.425  1.00  0.00     0.212 HD
ENDBRANCH  10  13
ENDBRANCH   9  10
BRANCH   9  15
HETATM   15  N1  UNL     1      -2.571   6.938 121.312  1.00  0.00    -0.342 N
HETATM   16  C4  UNL     1      -2.960   5.664 120.859  1.00  0.00     0.248 C
HETATM   17  O3  UNL     1      -3.333   4.793 121.664  1.00  0.00    -0.271 OA
ATOM     18  H1  UNL     1      -2.266   7.649 120.647  1.00  0.00     0.163 HD
BRANCH  16  19
HETATM   19  C5  UNL     1      -2.944   5.305 119.420  1.00  0.00     0.270 C
HETATM   20  C6  UNL     1      -1.516   5.143 118.945  1.00  0.00     0.050 C
BRANCH  19  21
HETATM   21  N2  UNL     1      -3.639   6.244 118.597  1.00  0.00    -0.067 N
ATOM     22  H23 UNL     1      -3.499   7.196 118.935  1.00  0.00     0.275 HD
ATOM     23  H22 UNL     1      -3.193   6.325 117.682  1.00  0.00     0.275 HD
ATOM     24  H21 UNL     1      -4.632   6.037 118.500  1.00  0.00     0.275 HD
ENDBRANCH  19  21
ENDBRANCH  16  19
ENDBRANCH   9  15
ENDBRANCH   5   9
ENDBRANCH   1   3
BRANCH   1  25
HETATM   25  N4  UNL     1      -6.308  11.928 121.067  1.00  0.00    -0.368 N
ATOM     26  H4  UNL     1      -6.977  11.587 120.376  1.00  0.00     0.158 HD
BRANCH  25  27
HETATM   27  C11 UNL     1      -6.650  12.998 121.925  1.00  0.00     0.319 C
BRANCH  27  28
HETATM   28  O6  UNL     1      -7.531  12.602 122.955  1.00  0.00    -0.360 OA
ATOM     29  H6  UNL     1      -7.307  12.990 123.793  1.00  0.00     0.214 HD
ENDBRANCH  27  28
BRANCH  27  30
HETATM   30  N5  UNL     1      -5.598  13.797 122.444  1.00  0.00    -0.369 N
ATOM     31  H5  UNL     1      -5.113  13.534 123.302  1.00  0.00     0.158 HD
BRANCH  30  32
HETATM   32  C12 UNL     1      -5.233  14.990 121.724  1.00  0.00     0.163 C
BRANCH  32  33
HETATM   33  C13 UNL     1      -5.930  16.194 122.152  1.00  0.00     0.132 C
BRANCH  33  34
HETATM   34  C14 UNL     1      -6.493  17.074 121.099  1.00  0.00     0.233 C
HETATM   35  N6  UNL     1      -5.683  17.480 120.004  1.00  0.00    -0.062 NA
HETATM   36  O7  UNL     1      -7.680  17.484 121.126  1.00  0.00    -0.277 OA
ENDBRANCH  33  34
ENDBRANCH  32  33
BRANCH  32  37
HETATM   37  C15 UNL     1      -3.764  15.038 121.546  1.00  0.00     0.135 C
BRANCH  37  38
HETATM   38  O8  UNL     1      -3.067  14.413 122.454  1.00  0.00    -0.348 OA
ATOM     39  H8  UNL     1      -2.284  13.976 122.140  1.00  0.00     0.219 HD
ENDBRANCH  37  38
BRANCH  37  40
HETATM   40  N7  UNL     1      -2.978  15.640 120.579  1.00  0.00    -0.359 N
ATOM     41  H7  UNL     1      -3.358  15.722 119.637  1.00  0.00     0.162 HD
BRANCH  40  42
HETATM   42  C16 UNL     1      -1.631  16.168 120.827  1.00  0.00     0.180 C
HETATM   43  C17 UNL     1      -1.503  17.585 120.315  1.00  0.00     0.043 C
BRANCH  42  44
HETATM   44  C18 UNL     1      -0.616  15.306 120.180  1.00  0.00     0.196 C
HETATM   45  O9  UNL     1      -0.985  14.390 119.382  1.00  0.00    -0.646 OA
HETATM   46  O10 UNL     1       0.734  15.437 120.391  1.00  0.00    -0.646 OA
ENDBRANCH  42  44
ENDBRANCH  40  42
ENDBRANCH  37  40
ENDBRANCH  32  37
ENDBRANCH  30  32
ENDBRANCH  27  30
ENDBRANCH  25  27
ENDBRANCH   1  25
TORSDOF 20
ENDMDL