MODEL 4
REMARK VINA RESULT: -7.144953430      3.008      6.590
REMARK  19 active torsions:
REMARK  status: ('A' for Active; 'I' for Inactive)
REMARK    1  A    between atoms: O1_2  and  C2_3
REMARK    2  A    between atoms: C2_3  and  C3_5
REMARK    3  A    between atoms: C3_5  and  C4_6
REMARK    4  A    between atoms: C4_6  and  N1_7
REMARK    5  A    between atoms: C4_6  and  C19_44
REMARK    6  A    between atoms: N1_7  and  C5_9
REMARK    7  A    between atoms: C5_9  and  C6_10
REMARK    8  A    between atoms: C5_9  and  C12_29
REMARK       I    between atoms: C6_10  and  N2_12
REMARK    9  A    between atoms: N2_12  and  C7_14
REMARK   10  A    between atoms: C7_14  and  C8_15
REMARK   11  A    between atoms: C7_14  and  C9_20
REMARK       I    between atoms: C8_15  and  N3_16
REMARK   12  A    between atoms: C9_20  and  N4_21
REMARK   13  A    between atoms: C9_20  and  C10_25
REMARK   14  A    between atoms: C10_25  and  O5_27
REMARK   15  A    between atoms: C12_29  and  C13_31
REMARK   16  A    between atoms: C14_33  and  C15_34
REMARK   17  A    between atoms: C15_34  and  O8_36
REMARK   18  A    between atoms: C17_38  and  O9_39
REMARK   19  A    between atoms: C18_41  and  O10_42
ROOT
HETATM    1  C5  UNL     1      -4.464  11.589 121.646  1.00  0.00     0.243 C
ENDROOT
BRANCH   1   2
HETATM    2  N1  UNL     1      -3.905  12.578 120.747  1.00  0.00    -0.390 N
ATOM      3  H1  UNL     1      -4.517  13.306 120.378  1.00  0.00     0.155 HD
BRANCH   2   4
HETATM    4  C4  UNL     1      -2.585  12.576 120.375  1.00  0.00     0.189 C
BRANCH   4   5
HETATM    5  C3  UNL     1      -1.525  11.945 121.205  1.00  0.00     0.146 C
BRANCH   5   6
HETATM    6  C2  UNL     1      -1.151  12.806 122.373  1.00  0.00     0.260 C
HETATM    7  O2  UNL     1      -1.911  13.167 123.285  1.00  0.00    -0.265 OA
BRANCH   6   8
HETATM    8  O1  UNL     1       0.164  13.236 122.382  1.00  0.00    -0.326 OA
HETATM    9  C1  UNL     1       0.534  14.601 122.564  1.00  0.00     0.213 C
ENDBRANCH   6   8
ENDBRANCH   5   6
ENDBRANCH   4   5
BRANCH   4  10
HETATM   10  C19 UNL     1      -2.226  14.023 120.044  1.00  0.00     0.196 C
HETATM   11  O11 UNL     1      -2.970  14.943 120.416  1.00  0.00    -0.646 OA
HETATM   12  O12 UNL     1      -1.071  14.329 119.321  1.00  0.00    -0.646 OA
ENDBRANCH   4  10
ENDBRANCH   2   4
ENDBRANCH   1   2
BRANCH   1  13
HETATM   13  C6  UNL     1      -5.235  12.587 122.566  1.00  0.00     0.248 C
HETATM   14  O3  UNL     1      -6.091  12.140 123.361  1.00  0.00    -0.271 OA
HETATM   15  N2  UNL     1      -4.891  13.943 122.486  1.00  0.00    -0.344 N
ATOM     16  H2  UNL     1      -4.223  14.177 121.751  1.00  0.00     0.163 HD
BRANCH  15  17
HETATM   17  C7  UNL     1      -5.330  15.049 123.276  1.00  0.00     0.209 C
BRANCH  17  18
HETATM   18  C8  UNL     1      -6.229  15.906 122.353  1.00  0.00     0.240 C
HETATM   19  N3  UNL     1      -7.361  15.394 121.771  1.00  0.00    -0.368 N
ATOM     20  H32 UNL     1      -7.630  14.423 121.929  1.00  0.00     0.159 HD
ATOM     21  H31 UNL     1      -7.954  15.959 121.162  1.00  0.00     0.159 HD
HETATM   22  O4  UNL     1      -5.892  17.118 122.156  1.00  0.00    -0.271 OA
ENDBRANCH  17  18
BRANCH  17  23
HETATM   23  C9  UNL     1      -4.382  15.878 123.978  1.00  0.00     0.243 C
BRANCH  23  24
HETATM   24  N4  UNL     1      -3.104  15.953 123.247  1.00  0.00    -0.070 N
ATOM     25  H43 UNL     1      -3.184  15.564 122.307  1.00  0.00     0.274 HD
ATOM     26  H42 UNL     1      -2.869  16.914 122.997  1.00  0.00     0.274 HD
ATOM     27  H41 UNL     1      -2.354  15.507 123.775  1.00  0.00     0.274 HD
ENDBRANCH  23  24
BRANCH  23  28
HETATM   28  C10 UNL     1      -3.970  15.140 125.295  1.00  0.00     0.147 C
HETATM   29  C11 UNL     1      -4.876  15.732 126.403  1.00  0.00     0.041 C
BRANCH  28  30
HETATM   30  O5  UNL     1      -4.289  13.820 125.263  1.00  0.00    -0.394 OA
ATOM     31  H5  UNL     1      -4.239  13.419 126.123  1.00  0.00     0.210 HD
ENDBRANCH  28  30
ENDBRANCH  23  28
ENDBRANCH  17  23
ENDBRANCH  15  17
ENDBRANCH   1  13
BRANCH   1  32
HETATM   32  C12 UNL     1      -5.339  10.599 121.137  1.00  0.00     0.189 C
HETATM   33  O6  UNL     1      -6.401  10.886 120.610  1.00  0.00    -0.292 OA
BRANCH  32  34
HETATM   34  C13 UNL     1      -5.018   9.142 121.193  1.00  0.00     0.225 C
HETATM   35  O7  UNL     1      -3.645   8.955 121.356  1.00  0.00    -0.365 OA
HETATM   36  C14 UNL     1      -3.472   8.464 122.652  1.00  0.00     0.182 C
HETATM   37  C17 UNL     1      -4.649   7.439 122.704  1.00  0.00     0.181 C
HETATM   38  C18 UNL     1      -5.739   8.382 122.258  1.00  0.00     0.185 C
BRANCH  36  39
HETATM   39  C15 UNL     1      -2.191   7.741 122.862  1.00  0.00     0.145 C
HETATM   40  C16 UNL     1      -0.950   8.513 122.596  1.00  0.00     0.042 C
BRANCH  39  41
HETATM   41  O8  UNL     1      -2.140   7.180 124.130  1.00  0.00    -0.393 OA
ATOM     42  H8  UNL     1      -1.362   7.464 124.596  1.00  0.00     0.210 HD
ENDBRANCH  39  41
ENDBRANCH  36  39
BRANCH  37  43
HETATM   43  O9  UNL     1      -4.812   6.852 123.907  1.00  0.00    -0.390 OA
ATOM     44  H9  UNL     1      -5.286   6.030 123.874  1.00  0.00     0.210 HD
ENDBRANCH  37  43
BRANCH  38  45
HETATM   45  O10 UNL     1      -6.076   9.152 123.375  1.00  0.00    -0.390 OA
ATOM     46  H10 UNL     1      -6.557   8.675 124.040  1.00  0.00     0.210 HD
ENDBRANCH  38  45
ENDBRANCH  32  34
ENDBRANCH   1  32
TORSDOF 19
ENDMDL