MODEL 2
REMARK VINA RESULT: -7.623507340      1.648      1.986
REMARK  16 active torsions:
REMARK  status: ('A' for Active; 'I' for Inactive)
REMARK       I    between atoms: C2_2  and  N1_4
REMARK    1  A    between atoms: N1_4  and  C3_6
REMARK    2  A    between atoms: C3_6  and  C4_7
REMARK    3  A    between atoms: C3_6  and  C15_37
REMARK    4  A    between atoms: C4_7  and  S1_8
REMARK    5  A    between atoms: S1_8  and  S2_9
REMARK    6  A    between atoms: S2_9  and  C5_10
REMARK    7  A    between atoms: C5_10  and  C6_11
REMARK    8  A    between atoms: C6_11  and  N2_12
REMARK    9  A    between atoms: C6_11  and  C7_16
REMARK       I    between atoms: C7_16  and  N3_18
REMARK   10  A    between atoms: N3_18  and  C8_20
REMARK   11  A    between atoms: C9_22  and  C10_23
REMARK   12  A    between atoms: C10_23  and  N4_24
REMARK   13  A    between atoms: C12_29  and  O4_30
REMARK   14  A    between atoms: C13_32  and  N7_33
REMARK   15  A    between atoms: C15_37  and  N9_38
REMARK   16  A    between atoms: C15_37  and  C16_42
ROOT
HETATM    1  C6  UNL     1      -5.530   9.687 123.451  1.00  0.00     0.284 C
ENDROOT
BRANCH   1   2
HETATM    2  C5  UNL     1      -4.887  10.865 124.125  1.00  0.00     0.128 C
BRANCH   2   3
HETATM    3  S2  UNL     1      -5.271  12.456 123.442  1.00  0.00    -0.095 SA
BRANCH   3   4
HETATM    4  S1  UNL     1      -3.673  13.822 123.442  1.00  0.00    -0.096 SA
BRANCH   4   5
HETATM    5  C4  UNL     1      -4.177  15.525 123.286  1.00  0.00     0.113 C
BRANCH   5   6
HETATM    6  C3  UNL     1      -4.597  15.952 121.917  1.00  0.00     0.133 C
BRANCH   6   7
HETATM    7  N1  UNL     1      -3.678  15.470 120.921  1.00  0.00    -0.354 N
HETATM    8  C2  UNL     1      -2.662  16.262 120.337  1.00  0.00     0.214 C
HETATM    9  C1  UNL     1      -1.757  15.694 119.320  1.00  0.00     0.117 C
HETATM   10  O1  UNL     1      -2.518  17.458 120.678  1.00  0.00    -0.274 OA
ATOM     11  H1  UNL     1      -3.765  14.500 120.618  1.00  0.00     0.162 HD
ENDBRANCH   6   7
BRANCH   6  12
HETATM   12  C15 UNL     1      -6.045  15.707 121.595  1.00  0.00     0.295 C
BRANCH  12  13
HETATM   13  N9  UNL     1      -6.780  15.659 122.856  1.00  0.00    -0.065 N
ATOM     14  H93 UNL     1      -6.432  16.328 123.543  1.00  0.00     0.275 HD
ATOM     15  H92 UNL     1      -7.728  16.028 122.777  1.00  0.00     0.275 HD
ATOM     16  H91 UNL     1      -6.757  14.697 123.193  1.00  0.00     0.275 HD
ENDBRANCH  12  13
BRANCH  12  17
HETATM   17  C16 UNL     1      -6.591  16.835 120.805  1.00  0.00     0.263 C
HETATM   18  N10 UNL     1      -7.995  17.157 120.861  1.00  0.00    -0.060 NA
HETATM   19  O5  UNL     1      -5.816  17.508 120.086  1.00  0.00    -0.274 OA
ENDBRANCH  12  17
ENDBRANCH   6  12
ENDBRANCH   5   6
ENDBRANCH   4   5
ENDBRANCH   3   4
ENDBRANCH   2   3
ENDBRANCH   1   2
BRANCH   1  20
HETATM   20  N2  UNL     1      -5.424   8.464 124.168  1.00  0.00    -0.066 N
ATOM     21  H23 UNL     1      -5.266   8.646 125.159  1.00  0.00     0.275 HD
ATOM     22  H22 UNL     1      -6.331   8.001 124.215  1.00  0.00     0.275 HD
ATOM     23  H21 UNL     1      -4.717   7.822 123.809  1.00  0.00     0.275 HD
ENDBRANCH   1  20
BRANCH   1  24
HETATM   24  C7  UNL     1      -5.072   9.488 122.072  1.00  0.00     0.251 C
HETATM   25  O2  UNL     1      -5.865   9.677 121.132  1.00  0.00    -0.271 OA
HETATM   26  N3  UNL     1      -3.754   9.088 121.801  1.00  0.00    -0.331 N
ATOM     27  H3  UNL     1      -3.129   8.943 122.595  1.00  0.00     0.165 HD
BRANCH  26  28
HETATM   28  C8  UNL     1      -3.220   8.866 120.478  1.00  0.00     0.249 C
HETATM   29  O3  UNL     1      -2.475   7.694 120.476  1.00  0.00    -0.355 OA
HETATM   30  C9  UNL     1      -1.208   8.146 120.828  1.00  0.00     0.172 C
HETATM   31  C12 UNL     1      -0.999   9.269 119.835  1.00  0.00     0.175 C
HETATM   32  C13 UNL     1      -2.347   9.982 119.975  1.00  0.00     0.162 C
BRANCH  30  33
HETATM   33  C10 UNL     1      -0.165   7.068 120.739  1.00  0.00     0.156 C
BRANCH  33  34
HETATM   34  N4  UNL     1      -0.614   5.953 119.974  1.00  0.00    -0.364 N
HETATM   35  C11 UNL     1      -1.015   4.826 120.403  1.00  0.00     0.197 C
HETATM   36  N5  UNL     1      -1.428   3.826 119.469  1.00  0.00    -0.067 NA
HETATM   37  N6  UNL     1      -1.078   4.492 121.782  1.00  0.00    -0.067 NA
ATOM     38  H4  UNL     1      -0.612   6.074 118.961  1.00  0.00     0.161 HD
ENDBRANCH  33  34
ENDBRANCH  30  33
BRANCH  31  39
HETATM   39  O4  UNL     1      -0.878   8.698 118.575  1.00  0.00    -0.391 OA
ATOM     40  H4  UNL     1      -1.468   9.160 117.992  1.00  0.00     0.210 HD
ENDBRANCH  31  39
BRANCH  32  41
HETATM   41  N7  UNL     1      -2.766  10.485 118.687  1.00  0.00    -0.377 N
HETATM   42  C14 UNL     1      -3.369  11.616 118.623  1.00  0.00     0.185 C
HETATM   43  N8  UNL     1      -3.627  12.369 119.790  1.00  0.00    -0.097 NA
ATOM     44  H7  UNL     1      -2.584   9.948 117.839  1.00  0.00     0.160 HD
ENDBRANCH  32  41
ENDBRANCH  26  28
ENDBRANCH   1  24
TORSDOF 16
ENDMDL