MODEL 1
REMARK VINA RESULT: -7.733656967      0.000      0.000
REMARK  18 active torsions:
REMARK  status: ('A' for Active; 'I' for Inactive)
REMARK    1  A    between atoms: C2_2  and  N1_3
REMARK    2  A    between atoms: C2_2  and  C3_7
REMARK    3  A    between atoms: C3_7  and  N2_8
REMARK    4  A    between atoms: C3_7  and  C4_12
REMARK    5  A    between atoms: C4_12  and  N3_13
REMARK    6  A    between atoms: C4_12  and  C5_17
REMARK    7  A    between atoms: C5_17  and  C6_18
REMARK    8  A    between atoms: C7_20  and  C8_21
REMARK    9  A    between atoms: C8_21  and  N4_22
REMARK       I    between atoms: N4_22  and  C9_24
REMARK   10  A    between atoms: C10_29  and  O2_30
REMARK   11  A    between atoms: C11_32  and  O3_33
REMARK   12  A    between atoms: O3_33  and  C12_34
REMARK   13  A    between atoms: C12_34  and  C13_35
REMARK       I    between atoms: C13_35  and  N7_37
REMARK   14  A    between atoms: N7_37  and  C14_39
REMARK   15  A    between atoms: C14_39  and  C15_40
REMARK   16  A    between atoms: C14_39  and  C17_44
REMARK   17  A    between atoms: C15_40  and  C16_41
REMARK   18  A    between atoms: C17_44  and  C18_46
ROOT
HETATM    1  C6  UNL     1      -3.377  14.385 121.523  1.00  0.00     0.265 C
HETATM    2  O1  UNL     1      -4.481  15.146 121.157  1.00  0.00    -0.351 OA
HETATM    3  C7  UNL     1      -4.973  15.889 122.189  1.00  0.00     0.176 C
HETATM    4  C10 UNL     1      -5.336  15.015 123.338  1.00  0.00     0.204 C
HETATM    5  C11 UNL     1      -4.127  14.204 123.742  1.00  0.00     0.294 C
HETATM    6  O9  UNL     1      -3.608  13.591 122.603  1.00  0.00    -0.329 OA
ENDROOT
BRANCH   1   7
HETATM    7  C5  UNL     1      -2.154  15.228 121.533  1.00  0.00     0.096 C
BRANCH   7   8
HETATM    8  C4  UNL     1      -1.552  15.598 120.230  1.00  0.00     0.220 C
BRANCH   8   9
HETATM    9  C3  UNL     1      -1.563  17.057 119.900  1.00  0.00     0.243 C
BRANCH   9  10
HETATM   10  C2  UNL     1      -0.777  17.823 120.963  1.00  0.00     0.211 C
HETATM   11  C1  UNL     1       0.263  18.675 120.279  1.00  0.00     0.042 C
BRANCH  10  12
HETATM   12  N1  UNL     1      -1.746  18.762 121.515  1.00  0.00    -0.073 N
ATOM     13  H13 UNL     1      -1.632  19.716 121.177  1.00  0.00     0.274 HD
ATOM     14  H12 UNL     1      -2.695  18.624 121.168  1.00  0.00     0.274 HD
ATOM     15  H11 UNL     1      -1.663  18.673 122.528  1.00  0.00     0.274 HD
ENDBRANCH  10  12
ENDBRANCH   9  10
BRANCH   9  16
HETATM   16  N2  UNL     1      -2.892  17.588 119.842  1.00  0.00    -0.071 N
ATOM     17  H23 UNL     1      -3.599  16.862 119.729  1.00  0.00     0.274 HD
ATOM     18  H22 UNL     1      -3.207  17.952 120.742  1.00  0.00     0.274 HD
ATOM     19  H21 UNL     1      -2.931  18.289 119.102  1.00  0.00     0.274 HD
ENDBRANCH   9  16
ENDBRANCH   8   9
BRANCH   8  20
HETATM   20  N3  UNL     1      -1.990  14.856 119.077  1.00  0.00    -0.073 N
ATOM     21  H33 UNL     1      -1.243  14.718 118.397  1.00  0.00     0.274 HD
ATOM     22  H32 UNL     1      -2.169  13.874 119.291  1.00  0.00     0.274 HD
ATOM     23  H31 UNL     1      -2.804  15.320 118.675  1.00  0.00     0.274 HD
ENDBRANCH   8  20
ENDBRANCH   7   8
ENDBRANCH   1   7
BRANCH   3  24
HETATM   24  C8  UNL     1      -6.082  16.820 121.744  1.00  0.00     0.157 C
BRANCH  24  25
HETATM   25  N4  UNL     1      -6.707  16.481 120.524  1.00  0.00    -0.362 N
HETATM   26  C9  UNL     1      -7.999  15.912 120.504  1.00  0.00     0.181 C
HETATM   27  N5  UNL     1      -8.196  14.678 120.886  1.00  0.00    -0.374 N
HETATM   28  N6  UNL     1      -9.076  16.717 120.062  1.00  0.00    -0.064 NA
ATOM     29  H52 UNL     1      -7.420  14.097 121.205  1.00  0.00     0.158 HD
ATOM     30  H51 UNL     1      -9.129  14.268 120.872  1.00  0.00     0.158 HD
ATOM     31  H4  UNL     1      -6.218  16.648 119.645  1.00  0.00     0.162 HD
ENDBRANCH  24  25
ENDBRANCH   3  24
BRANCH   5  32
HETATM   32  O3  UNL     1      -4.512  13.156 124.590  1.00  0.00    -0.349 OA
BRANCH  32  33
HETATM   33  C12 UNL     1      -3.490  12.277 124.755  1.00  0.00     0.273 C
BRANCH  33  34
HETATM   34  C13 UNL     1      -3.631  11.087 123.856  1.00  0.00     0.242 C
HETATM   35  O4  UNL     1      -2.623  10.340 123.758  1.00  0.00    -0.271 OA
HETATM   36  N7  UNL     1      -4.808  10.798 123.154  1.00  0.00    -0.347 N
ATOM     37  H7  UNL     1      -5.609  11.422 123.258  1.00  0.00     0.163 HD
BRANCH  36  38
HETATM   38  C14 UNL     1      -4.930   9.639 122.282  1.00  0.00     0.174 C
BRANCH  38  39
HETATM   39  C15 UNL     1      -5.612   9.971 121.008  1.00  0.00     0.133 C
BRANCH  39  40
HETATM   40  C16 UNL     1      -5.391  11.356 120.515  1.00  0.00     0.233 C
HETATM   41  N8  UNL     1      -4.315  11.671 119.657  1.00  0.00    -0.062 NA
HETATM   42  O5  UNL     1      -6.183  12.250 120.877  1.00  0.00    -0.277 OA
ENDBRANCH  39  40
ENDBRANCH  38  39
BRANCH  38  43
HETATM   43  C17 UNL     1      -5.552   8.513 122.983  1.00  0.00     0.247 C
HETATM   44  O6  UNL     1      -6.784   8.258 122.685  1.00  0.00    -0.283 OA
BRANCH  43  45
HETATM   45  C18 UNL     1      -4.915   7.687 123.952  1.00  0.00     0.249 C
HETATM   46  O7  UNL     1      -4.611   8.007 125.095  1.00  0.00    -0.642 OA
HETATM   47  O8  UNL     1      -4.590   6.358 123.579  1.00  0.00    -0.642 OA
ENDBRANCH  43  45
ENDBRANCH  38  43
ENDBRANCH  36  38
ENDBRANCH  33  34
ENDBRANCH  32  33
ENDBRANCH   5  32
BRANCH   4  48
HETATM   48  O2  UNL     1      -6.284  14.061 122.887  1.00  0.00    -0.388 OA
ATOM     49  H2  UNL     1      -6.176  13.955 121.949  1.00  0.00     0.210 HD
ENDBRANCH   4  48
TORSDOF 18
ENDMDL