MODEL 5
REMARK VINA RESULT: -6.774628843      2.703      4.839
REMARK  19 active torsions:
REMARK  status: ('A' for Active; 'I' for Inactive)
REMARK    1  A    between atoms: C2_2  and  O1_3
REMARK    2  A    between atoms: C2_2  and  C3_5
REMARK    3  A    between atoms: C3_5  and  C4_7
REMARK    4  A    between atoms: C4_7  and  C5_9
REMARK       I    between atoms: C5_9  and  N1_11
REMARK    5  A    between atoms: N1_11  and  N2_13
REMARK    6  A    between atoms: N2_13  and  C6_15
REMARK    7  A    between atoms: C6_15  and  C7_16
REMARK    8  A    between atoms: C7_16  and  O5_17
REMARK    9  A    between atoms: C7_16  and  C8_19
REMARK       I    between atoms: C8_19  and  N3_21
REMARK   10  A    between atoms: N3_21  and  C9_23
REMARK   11  A    between atoms: C9_23  and  C11_25
REMARK       I    between atoms: C11_25  and  N4_27
REMARK   12  A    between atoms: N4_27  and  C12_29
REMARK   13  A    between atoms: C12_29  and  C14_31
REMARK   14  A    between atoms: C14_31  and  C15_32
REMARK   15  A    between atoms: C14_31  and  N6_37
REMARK   16  A    between atoms: C15_32  and  N5_33
REMARK       I    between atoms: N6_37  and  C16_39
REMARK   17  A    between atoms: C16_39  and  C17_41
REMARK   18  A    between atoms: C17_41  and  C18_42
REMARK       I    between atoms: C18_42  and  N7_44
REMARK   19  A    between atoms: N7_44  and  N8_46
ROOT
HETATM    1  C9  UNL     1      -4.071  11.427 126.368  1.00  0.00     0.172 C
HETATM    2  C10 UNL     1      -3.451  11.267 127.800  1.00  0.00     0.042 C
ENDROOT
BRANCH   1   3
HETATM    3  N3  UNL     1      -4.424  10.054 125.995  1.00  0.00    -0.346 N
HETATM    4  C8  UNL     1      -4.777   9.689 124.682  1.00  0.00     0.248 C
HETATM    5  O6  UNL     1      -4.827  10.533 123.779  1.00  0.00    -0.271 OA
ATOM      6  H3  UNL     1      -4.414   9.333 126.717  1.00  0.00     0.163 HD
BRANCH   4   7
HETATM    7  C7  UNL     1      -5.092   8.271 124.385  1.00  0.00     0.229 C
BRANCH   7   8
HETATM    8  C6  UNL     1      -5.886   8.143 123.131  1.00  0.00     0.180 C
BRANCH   8   9
HETATM    9  N2  UNL     1      -5.127   8.412 121.967  1.00  0.00    -0.331 N
ATOM     10  H2  UNL     1      -5.198   9.334 121.535  1.00  0.00     0.180 HD
BRANCH   9  11
HETATM   11  N1  UNL     1      -4.321   7.500 121.413  1.00  0.00    -0.267 N
HETATM   12  C5  UNL     1      -2.893   7.665 121.356  1.00  0.00     0.313 C
HETATM   13  O4  UNL     1      -2.336   8.686 121.839  1.00  0.00    -0.262 OA
ATOM     14  H1  UNL     1      -4.733   6.654 121.017  1.00  0.00     0.190 HD
BRANCH  12  15
HETATM   15  C4  UNL     1      -2.102   6.623 120.722  1.00  0.00     0.288 C
HETATM   16  O3  UNL     1      -0.898   6.916 120.409  1.00  0.00    -0.278 OA
BRANCH  15  17
HETATM   17  C3  UNL     1      -2.653   5.313 120.461  1.00  0.00     0.232 C
HETATM   18  O2  UNL     1      -3.063   4.581 121.352  1.00  0.00    -0.286 OA
BRANCH  17  19
HETATM   19  C2  UNL     1      -2.702   4.853 119.000  1.00  0.00     0.192 C
HETATM   20  C1  UNL     1      -1.629   3.852 118.711  1.00  0.00     0.048 C
BRANCH  19  21
HETATM   21  O1  UNL     1      -2.606   5.950 118.195  1.00  0.00    -0.388 OA
ATOM     22  H1  UNL     1      -2.252   6.699 118.659  1.00  0.00     0.210 HD
ENDBRANCH  19  21
ENDBRANCH  17  19
ENDBRANCH  15  17
ENDBRANCH  12  15
ENDBRANCH   9  11
ENDBRANCH   8   9
ENDBRANCH   7   8
BRANCH   7  23
HETATM   23  O5  UNL     1      -3.937   7.520 124.430  1.00  0.00    -0.384 OA
ATOM     24  H5  UNL     1      -3.929   6.754 123.867  1.00  0.00     0.210 HD
ENDBRANCH   7  23
ENDBRANCH   4   7
ENDBRANCH   1   3
BRANCH   1  25
HETATM   25  C11 UNL     1      -2.965  11.882 125.544  1.00  0.00     0.244 C
HETATM   26  O7  UNL     1      -1.816  11.424 125.792  1.00  0.00    -0.271 OA
HETATM   27  N4  UNL     1      -3.126  12.818 124.472  1.00  0.00    -0.331 N
ATOM     28  H4  UNL     1      -4.063  13.167 124.272  1.00  0.00     0.168 HD
BRANCH  27  29
HETATM   29  C12 UNL     1      -2.051  13.283 123.673  1.00  0.00     0.010 C
HETATM   30  C13 UNL     1      -2.297  14.785 123.430  1.00  0.00     0.066 C
BRANCH  29  31
HETATM   31  C14 UNL     1      -1.507  12.595 122.520  1.00  0.00     0.155 C
BRANCH  31  32
HETATM   32  C15 UNL     1      -0.266  11.783 122.617  1.00  0.00     0.260 C
BRANCH  32  33
HETATM   33  N5  UNL     1      -0.372  10.515 123.260  1.00  0.00    -0.077 N
ATOM     34  H53 UNL     1       0.162  10.529 124.129  1.00  0.00     0.274 HD
ATOM     35  H52 UNL     1      -1.318  10.396 123.623  1.00  0.00     0.274 HD
ATOM     36  H51 UNL     1      -0.111   9.695 122.712  1.00  0.00     0.274 HD
ENDBRANCH  32  33
ENDBRANCH  31  32
BRANCH  31  37
HETATM   37  N6  UNL     1      -2.530  11.738 121.873  1.00  0.00    -0.349 N
HETATM   38  C16 UNL     1      -3.241  12.146 120.735  1.00  0.00     0.227 C
HETATM   39  O8  UNL     1      -2.974  13.276 120.220  1.00  0.00    -0.273 OA
ATOM     40  H6  UNL     1      -2.725  10.819 122.270  1.00  0.00     0.163 HD
BRANCH  38  41
HETATM   41  C17 UNL     1      -4.296  11.357 120.072  1.00  0.00     0.207 C
BRANCH  41  42
HETATM   42  C18 UNL     1      -5.631  11.645 120.641  1.00  0.00     0.244 C
HETATM   43  O9  UNL     1      -6.540  10.758 120.772  1.00  0.00    -0.271 OA
HETATM   44  N7  UNL     1      -5.945  12.970 121.077  1.00  0.00    -0.276 N
ATOM     45  H7  UNL     1      -5.228  13.689 120.973  1.00  0.00     0.189 HD
BRANCH  44  46
HETATM   46  N8  UNL     1      -7.156  13.340 121.631  1.00  0.00    -0.343 N
ATOM     47  H82 UNL     1      -7.304  13.105 122.612  1.00  0.00     0.176 HD
ATOM     48  H81 UNL     1      -7.895  13.827 121.123  1.00  0.00     0.176 HD
ENDBRANCH  44  46
ENDBRANCH  41  42
ENDBRANCH  38  41
ENDBRANCH  31  37
ENDBRANCH  29  31
ENDBRANCH  27  29
ENDBRANCH   1  25
TORSDOF 19
ENDMDL