MODEL 2
REMARK VINA RESULT: -7.135112002      2.472      5.264
REMARK  20 active torsions:
REMARK  status: ('A' for Active; 'I' for Inactive)
REMARK    1  A    between atoms: O1_2  and  C2_3
REMARK    2  A    between atoms: C2_3  and  C3_5
REMARK    3  A    between atoms: C3_5  and  C4_6
REMARK    4  A    between atoms: C3_5  and  N3_15
REMARK    5  A    between atoms: C4_6  and  C5_7
REMARK    6  A    between atoms: C5_7  and  N1_8
REMARK    7  A    between atoms: C5_7  and  C6_12
REMARK       I    between atoms: N3_15  and  C7_17
REMARK    8  A    between atoms: C7_17  and  C8_19
REMARK    9  A    between atoms: C8_19  and  C9_20
REMARK   10  A    between atoms: C9_20  and  C10_21
REMARK   11  A    between atoms: C9_20  and  C11_28
REMARK   12  A    between atoms: C10_21  and  N4_22
REMARK   13  A    between atoms: C10_21  and  O5_26
REMARK   14  A    between atoms: C11_28  and  N5_29
REMARK   15  A    between atoms: C11_28  and  O8_48
REMARK   16  A    between atoms: N5_29  and  C12_31
REMARK   17  A    between atoms: C13_32  and  N6_33
REMARK       I    between atoms: N6_33  and  C14_35
REMARK   18  A    between atoms: C16_41  and  O6_42
REMARK   19  A    between atoms: C17_44  and  C18_45
REMARK   20  A    between atoms: C18_45  and  O7_46
ROOT
HETATM    1  C9  UNL     1      -4.654  12.947 123.580  1.00  0.00     0.099 C
ENDROOT
BRANCH   1   2
HETATM    2  C8  UNL     1      -4.366  14.106 124.503  1.00  0.00     0.116 C
BRANCH   2   3
HETATM    3  C7  UNL     1      -4.113  15.419 123.914  1.00  0.00     0.218 C
HETATM    4  N3  UNL     1      -4.409  15.600 122.539  1.00  0.00    -0.347 N
ATOM      5  H3  UNL     1      -4.779  14.808 122.014  1.00  0.00     0.163 HD
HETATM    6  O4  UNL     1      -3.657  16.388 124.543  1.00  0.00    -0.274 OA
BRANCH   4   7
HETATM    7  C3  UNL     1      -4.216  16.821 121.863  1.00  0.00     0.186 C
BRANCH   7   8
HETATM    8  C2  UNL     1      -5.294  17.198 120.902  1.00  0.00     0.281 C
HETATM    9  O2  UNL     1      -5.069  17.353 119.685  1.00  0.00    -0.263 OA
BRANCH   8  10
HETATM   10  O1  UNL     1      -6.564  17.374 121.390  1.00  0.00    -0.325 OA
HETATM   11  C1  UNL     1      -7.711  16.756 120.850  1.00  0.00     0.213 C
ENDBRANCH   8  10
ENDBRANCH   7   8
BRANCH   7  12
HETATM   12  C4  UNL     1      -2.893  16.860 121.157  1.00  0.00     0.077 C
BRANCH  12  13
HETATM   13  C5  UNL     1      -2.508  15.516 120.576  1.00  0.00     0.274 C
BRANCH  13  14
HETATM   14  N1  UNL     1      -2.452  15.704 119.103  1.00  0.00    -0.067 N
ATOM     15  H13 UNL     1      -3.045  16.463 118.767  1.00  0.00     0.275 HD
ATOM     16  H12 UNL     1      -1.564  16.085 118.777  1.00  0.00     0.275 HD
ATOM     17  H11 UNL     1      -2.682  14.798 118.693  1.00  0.00     0.275 HD
ENDBRANCH  13  14
BRANCH  13  18
HETATM   18  C6  UNL     1      -1.155  15.161 120.993  1.00  0.00     0.261 C
HETATM   19  N2  UNL     1      -0.700  15.023 122.337  1.00  0.00    -0.060 NA
HETATM   20  O3  UNL     1      -0.272  14.945 120.088  1.00  0.00    -0.275 OA
ENDBRANCH  13  18
ENDBRANCH  12  13
ENDBRANCH   7  12
ENDBRANCH   4   7
ENDBRANCH   2   3
ENDBRANCH   1   2
BRANCH   1  21
HETATM   21  C10 UNL     1      -6.100  12.608 123.728  1.00  0.00     0.324 C
BRANCH  21  22
HETATM   22  N4  UNL     1      -6.898  13.159 122.623  1.00  0.00    -0.053 N
ATOM     23  H43 UNL     1      -6.309  13.627 121.934  1.00  0.00     0.277 HD
ATOM     24  H42 UNL     1      -7.277  12.419 122.031  1.00  0.00     0.277 HD
ATOM     25  H41 UNL     1      -7.634  13.777 122.966  1.00  0.00     0.277 HD
ENDBRANCH  21  22
BRANCH  21  26
HETATM   26  O5  UNL     1      -6.319  11.258 123.700  1.00  0.00    -0.369 OA
ATOM     27  H5  UNL     1      -7.231  11.039 123.857  1.00  0.00     0.212 HD
ENDBRANCH  21  26
ENDBRANCH   1  21
BRANCH   1  28
HETATM   28  C11 UNL     1      -3.709  11.852 123.930  1.00  0.00     0.224 C
BRANCH  28  29
HETATM   29  N5  UNL     1      -3.535  10.748 123.109  1.00  0.00    -0.390 N
ATOM     30  H5  UNL     1      -3.602   9.855 123.596  1.00  0.00     0.156 HD
BRANCH  29  31
HETATM   31  C12 UNL     1      -3.293  10.632 121.776  1.00  0.00     0.110 C
HETATM   32  C13 UNL     1      -3.713   9.202 121.334  1.00  0.00     0.109 C
HETATM   33  C15 UNL     1      -5.176   9.346 121.162  1.00  0.00     0.059 C
HETATM   34  C16 UNL     1      -5.245  10.606 120.298  1.00  0.00     0.128 C
HETATM   35  C17 UNL     1      -4.109  11.437 120.816  1.00  0.00     0.062 C
BRANCH  32  36
HETATM   36  N6  UNL     1      -3.220   8.171 122.140  1.00  0.00    -0.358 N
HETATM   37  C14 UNL     1      -3.629   6.817 122.256  1.00  0.00     0.182 C
HETATM   38  N7  UNL     1      -3.349   5.922 121.378  1.00  0.00    -0.374 N
HETATM   39  N8  UNL     1      -4.378   6.405 123.398  1.00  0.00    -0.064 NA
ATOM     40  H72 UNL     1      -2.814   6.217 120.562  1.00  0.00     0.158 HD
ATOM     41  H71 UNL     1      -3.644   4.948 121.462  1.00  0.00     0.158 HD
ATOM     42  H6  UNL     1      -2.440   8.435 122.742  1.00  0.00     0.162 HD
ENDBRANCH  32  36
BRANCH  34  43
HETATM   43  O6  UNL     1      -6.484  11.200 120.501  1.00  0.00    -0.395 OA
ATOM     44  H6  UNL     1      -6.894  11.323 119.654  1.00  0.00     0.210 HD
ENDBRANCH  34  43
BRANCH  35  45
HETATM   45  C18 UNL     1      -3.261  11.914 119.663  1.00  0.00     0.173 C
BRANCH  45  46
HETATM   46  O7  UNL     1      -3.779  11.673 118.417  1.00  0.00    -0.400 OA
ATOM     47  H7  UNL     1      -4.098  12.439 117.956  1.00  0.00     0.209 HD
ENDBRANCH  45  46
ENDBRANCH  35  45
ENDBRANCH  29  31
ENDBRANCH  28  29
BRANCH  28  48
HETATM   48  O8  UNL     1      -2.430  12.444 124.055  1.00  0.00    -0.371 OA
HETATM   49  C19 UNL     1      -1.590  11.723 124.899  1.00  0.00     0.204 C
ENDBRANCH  28  48
ENDBRANCH   1  28
TORSDOF 20
ENDMDL