MODEL 3
REMARK VINA RESULT: -6.643312640      3.702      5.756
REMARK  8 active torsions:
REMARK  status: ('A' for Active; 'I' for Inactive)
REMARK       I    between atoms: C2_2  and  N1_4
REMARK    1  A    between atoms: N1_4  and  C3_6
REMARK    2  A    between atoms: C3_6  and  C4_7
REMARK    3  A    between atoms: C3_6  and  C15_42
REMARK       I    between atoms: C4_7  and  N2_9
REMARK    4  A    between atoms: C5_11  and  N4_12
REMARK    5  A    between atoms: C6_16  and  N5_17
REMARK    6  A    between atoms: C11_27  and  C12_28
REMARK    7  A    between atoms: C12_28  and  N8_29
REMARK    8  A    between atoms: C12_28  and  O4_33
ROOT
HETATM    1  C4  UNL     1       3.554   9.241  83.428  1.00  0.00     0.265 C
HETATM    2  O2  UNL     1       4.627   9.522  82.837  1.00  0.00    -0.269 OA
HETATM    3  N2  UNL     1       2.935   7.955  83.248  1.00  0.00    -0.195 N
HETATM    4  N3  UNL     1       1.773   7.609  83.886  1.00  0.00    -0.091 NA
HETATM    5  C5  UNL     1       1.128   6.424  83.367  1.00  0.00     0.338 C
HETATM    6  C6  UNL     1       1.384   6.394  81.896  1.00  0.00     0.242 C
HETATM    7  N10 UNL     1       2.806   6.235  81.700  1.00  0.00    -0.338 N
ATOM      8  H10 UNL     1       3.188   5.541  81.058  1.00  0.00     0.164 HD
HETATM    9  C14 UNL     1       3.564   7.022  82.382  1.00  0.00     0.211 C
HETATM   10  N11 UNL     1       4.998   6.962  82.270  1.00  0.00    -0.062 NA
ENDROOT
BRANCH   6  11
HETATM   11  N5  UNL     1       0.707   5.377  81.179  1.00  0.00    -0.295 N
HETATM   12  C7  UNL     1       0.375   5.477  79.881  1.00  0.00     0.083 A
HETATM   13  C8  UNL     1       0.640   6.633  78.970  1.00  0.00     0.089 C
HETATM   14  N6  UNL     1      -0.253   4.356  79.500  1.00  0.00    -0.338 N
HETATM   15  C9  UNL     1      -0.325   3.528  80.554  1.00  0.00     0.147 A
ATOM     16  H6  UNL     1      -0.615   4.164  78.565  1.00  0.00     0.167 HD
HETATM   17  C10 UNL     1      -0.849   2.268  80.749  1.00  0.00     0.277 A
HETATM   18  C13 UNL     1       0.280   4.179  81.607  1.00  0.00     0.145 A
HETATM   19  O3  UNL     1      -1.391   1.709  79.770  1.00  0.00    -0.266 OA
HETATM   20  N7  UNL     1      -0.776   1.655  81.966  1.00  0.00    -0.307 N
HETATM   21  C11 UNL     1      -0.179   2.311  82.976  1.00  0.00     0.142 A
ATOM     22  H7  UNL     1      -1.166   0.723  82.106  1.00  0.00     0.170 HD
HETATM   23  N9  UNL     1       0.332   3.550  82.774  1.00  0.00    -0.326 N
ATOM     24  H9  UNL     1       0.779   4.023  83.559  1.00  0.00     0.169 HD
BRANCH  21  25
HETATM   25  C12 UNL     1      -0.103   1.639  84.297  1.00  0.00     0.385 C
BRANCH  25  26
HETATM   26  N8  UNL     1      -0.916   2.379  85.238  1.00  0.00    -0.046 N
ATOM     27  H83 UNL     1      -1.825   1.943  85.397  1.00  0.00     0.277 HD
ATOM     28  H82 UNL     1      -0.563   2.317  86.193  1.00  0.00     0.277 HD
ATOM     29  H81 UNL     1      -0.996   3.342  84.914  1.00  0.00     0.277 HD
ENDBRANCH  25  26
BRANCH  25  30
HETATM   30  O4  UNL     1      -0.477   0.300  84.232  1.00  0.00    -0.364 OA
ATOM     31  H4  UNL     1      -0.892   0.080  83.407  1.00  0.00     0.212 HD
ENDBRANCH  25  30
ENDBRANCH  21  25
ENDBRANCH   6  11
BRANCH   5  32
HETATM   32  N4  UNL     1      -0.306   6.592  83.639  1.00  0.00    -0.056 N
ATOM     33  H43 UNL     1      -0.898   5.950  83.112  1.00  0.00     0.276 HD
ATOM     34  H42 UNL     1      -0.583   6.279  84.570  1.00  0.00     0.276 HD
ATOM     35  H41 UNL     1      -0.514   7.574  83.462  1.00  0.00     0.276 HD
ENDBRANCH   5  32
BRANCH   1  36
HETATM   36  C3  UNL     1       2.966  10.282  84.304  1.00  0.00     0.182 C
BRANCH  36  37
HETATM   37  N1  UNL     1       4.051  11.103  84.803  1.00  0.00    -0.348 N
HETATM   38  C2  UNL     1       4.527  11.005  86.140  1.00  0.00     0.214 C
HETATM   39  C1  UNL     1       5.624  11.843  86.626  1.00  0.00     0.117 C
HETATM   40  O1  UNL     1       3.996  10.179  86.923  1.00  0.00    -0.274 OA
ATOM     41  H1  UNL     1       4.489  11.776  84.173  1.00  0.00     0.163 HD
ENDBRANCH  36  37
BRANCH  36  42
HETATM   42  C15 UNL     1       2.125  11.203  83.428  1.00  0.00     0.009 C
HETATM   43  C16 UNL     1       0.647  11.021  83.707  1.00  0.00     0.012 C
HETATM   44  C17 UNL     1       2.459  12.658  83.614  1.00  0.00     0.012 C
ENDBRANCH  36  42
ENDBRANCH   1  36
TORSDOF 8
ENDMDL