MODEL 3
REMARK VINA RESULT: -7.981580332      1.452      1.551
REMARK  7 active torsions:
REMARK  status: ('A' for Active; 'I' for Inactive)
REMARK    1  A    between atoms: C2_2  and  O1_4
REMARK    2  A    between atoms: O1_4  and  N1_5
REMARK       I    between atoms: N1_5  and  C4_7
REMARK       I    between atoms: C4_7  and  N2_9
REMARK    3  A    between atoms: N2_9  and  N3_11
REMARK       I    between atoms: N3_11  and  C5_13
REMARK    4  A    between atoms: C5_13  and  C6_15
REMARK    5  A    between atoms: C6_15  and  C7_17
REMARK    6  A    between atoms: C7_17  and  C8_18
REMARK    7  A    between atoms: N6_24  and  C10_26
ROOT
HETATM    1  C8  UNL     1      -1.364   8.186  82.149  1.00  0.00     0.149 A
HETATM    2  N4  UNL     1      -2.005   8.821  83.135  1.00  0.00    -0.280 N
ATOM      3  H4  UNL     1      -2.387   9.766  83.080  1.00  0.00     0.189 HD
HETATM    4  N5  UNL     1      -2.065   8.036  84.184  1.00  0.00    -0.263 N
ATOM      5  H5  UNL     1      -2.497   8.260  85.080  1.00  0.00     0.190 HD
HETATM    6  C9  UNL     1      -1.437   6.850  83.855  1.00  0.00     0.242 A
HETATM    7  N6  UNL     1      -1.329   5.919  84.626  1.00  0.00    -0.328 N
ATOM      8  H6  UNL     1      -1.792   6.243  85.476  1.00  0.00     0.165 HD
HETATM    9  O9  UNL     1      -1.037   7.012  82.606  1.00  0.00    -0.263 OA
ENDROOT
BRANCH   1  10
HETATM   10  C7  UNL     1      -1.079   8.742  80.771  1.00  0.00     0.175 C
BRANCH  10  11
HETATM   11  C6  UNL     1      -1.555   7.685  79.848  1.00  0.00     0.225 C
HETATM   12  O4  UNL     1      -2.779   7.356  79.972  1.00  0.00    -0.287 OA
BRANCH  11  13
HETATM   13  C5  UNL     1      -0.756   7.029  78.862  1.00  0.00     0.306 C
HETATM   14  N3  UNL     1       0.078   5.940  79.201  1.00  0.00    -0.259 N
ATOM     15  H3  UNL     1       0.093   5.608  80.166  1.00  0.00     0.190 HD
HETATM   16  O3  UNL     1      -0.782   7.421  77.663  1.00  0.00    -0.263 OA
BRANCH  14  17
HETATM   17  N2  UNL     1       0.891   5.297  78.240  1.00  0.00    -0.247 N
HETATM   18  C4  UNL     1       2.285   5.625  78.196  1.00  0.00     0.359 C
HETATM   19  N1  UNL     1       3.202   5.057  77.291  1.00  0.00    -0.209 N
HETATM   20  O2  UNL     1       2.745   6.486  79.027  1.00  0.00    -0.243 OA
ATOM     21  H1  UNL     1       2.880   4.367  76.612  1.00  0.00     0.200 HD
ATOM     22  H2  UNL     1       0.494   4.616  77.592  1.00  0.00     0.192 HD
BRANCH  19  23
HETATM   23  O1  UNL     1       4.511   5.418  77.311  1.00  0.00    -0.240 OA
BRANCH  23  24
HETATM   24  C2  UNL     1       5.575   4.556  77.443  1.00  0.00     0.063 C
HETATM   25  C1  UNL     1       6.053   3.968  76.366  1.00  0.00     0.048 C
HETATM   26  C3  UNL     1       6.181   4.296  78.774  1.00  0.00     0.078 C
ENDBRANCH  23  24
ENDBRANCH  19  23
ENDBRANCH  14  17
ENDBRANCH  11  13
ENDBRANCH  10  11
ENDBRANCH   1  10
BRANCH   7  27
HETATM   27  C10 UNL     1      -0.904   4.660  84.935  1.00  0.00     0.229 A
HETATM   28  C11 UNL     1      -1.770   3.544  84.355  1.00  0.00     0.112 A
HETATM   29  C12 UNL     1      -0.488   3.038  83.747  1.00  0.00     0.228 A
HETATM   30  O5  UNL     1       0.185   4.118  84.285  1.00  0.00    -0.336 OA
HETATM   31  C13 UNL     1      -0.063   1.718  84.290  1.00  0.00     0.270 C
HETATM   32  C15 UNL     1      -0.468   3.019  82.259  1.00  0.00     0.270 C
HETATM   33  O6  UNL     1       0.238   1.630  85.508  1.00  0.00    -0.269 OA
HETATM   34  N7  UNL     1       0.024   0.538  83.510  1.00  0.00    -0.276 N
HETATM   35  C14 UNL     1      -0.134   0.619  82.115  1.00  0.00     0.329 C
ATOM     36  H7  UNL     1       0.201  -0.362  83.956  1.00  0.00     0.173 HD
HETATM   37  O7  UNL     1      -0.053  -0.446  81.423  1.00  0.00    -0.247 OA
HETATM   38  N8  UNL     1      -0.382   1.861  81.481  1.00  0.00    -0.276 N
ATOM     39  H8  UNL     1      -0.495   1.910  80.468  1.00  0.00     0.173 HD
HETATM   40  O8  UNL     1      -0.533   4.140  81.676  1.00  0.00    -0.269 OA
ENDBRANCH   7  27
TORSDOF 7
ENDMDL