MODEL 2
REMARK VINA RESULT: -7.493907629      1.580      2.473
REMARK  8 active torsions:
REMARK  status: ('A' for Active; 'I' for Inactive)
REMARK    1  A    between atoms: O1_2  and  C2_3
REMARK    2  A    between atoms: C3_6  and  N2_7
REMARK    3  A    between atoms: N2_7  and  N3_9
REMARK       I    between atoms: N3_9  and  C4_11
REMARK       I    between atoms: C4_11  and  N4_13
REMARK    4  A    between atoms: N4_13  and  S1_15
REMARK    5  A    between atoms: S1_15  and  N5_18
REMARK    6  A    between atoms: N5_18  and  C5_20
REMARK    7  A    between atoms: C9_27  and  S2_28
REMARK    8  A    between atoms: C11_36  and  C12_37
ROOT
HETATM    1  C5  UNL     1       1.499   7.294  81.582  1.00  0.00     0.132 A
HETATM    2  C6  UNL     1       1.583   8.548  82.123  1.00  0.00     0.138 A
HETATM    3  N6  UNL     1       2.839   9.026  82.385  1.00  0.00    -0.351 N
ATOM      4  H6  UNL     1       2.945   9.957  82.787  1.00  0.00     0.166 HD
HETATM    5  C7  UNL     1       3.929   8.299  82.125  1.00  0.00     0.147 A
HETATM    6  C8  UNL     1       5.252   8.822  82.412  1.00  0.00     0.120 C
HETATM    7  N7  UNL     1       6.328   9.229  82.632  1.00  0.00    -0.190 NA
HETATM    8  C9  UNL     1       3.857   7.030  81.580  1.00  0.00     0.109 A
HETATM    9  N8  UNL     1       2.615   6.565  81.321  1.00  0.00    -0.333 N
ATOM     10  H8  UNL     1       2.511   5.634  80.916  1.00  0.00     0.168 HD
ENDROOT
BRANCH   8  11
HETATM   11  S2  UNL     1       5.343   6.097  81.274  1.00  0.00    -0.114 SA
HETATM   12  C10 UNL     1       5.050   4.645  80.264  1.00  0.00     0.097 C
ENDBRANCH   8  11
BRANCH   1  13
HETATM   13  N5  UNL     1       0.364   6.782  81.312  1.00  0.00    -0.251 N
ATOM     14  H5  UNL     1      -0.360   6.765  82.032  1.00  0.00     0.182 HD
BRANCH  13  15
HETATM   15  S1  UNL     1       0.025   6.121  79.771  1.00  0.00     0.328 S
HETATM   16  O3  UNL     1      -0.964   6.942  78.982  1.00  0.00    -0.182 OA
HETATM   17  O4  UNL     1       1.279   6.017  78.923  1.00  0.00    -0.182 OA
BRANCH  15  18
HETATM   18  N4  UNL     1      -0.689   4.521  79.911  1.00  0.00    -0.217 N
HETATM   19  C4  UNL     1      -0.172   3.603  80.844  1.00  0.00     0.349 C
HETATM   20  N3  UNL     1      -0.718   2.316  80.981  1.00  0.00    -0.236 N
HETATM   21  O2  UNL     1       0.797   3.946  81.567  1.00  0.00    -0.244 OA
ATOM     22  H3  UNL     1      -1.501   2.029  80.393  1.00  0.00     0.192 HD
ATOM     23  H4  UNL     1      -1.475   4.258  79.317  1.00  0.00     0.185 HD
BRANCH  20  24
HETATM   24  N2  UNL     1      -0.189   1.431  81.923  1.00  0.00    -0.127 N
ATOM     25  H2  UNL     1       0.300   0.590  81.616  1.00  0.00     0.206 HD
BRANCH  24  26
HETATM   26  C3  UNL     1      -0.333   1.707  83.312  1.00  0.00     0.713 A
HETATM   27  N1  UNL     1      -0.911   2.914  83.784  1.00  0.00    -0.169 N
HETATM   28  C2  UNL     1      -1.056   3.202  85.018  1.00  0.00     0.168 A
ATOM     29  H1  UNL     1      -1.230   3.595  83.094  1.00  0.00     0.186 HD
HETATM   30  C11 UNL     1      -0.627   2.310  86.103  1.00  0.00     0.275 A
HETATM   31  N10 UNL     1      -0.070   1.093  85.575  1.00  0.00    -0.299 N
HETATM   32  N9  UNL     1       0.050   0.879  84.217  1.00  0.00    -0.134 N
ATOM     33  H10 UNL     1       0.246   0.370  86.221  1.00  0.00     0.182 HD
ATOM     34  H9  UNL     1       0.471   0.002  83.910  1.00  0.00     0.205 HD
BRANCH  28  35
HETATM   35  O1  UNL     1      -1.649   4.434  85.364  1.00  0.00    -0.342 OA
HETATM   36  C1  UNL     1      -1.877   5.432  84.383  1.00  0.00     0.211 C
ENDBRANCH  28  35
BRANCH  30  37
HETATM   37  C12 UNL     1      -1.859   1.897  86.880  1.00  0.00     0.206 C
HETATM   38  O5  UNL     1      -2.120   2.511  87.964  1.00  0.00    -0.646 OA
HETATM   39  O6  UNL     1      -2.643   0.894  86.385  1.00  0.00    -0.646 OA
ENDBRANCH  30  37
ENDBRANCH  24  26
ENDBRANCH  20  24
ENDBRANCH  15  18
ENDBRANCH  13  15
ENDBRANCH   1  13
TORSDOF 8
ENDMDL