MODEL 2
REMARK VINA RESULT: -7.366648135      2.198      3.289
REMARK  6 active torsions:
REMARK  status: ('A' for Active; 'I' for Inactive)
REMARK    1  A    between atoms: N2_3  and  C2_5
REMARK    2  A    between atoms: C2_5  and  C3_6
REMARK    3  A    between atoms: C2_5  and  C8_21
REMARK    4  A    between atoms: C10_27  and  S2_28
REMARK    5  A    between atoms: S2_28  and  C11_29
REMARK    6  A    between atoms: C11_29  and  C12_30
ROOT
HETATM    1  N1  UNL     1      -1.201   2.252  80.628  1.00  0.00    -0.172 NA
HETATM    2  C1  UNL     1      -0.789   3.317  80.410  1.00  0.00     0.182 C
HETATM    3  N2  UNL     1      -0.284   4.603  80.123  1.00  0.00    -0.293 N
ATOM      4  H2  UNL     1      -0.837   5.197  79.505  1.00  0.00     0.178 HD
ENDROOT
BRANCH   3   5
HETATM    5  C2  UNL     1       0.928   5.131  80.624  1.00  0.00     0.076 C
BRANCH   5   6
HETATM    6  C3  UNL     1       2.164   5.080  79.834  1.00  0.00     0.090 A
HETATM    7  N3  UNL     1       3.363   4.912  80.411  1.00  0.00    -0.333 N
HETATM    8  C4  UNL     1       4.582   5.028  79.956  1.00  0.00     0.144 A
ATOM      9  H3  UNL     1       3.313   4.642  81.393  1.00  0.00     0.168 HD
HETATM   10  N4  UNL     1       5.685   4.895  80.648  1.00  0.00    -0.380 N
HETATM   11  S1  UNL     1       4.710   5.476  78.298  1.00  0.00    -0.034 SA
ATOM     12  H42 UNL     1       5.609   4.629  81.629  1.00  0.00     0.158 HD
ATOM     13  H41 UNL     1       6.637   4.985  80.292  1.00  0.00     0.158 HD
HETATM   14  C5  UNL     1       3.167   5.679  77.592  1.00  0.00     0.107 A
HETATM   15  N5  UNL     1       2.673   5.965  76.359  1.00  0.00    -0.345 N
HETATM   16  C7  UNL     1       2.053   5.448  78.472  1.00  0.00     0.096 A
HETATM   17  C6  UNL     1       1.316   5.916  76.441  1.00  0.00     0.182 A
ATOM     18  H5  UNL     1       3.220   6.177  75.524  1.00  0.00     0.167 HD
HETATM   19  N6  UNL     1       0.964   5.622  77.648  1.00  0.00    -0.348 N
ATOM     20  H6  UNL     1      -0.005   5.530  77.955  1.00  0.00     0.167 HD
ENDBRANCH   5   6
BRANCH   5  21
HETATM   21  C8  UNL     1       1.001   5.479  82.065  1.00  0.00     0.184 A
HETATM   22  N7  UNL     1       0.744   4.207  82.796  1.00  0.00    -0.360 N
HETATM   23  C9  UNL     1      -0.207   4.434  83.617  1.00  0.00     0.121 A
ATOM     24  H7  UNL     1       1.235   3.322  82.666  1.00  0.00     0.162 HD
HETATM   25  N8  UNL     1      -0.798   3.565  84.505  1.00  0.00    -0.322 N
HETATM   26  C14 UNL     1      -0.627   5.734  83.568  1.00  0.00     0.098 A
HETATM   27  C10 UNL     1      -1.760   3.903  85.335  1.00  0.00     0.149 A
ATOM     28  H8  UNL     1      -0.470   2.600  84.520  1.00  0.00     0.169 HD
HETATM   29  N9  UNL     1      -2.181   5.211  85.295  1.00  0.00    -0.303 N
HETATM   30  C13 UNL     1      -1.641   6.103  84.445  1.00  0.00     0.263 A
ATOM     31  H9  UNL     1      -2.922   5.513  85.927  1.00  0.00     0.171 HD
HETATM   32  O3  UNL     1      -2.069   7.292  84.460  1.00  0.00    -0.267 OA
HETATM   33  C15 UNL     1       0.058   6.410  82.662  1.00  0.00     0.072 A
HETATM   34  N10 UNL     1      -0.078   7.802  82.339  1.00  0.00    -0.103 NA
BRANCH  27  35
HETATM   35  S2  UNL     1      -2.642   2.739  86.385  1.00  0.00    -0.083 SA
BRANCH  35  36
HETATM   36  C11 UNL     1      -1.591   1.319  86.775  1.00  0.00     0.195 C
BRANCH  36  37
HETATM   37  C12 UNL     1      -0.500   1.082  85.844  1.00  0.00     0.182 C
HETATM   38  O1  UNL     1       0.641   1.613  86.074  1.00  0.00    -0.647 OA
HETATM   39  O2  UNL     1      -0.638   0.314  84.737  1.00  0.00    -0.647 OA
ENDBRANCH  36  37
ENDBRANCH  35  36
ENDBRANCH  27  35
ENDBRANCH   5  21
ENDBRANCH   3   5
TORSDOF 6
ENDMDL