MODEL 3
REMARK VINA RESULT: -6.772926796      2.329      2.937
REMARK  8 active torsions:
REMARK  status: ('A' for Active; 'I' for Inactive)
REMARK    1  A    between atoms: C5_10  and  N3_11
REMARK    2  A    between atoms: C7_16  and  N4_17
REMARK    3  A    between atoms: C7_16  and  C8_21
REMARK    4  A    between atoms: C8_21  and  O3_23
REMARK    5  A    between atoms: O3_23  and  N5_24
REMARK       I    between atoms: N5_24  and  C9_26
REMARK    6  A    between atoms: C9_26  and  C10_28
REMARK    7  A    between atoms: C10_28  and  C11_30
REMARK    8  A    between atoms: C14_37  and  C15_38
ROOT
HETATM    1  C1  UNL     1       2.510  12.568  83.695  1.00  0.00     0.148 C
HETATM    2  N1  UNL     1       2.783  11.327  84.376  1.00  0.00    -0.374 N
ATOM      3  H1  UNL     1       3.172  11.377  85.317  1.00  0.00     0.161 HD
HETATM    4  C2  UNL     1       2.574  10.192  83.889  1.00  0.00     0.162 C
HETATM    5  N2  UNL     1       2.810   8.929  84.482  1.00  0.00    -0.243 N
ATOM      6  H2  UNL     1       3.542   8.746  85.168  1.00  0.00     0.196 HD
HETATM    7  O1  UNL     1       1.945   7.994  84.027  1.00  0.00    -0.255 OA
HETATM    8  C3  UNL     1       2.070   7.942  82.616  1.00  0.00     0.162 C
HETATM    9  C4  UNL     1       3.421   7.439  82.319  1.00  0.00     0.086 C
HETATM   10  C5  UNL     1       3.579   6.756  81.000  1.00  0.00     0.190 C
HETATM   11  C6  UNL     1       2.396   5.902  80.627  1.00  0.00     0.083 C
HETATM   12  C7  UNL     1       1.110   6.673  80.703  1.00  0.00     0.230 C
HETATM   13  C14 UNL     1       0.912   7.191  82.081  1.00  0.00     0.181 C
HETATM   14  S1  UNL     1       1.908   9.759  82.288  1.00  0.00    -0.050 SA
ENDROOT
BRANCH  12  15
HETATM   15  N4  UNL     1       1.162   7.815  79.783  1.00  0.00    -0.060 N
ATOM     16  H43 UNL     1       0.458   7.749  79.048  1.00  0.00     0.275 HD
ATOM     17  H42 UNL     1       0.837   8.677  80.221  1.00  0.00     0.275 HD
ATOM     18  H41 UNL     1       2.105   7.908  79.405  1.00  0.00     0.275 HD
ENDBRANCH  12  15
BRANCH  12  19
HETATM   19  C8  UNL     1       0.009   5.768  80.286  1.00  0.00     0.318 C
HETATM   20  O2  UNL     1      -1.164   6.191  80.135  1.00  0.00    -0.260 OA
BRANCH  19  21
HETATM   21  O3  UNL     1       0.226   4.419  80.044  1.00  0.00    -0.194 OA
BRANCH  21  22
HETATM   22  N5  UNL     1       0.385   3.502  81.036  1.00  0.00    -0.219 N
HETATM   23  C9  UNL     1      -0.587   2.513  81.353  1.00  0.00     0.319 C
HETATM   24  O4  UNL     1      -1.657   2.458  80.700  1.00  0.00    -0.262 OA
ATOM     25  H5  UNL     1       1.247   3.525  81.582  1.00  0.00     0.198 HD
BRANCH  23  26
HETATM   26  C10 UNL     1      -0.392   1.545  82.417  1.00  0.00     0.284 C
HETATM   27  O5  UNL     1      -0.153   0.347  82.090  1.00  0.00    -0.278 OA
BRANCH  26  28
HETATM   28  C11 UNL     1      -0.470   1.950  83.799  1.00  0.00     0.162 A
HETATM   29  N6  UNL     1      -0.894   3.144  84.234  1.00  0.00    -0.348 N
HETATM   30  C12 UNL     1      -0.844   3.195  85.570  1.00  0.00     0.107 A
ATOM     31  H6  UNL     1      -1.210   3.906  83.632  1.00  0.00     0.167 HD
HETATM   32  C13 UNL     1      -0.357   1.949  85.973  1.00  0.00     0.107 A
HETATM   33  N7  UNL     1      -0.136   1.207  84.883  1.00  0.00    -0.348 N
ATOM     34  H7  UNL     1       0.221   0.252  84.868  1.00  0.00     0.167 HD
ENDBRANCH  26  28
ENDBRANCH  23  26
ENDBRANCH  21  22
ENDBRANCH  19  21
ENDBRANCH  12  19
BRANCH  13  35
HETATM   35  C15 UNL     1       0.471   6.149  83.039  1.00  0.00     0.184 C
HETATM   36  O6  UNL     1      -0.677   6.170  83.579  1.00  0.00    -0.648 OA
HETATM   37  O7  UNL     1       1.325   5.113  83.367  1.00  0.00    -0.648 OA
ENDBRANCH  13  35
BRANCH  10  38
HETATM   38  N3  UNL     1       3.813   7.674  79.909  1.00  0.00    -0.075 N
ATOM     39  H33 UNL     1       2.996   7.729  79.300  1.00  0.00     0.274 HD
ATOM     40  H32 UNL     1       3.838   8.637  80.244  1.00  0.00     0.274 HD
ATOM     41  H31 UNL     1       4.652   7.453  79.372  1.00  0.00     0.274 HD
ENDBRANCH  10  38
TORSDOF 8
ENDMDL