MODEL 5
REMARK VINA RESULT: -6.572100401      2.962      3.794
REMARK  9 active torsions:
REMARK  status: ('A' for Active; 'I' for Inactive)
REMARK    1  A    between atoms: C2_2  and  C3_3
REMARK    2  A    between atoms: C3_3  and  N1_4
REMARK    3  A    between atoms: C3_3  and  C4_8
REMARK    4  A    between atoms: C4_8  and  N2_10
REMARK    5  A    between atoms: C5_14  and  C6_15
REMARK       I    between atoms: C6_15  and  N5_17
REMARK    6  A    between atoms: C8_24  and  S2_25
REMARK    7  A    between atoms: S2_25  and  N8_26
REMARK    8  A    between atoms: C9_32  and  N9_33
REMARK    9  A    between atoms: C10_35  and  C11_36
ROOT
HETATM    1  N2  UNL     1      -0.927   3.722  83.652  1.00  0.00    -0.212 N
HETATM    2  N3  UNL     1      -2.089   4.281  83.948  1.00  0.00    -0.012 NA
HETATM    3  N4  UNL     1      -2.046   5.597  83.733  1.00  0.00    -0.275 N
ATOM      4  H4  UNL     1      -2.817   6.248  83.885  1.00  0.00     0.184 HD
HETATM    5  C5  UNL     1      -0.823   5.926  83.283  1.00  0.00     0.160 A
HETATM    6  C9  UNL     1      -0.128   4.736  83.237  1.00  0.00     0.160 A
ENDROOT
BRANCH   5   7
HETATM    7  C6  UNL     1      -0.305   7.237  82.913  1.00  0.00     0.279 C
HETATM    8  O1  UNL     1       0.864   7.558  83.239  1.00  0.00    -0.265 OA
HETATM    9  N5  UNL     1      -1.094   8.160  82.193  1.00  0.00    -0.300 N
HETATM   10  C7  UNL     1      -1.008   8.101  80.884  1.00  0.00     0.169 A
ATOM     11  H5  UNL     1      -1.697   8.834  82.663  1.00  0.00     0.171 HD
HETATM   12  N6  UNL     1      -0.278   7.293  80.114  1.00  0.00    -0.278 N
HETATM   13  S3  UNL     1      -1.816   9.061  79.700  1.00  0.00    -0.020 SA
HETATM   14  N7  UNL     1      -0.351   7.416  78.854  1.00  0.00    -0.281 N
ATOM     15  H6  UNL     1       0.329   6.587  80.531  1.00  0.00     0.189 HD
HETATM   16  C8  UNL     1      -1.139   8.331  78.315  1.00  0.00     0.208 A
ATOM     17  H7  UNL     1       0.201   6.805  78.252  1.00  0.00     0.188 HD
BRANCH  16  18
HETATM   18  S2  UNL     1      -1.371   8.649  76.588  1.00  0.00     0.280 S
HETATM   19  O2  UNL     1      -1.034  10.066  76.263  1.00  0.00    -0.199 OA
HETATM   20  O3  UNL     1      -2.820   8.394  76.297  1.00  0.00    -0.199 OA
BRANCH  18  21
HETATM   21  N8  UNL     1      -0.357   7.528  75.747  1.00  0.00    -0.323 N
ATOM     22  H82 UNL     1       0.659   7.579  75.668  1.00  0.00     0.169 HD
ATOM     23  H81 UNL     1      -0.977   6.820  75.355  1.00  0.00     0.169 HD
ENDBRANCH  18  21
ENDBRANCH  16  18
ENDBRANCH   5   7
BRANCH   6  24
HETATM   24  N9  UNL     1       1.204   4.536  82.831  1.00  0.00    -0.346 N
HETATM   25  C10 UNL     1       1.592   4.585  81.600  1.00  0.00     0.134 C
ATOM     26  H9  UNL     1       1.903   4.342  83.548  1.00  0.00     0.167 HD
BRANCH  25  27
HETATM   27  C11 UNL     1       2.999   4.363  81.284  1.00  0.00     0.125 C
HETATM   28  N10 UNL     1       3.765   3.700  82.076  1.00  0.00    -0.387 N
ATOM     29 2H10 UNL     1       3.359   3.333  82.937  1.00  0.00     0.157 HD
ATOM     30 1H10 UNL     1       4.748   3.544  81.855  1.00  0.00     0.157 HD
HETATM   31  N11 UNL     1       3.563   4.874  80.083  1.00  0.00    -0.082 NA
ENDBRANCH  25  27
ENDBRANCH   6  24
BRANCH   1  32
HETATM   32  C4  UNL     1      -0.591   2.341  83.754  1.00  0.00     0.131 C
HETATM   33  S1  UNL     1      -0.079   1.484  82.463  1.00  0.00    -0.061 SA
BRANCH  32  34
HETATM   34  C3  UNL     1      -0.702   1.636  85.057  1.00  0.00     0.245 C
BRANCH  34  35
HETATM   35  C2  UNL     1      -0.480   2.591  86.219  1.00  0.00     0.035 C
HETATM   36  C1  UNL     1      -1.632   2.490  87.190  1.00  0.00     0.007 C
ENDBRANCH  34  35
BRANCH  34  37
HETATM   37  N1  UNL     1       0.132   0.472  85.122  1.00  0.00    -0.069 N
ATOM     38  H13 UNL     1       0.823   0.477  84.372  1.00  0.00     0.275 HD
ATOM     39  H12 UNL     1       0.758   0.516  85.926  1.00  0.00     0.275 HD
ATOM     40  H11 UNL     1      -0.399  -0.399  85.121  1.00  0.00     0.275 HD
ENDBRANCH  34  37
ENDBRANCH  32  34
ENDBRANCH   1  32
TORSDOF 9
ENDMDL