MODEL 4
REMARK VINA RESULT: -7.217482592      0.880      1.057
REMARK  11 active torsions:
REMARK  status: ('A' for Active; 'I' for Inactive)
REMARK    1  A    between atoms: C2_2  and  N1_3
REMARK    2  A    between atoms: C2_2  and  C14_36
REMARK    3  A    between atoms: N1_3  and  C3_5
REMARK    4  A    between atoms: C8_12  and  S1_13
REMARK    5  A    between atoms: S1_13  and  C9_14
REMARK    6  A    between atoms: C11_16  and  N3_17
REMARK       I    between atoms: N3_17  and  C12_19
REMARK    7  A    between atoms: C12_19  and  C13_21
REMARK       I    between atoms: C13_21  and  N4_23
REMARK    8  A    between atoms: N4_23  and  N5_25
REMARK    9  A    between atoms: N6_28  and  O4_29
REMARK   10  A    between atoms: C14_36  and  O5_37
REMARK   11  A    between atoms: C14_36  and  O6_39
ROOT
HETATM    1  C3  UNL     1      -0.567   4.088  83.981  1.00  0.00     0.096 A
HETATM    2  C4  UNL     1       0.098   3.628  82.955  1.00  0.00     0.129 A
HETATM    3  C5  UNL     1      -0.199   2.295  82.416  1.00  0.00     0.106 C
HETATM    4  N2  UNL     1      -0.453   1.226  81.998  1.00  0.00    -0.191 NA
HETATM    5  C6  UNL     1       1.104   4.456  82.392  1.00  0.00     0.212 A
HETATM    6  O1  UNL     1       1.846   4.148  81.379  1.00  0.00    -0.285 OA
HETATM    7  C7  UNL     1       1.285   5.753  83.034  1.00  0.00     0.065 A
HETATM    8  C8  UNL     1       2.134   6.720  82.732  1.00  0.00     0.074 C
HETATM    9  S2  UNL     1       0.066   5.715  84.343  1.00  0.00    -0.067 SA
ENDROOT
BRANCH   1  10
HETATM   10  N1  UNL     1      -1.606   3.463  84.714  1.00  0.00    -0.374 N
ATOM     11  H1  UNL     1      -2.541   3.458  84.305  1.00  0.00     0.160 HD
BRANCH  10  12
HETATM   12  C2  UNL     1      -1.430   2.844  85.982  1.00  0.00     0.133 C
HETATM   13  C1  UNL     1      -2.676   2.829  86.833  1.00  0.00     0.037 C
BRANCH  12  14
HETATM   14  C14 UNL     1      -0.984   1.410  85.795  1.00  0.00     0.276 C
BRANCH  14  15
HETATM   15  O5  UNL     1      -1.635   0.553  86.691  1.00  0.00    -0.369 OA
ATOM     16  H5  UNL     1      -2.471   0.910  86.966  1.00  0.00     0.212 HD
ENDBRANCH  14  15
BRANCH  14  17
HETATM   17  O6  UNL     1       0.408   1.293  85.995  1.00  0.00    -0.369 OA
ATOM     18  H6  UNL     1       0.710   0.429  85.742  1.00  0.00     0.212 HD
ENDBRANCH  14  17
ENDBRANCH  12  14
ENDBRANCH  10  12
ENDBRANCH   1  10
BRANCH   8  19
HETATM   19  S1  UNL     1       2.145   8.214  83.688  1.00  0.00    -0.081 SA
BRANCH  19  20
HETATM   20  C9  UNL     1       1.326   9.481  82.730  1.00  0.00     0.093 A
HETATM   21  C10 UNL     1       0.905   9.167  81.459  1.00  0.00     0.091 A
HETATM   22  C11 UNL     1       0.274  10.112  80.697  1.00  0.00     0.159 A
HETATM   23  N6  UNL     1       0.067  11.355  81.200  1.00  0.00    -0.132 N
HETATM   24  N7  UNL     1       0.481  11.627  82.420  1.00  0.00    -0.214 N
HETATM   25  N8  UNL     1       1.102  10.722  83.190  1.00  0.00    -0.278 N
ATOM     26  H7  UNL     1       0.323  12.563  82.794  1.00  0.00     0.211 HD
ATOM     27  H8  UNL     1       1.405  10.977  84.129  1.00  0.00     0.189 HD
BRANCH  22  28
HETATM   28  N3  UNL     1      -0.127   9.841  79.505  1.00  0.00    -0.302 N
HETATM   29  C12 UNL     1      -1.397   9.234  79.343  1.00  0.00     0.316 C
HETATM   30  O2  UNL     1      -2.413   9.934  79.115  1.00  0.00    -0.262 OA
ATOM     31  H3  UNL     1       0.456  10.058  78.697  1.00  0.00     0.171 HD
BRANCH  29  32
HETATM   32  C13 UNL     1      -1.483   7.775  79.447  1.00  0.00     0.327 C
HETATM   33  O3  UNL     1      -2.549   7.186  79.719  1.00  0.00    -0.261 OA
HETATM   34  N4  UNL     1      -0.308   7.016  79.229  1.00  0.00    -0.268 N
ATOM     35  H4  UNL     1       0.569   7.486  79.006  1.00  0.00     0.190 HD
BRANCH  34  36
HETATM   36  N5  UNL     1      -0.352   5.633  79.318  1.00  0.00    -0.342 N
ATOM     37  H52 UNL     1      -1.000   5.118  78.721  1.00  0.00     0.176 HD
ATOM     38  H51 UNL     1       0.258   5.146  79.974  1.00  0.00     0.176 HD
ENDBRANCH  34  36
ENDBRANCH  29  32
ENDBRANCH  22  28
BRANCH  23  39
HETATM   39  O4  UNL     1      -0.573  12.293  80.407  1.00  0.00    -0.265 OA
ATOM     40  H4  UNL     1      -0.215  13.171  80.362  1.00  0.00     0.247 HD
ENDBRANCH  23  39
ENDBRANCH  19  20
ENDBRANCH   8  19
TORSDOF 11
ENDMDL