MODEL 1
REMARK VINA RESULT: -6.473214264      0.000      0.000
REMARK  8 active torsions:
REMARK  status: ('A' for Active; 'I' for Inactive)
REMARK    1  A    between atoms: C2_2  and  S1_3
REMARK    2  A    between atoms: S1_3  and  N1_5
REMARK    3  A    between atoms: S1_3  and  C3_10
REMARK    4  A    between atoms: N1_5  and  N2_7
REMARK    5  A    between atoms: C4_13  and  N4_14
REMARK    6  A    between atoms: C5_16  and  C6_17
REMARK    7  A    between atoms: C10_25  and  N7_26
REMARK    8  A    between atoms: C11_31  and  N9_32
ROOT
HETATM    1  C3  UNL     1       3.007   5.542  81.955  1.00  0.00     0.188 A
HETATM    2  N3  UNL     1       2.011   4.920  82.566  1.00  0.00    -0.319 N
ATOM      3  H3  UNL     1       1.952   3.912  82.426  1.00  0.00     0.169 HD
HETATM    4  C4  UNL     1       1.069   5.471  83.349  1.00  0.00     0.125 A
HETATM    5  C9  UNL     1       1.199   6.869  83.505  1.00  0.00     0.097 A
HETATM    6  C10 UNL     1       0.301   7.583  84.286  1.00  0.00     0.132 A
HETATM    7  N8  UNL     1       0.422   8.924  84.440  1.00  0.00    -0.176 N
ATOM      8  H8  UNL     1      -0.247   9.431  85.019  1.00  0.00     0.186 HD
HETATM    9  C11 UNL     1       1.413   9.582  83.840  1.00  0.00     0.683 A
HETATM   10  N11 UNL     1       2.288   8.883  83.078  1.00  0.00    -0.175 N
ATOM     11  H11 UNL     1       3.045   9.392  82.621  1.00  0.00     0.186 HD
HETATM   12  C16 UNL     1       2.212   7.548  82.891  1.00  0.00     0.142 A
HETATM   13  N12 UNL     1       3.107   6.887  82.124  1.00  0.00    -0.314 N
HETATM   14  C17 UNL     1       4.150   7.644  81.502  1.00  0.00     0.160 C
ENDROOT
BRANCH   4  15
HETATM   15  N4  UNL     1       0.130   4.919  83.933  1.00  0.00    -0.348 N
HETATM   16  C5  UNL     1      -0.559   3.766  84.156  1.00  0.00     0.137 C
ATOM     17  H4  UNL     1      -0.328   5.641  84.490  1.00  0.00     0.167 HD
BRANCH  16  18
HETATM   18  C6  UNL     1      -0.455   2.629  83.225  1.00  0.00     0.112 A
HETATM   19  N5  UNL     1      -0.028   1.437  83.404  1.00  0.00    -0.374 N
HETATM   20  C7  UNL     1      -0.104   0.636  82.200  1.00  0.00     0.141 A
ATOM     21  H5  UNL     1       0.326   1.089  84.296  1.00  0.00     0.161 HD
HETATM   22  C8  UNL     1      -0.702   1.547  81.145  1.00  0.00     0.141 A
HETATM   23  N6  UNL     1      -0.869   2.781  81.845  1.00  0.00    -0.374 N
ATOM     24  H6  UNL     1      -1.227   3.643  81.434  1.00  0.00     0.161 HD
ENDBRANCH  16  18
ENDBRANCH   4  15
BRANCH   1  25
HETATM   25  S1  UNL     1       4.185   4.754  80.950  1.00  0.00     0.101 S
HETATM   26  O1  UNL     1       4.107   3.257  81.065  1.00  0.00    -0.240 OA
BRANCH  25  27
HETATM   27  C2  UNL     1       4.057   5.294  79.253  1.00  0.00     0.122 C
HETATM   28  C1  UNL     1       2.584   5.507  78.940  1.00  0.00     0.020 C
ENDBRANCH  25  27
BRANCH  25  29
HETATM   29  N1  UNL     1       5.658   5.135  81.410  1.00  0.00    -0.260 N
ATOM     30  H1  UNL     1       5.886   5.347  82.382  1.00  0.00     0.196 HD
BRANCH  29  31
HETATM   31  N2  UNL     1       6.617   5.162  80.403  1.00  0.00    -0.338 N
ATOM     32  H22 UNL     1       7.614   5.184  80.622  1.00  0.00     0.177 HD
ATOM     33  H21 UNL     1       6.258   5.159  79.448  1.00  0.00     0.177 HD
ENDBRANCH  29  31
ENDBRANCH  25  29
ENDBRANCH   1  25
BRANCH   6  34
HETATM   34  N7  UNL     1      -0.652   6.939  84.861  1.00  0.00    -0.384 N
ATOM     35  H72 UNL     1      -0.695   5.920  84.813  1.00  0.00     0.157 HD
ATOM     36  H71 UNL     1      -1.361   7.473  85.364  1.00  0.00     0.157 HD
ENDBRANCH   6  34
BRANCH   9  37
HETATM   37  N9  UNL     1       1.566  10.984  83.991  1.00  0.00    -0.214 N
HETATM   38  C12 UNL     1       2.878  11.572  84.316  1.00  0.00     0.160 C
HETATM   39  C13 UNL     1       2.855  12.927  83.585  1.00  0.00     0.134 C
HETATM   40  N10 UNL     1       2.099  12.883  82.373  1.00  0.00    -0.418 N
HETATM   41  C14 UNL     1       0.701  12.629  82.517  1.00  0.00     0.134 C
ATOM     42  H10 UNL     1       2.532  13.024  81.460  1.00  0.00     0.153 HD
HETATM   43  C15 UNL     1       0.497  11.914  83.847  1.00  0.00     0.160 C
ENDBRANCH   9  37
TORSDOF 8
ENDMDL