MODEL 1
REMARK VINA RESULT: -7.035040820      0.000      0.000
REMARK  6 active torsions:
REMARK  status: ('A' for Active; 'I' for Inactive)
REMARK    1  A    between atoms: C6_9  and  S1_10
REMARK    2  A    between atoms: S1_10  and  N3_13
REMARK    3  A    between atoms: N3_13  and  N4_15
REMARK       I    between atoms: N4_15  and  C7_17
REMARK       I    between atoms: C7_17  and  N5_19
REMARK    4  A    between atoms: N5_19  and  C8_21
REMARK    5  A    between atoms: C8_21  and  C9_22
REMARK    6  A    between atoms: C11_30  and  N9_31
ROOT
HETATM    1  N4  UNL     1      -1.326   8.458  83.471  1.00  0.00    -0.244 N
ATOM      2  H4  UNL     1      -2.307   8.496  83.198  1.00  0.00     0.192 HD
HETATM    3  C7  UNL     1      -0.879   7.318  84.175  1.00  0.00     0.335 C
HETATM    4  O2  UNL     1       0.338   7.306  84.498  1.00  0.00    -0.246 OA
HETATM    5  N5  UNL     1      -1.750   6.245  84.503  1.00  0.00    -0.335 N
ATOM      6  H5  UNL     1      -2.727   6.315  84.215  1.00  0.00     0.164 HD
ENDROOT
BRANCH   5   7
HETATM    7  C8  UNL     1      -1.336   5.062  85.219  1.00  0.00     0.203 C
BRANCH   7   8
HETATM    8  C9  UNL     1      -1.047   3.906  84.342  1.00  0.00     0.133 A
HETATM    9  N6  UNL     1      -1.233   3.949  83.006  1.00  0.00    -0.262 N
HETATM   10  N7  UNL     1      -0.893   2.794  82.479  1.00  0.00    -0.029 N
ATOM     11  H6  UNL     1      -1.582   4.753  82.486  1.00  0.00     0.189 HD
HETATM   12  C10 UNL     1      -0.913   2.383  81.197  1.00  0.00     0.374 A
HETATM   13  C12 UNL     1      -0.485   1.998  83.475  1.00  0.00     0.725 A
HETATM   14  O3  UNL     1      -1.301   3.161  80.304  1.00  0.00    -0.244 OA
HETATM   15  N8  UNL     1      -0.510   1.133  80.903  1.00  0.00    -0.139 N
HETATM   16  C11 UNL     1      -0.096   0.314  81.885  1.00  0.00     0.694 A
ATOM     17  H8  UNL     1      -0.520   0.808  79.936  1.00  0.00     0.189 HD
HETATM   18  N10 UNL     1      -0.086   0.753  83.169  1.00  0.00    -0.020 N
ATOM     19  H10 UNL     1       0.228   0.128  83.912  1.00  0.00     0.203 HD
HETATM   20  N11 UNL     1      -0.580   2.687  84.636  1.00  0.00    -0.171 N
HETATM   21  C13 UNL     1      -0.247   2.236  85.968  1.00  0.00     0.177 C
BRANCH  16  22
HETATM   22  N9  UNL     1       0.283  -0.878  81.571  1.00  0.00    -0.234 N
ATOM     23  H92 UNL     1       0.282  -1.206  80.604  1.00  0.00     0.174 HD
ATOM     24  H91 UNL     1       0.591  -1.502  82.317  1.00  0.00     0.174 HD
ENDBRANCH  16  22
ENDBRANCH   7   8
ENDBRANCH   5   7
BRANCH   1  25
HETATM   25  N3  UNL     1      -0.514   9.531  83.129  1.00  0.00    -0.243 N
ATOM     26  H3  UNL     1      -0.042  10.125  83.810  1.00  0.00     0.198 HD
BRANCH  25  27
HETATM   27  S1  UNL     1      -0.393   9.747  81.425  1.00  0.00     0.140 S
HETATM   28  O1  UNL     1      -1.627  10.476  80.978  1.00  0.00    -0.231 OA
HETATM   29  S2  UNL     1       0.943  10.706  80.992  1.00  0.00     0.036 SA
BRANCH  27  30
HETATM   30  C6  UNL     1      -0.301   8.173  80.678  1.00  0.00     0.098 A
HETATM   31  C2  UNL     1      -1.265   7.512  79.955  1.00  0.00     0.045 A
HETATM   32  C1  UNL     1      -2.621   7.988  79.633  1.00  0.00     0.071 C
HETATM   33  N1  UNL     1      -0.744   6.324  79.579  1.00  0.00    -0.302 N
HETATM   34  N2  UNL     1       0.491   6.200  80.023  1.00  0.00    -0.299 N
ATOM     35  H1  UNL     1      -1.237   5.622  79.028  1.00  0.00     0.186 HD
HETATM   36  C3  UNL     1       1.411   5.099  79.854  1.00  0.00     0.177 C
HETATM   37  C4  UNL     1       0.792   7.328  80.706  1.00  0.00     0.047 A
HETATM   38  C5  UNL     1       2.071   7.613  81.369  1.00  0.00     0.071 C
ENDBRANCH  27  30
ENDBRANCH  25  27
ENDBRANCH   1  25
TORSDOF 6
ENDMDL