MODEL 1
REMARK VINA RESULT: -7.169398052      0.000      0.000
REMARK  9 active torsions:
REMARK  status: ('A' for Active; 'I' for Inactive)
REMARK    1  A    between atoms: C3_3  and  N1_4
REMARK    2  A    between atoms: C7_10  and  C8_11
REMARK    3  A    between atoms: N3_15  and  N4_16
REMARK    4  A    between atoms: N4_16  and  C11_18
REMARK    5  A    between atoms: C13_23  and  C14_24
REMARK       I    between atoms: C14_24  and  N6_26
REMARK    6  A    between atoms: N6_26  and  N7_28
REMARK    7  A    between atoms: C15_31  and  O4_32
REMARK    8  A    between atoms: C16_34  and  N8_35
REMARK    9  A    between atoms: C18_41  and  O6_42
ROOT
HETATM    1  N4  UNL     1      -0.045   4.916  80.609  1.00  0.00    -0.274 N
ATOM      2  H4  UNL     1      -0.883   5.223  80.116  1.00  0.00     0.189 HD
ENDROOT
BRANCH   1   3
HETATM    3  N3  UNL     1       1.238   5.220  80.091  1.00  0.00    -0.180 N
HETATM    4  C10 UNL     1       2.456   5.733  80.578  1.00  0.00     0.285 A
HETATM    5  C9  UNL     1       3.083   5.634  79.251  1.00  0.00     0.105 A
HETATM    6  O1  UNL     1       2.879   6.133  81.707  1.00  0.00    -0.265 OA
HETATM    7  C8  UNL     1       4.299   5.905  78.793  1.00  0.00     0.038 C
HETATM    8  C17 UNL     1       1.812   5.109  78.791  1.00  0.00     0.285 A
HETATM    9  O5  UNL     1       1.341   4.694  77.671  1.00  0.00    -0.265 OA
BRANCH   7  10
HETATM   10  C7  UNL     1       4.662   5.717  77.410  1.00  0.00     0.014 A
HETATM   11  C6  UNL     1       4.204   6.597  76.461  1.00  0.00     0.104 A
HETATM   12  N2  UNL     1       4.542   6.383  75.172  1.00  0.00    -0.351 N
HETATM   13  C3  UNL     1       5.313   5.335  74.789  1.00  0.00     0.111 A
ATOM     14  H2  UNL     1       4.205   7.032  74.460  1.00  0.00     0.166 HD
HETATM   15  C2  UNL     1       5.771   4.457  75.729  1.00  0.00     0.016 A
HETATM   16  C1  UNL     1       6.617   3.325  75.259  1.00  0.00     0.055 C
HETATM   17  C18 UNL     1       5.458   4.627  77.050  1.00  0.00     0.086 A
BRANCH  13  18
HETATM   18  N1  UNL     1       5.575   5.243  73.407  1.00  0.00    -0.376 N
HETATM   19  C4  UNL     1       6.601   6.051  72.815  1.00  0.00     0.150 C
HETATM   20  C5  UNL     1       4.810   4.339  72.596  1.00  0.00     0.150 C
ENDBRANCH  13  18
BRANCH  17  21
HETATM   21  O6  UNL     1       5.922   3.738  78.005  1.00  0.00    -0.359 OA
ATOM     22  H6  UNL     1       5.349   3.069  78.363  1.00  0.00     0.217 HD
ENDBRANCH  17  21
ENDBRANCH   7  10
ENDBRANCH   1   3
BRANCH   1  23
HETATM   23  C11 UNL     1      -0.160   4.168  81.841  1.00  0.00     0.137 A
HETATM   24  N5  UNL     1      -0.267   2.896  81.750  1.00  0.00    -0.309 N
HETATM   25  C12 UNL     1      -0.387   2.024  82.870  1.00  0.00     0.265 A
ATOM     26  H5  UNL     1      -0.264   2.481  80.818  1.00  0.00     0.170 HD
HETATM   27  O2  UNL     1      -0.488   0.789  82.722  1.00  0.00    -0.267 OA
HETATM   28  C13 UNL     1      -0.392   2.595  84.208  1.00  0.00     0.133 A
HETATM   29  C15 UNL     1      -0.281   3.916  84.284  1.00  0.00     0.102 A
HETATM   30  C16 UNL     1      -0.156   4.833  83.144  1.00  0.00     0.309 A
BRANCH  28  31
HETATM   31  C14 UNL     1      -0.509   1.827  85.429  1.00  0.00     0.277 C
HETATM   32  O3  UNL     1       0.579   1.342  85.930  1.00  0.00    -0.266 OA
HETATM   33  N6  UNL     1      -1.667   1.528  86.159  1.00  0.00    -0.272 N
ATOM     34  H6  UNL     1      -2.564   1.877  85.823  1.00  0.00     0.189 HD
BRANCH  33  35
HETATM   35  N7  UNL     1      -1.636   0.758  87.349  1.00  0.00    -0.342 N
ATOM     36  H72 UNL     1      -2.380   0.907  88.031  1.00  0.00     0.176 HD
ATOM     37  H71 UNL     1      -0.905   0.072  87.537  1.00  0.00     0.176 HD
ENDBRANCH  33  35
ENDBRANCH  28  31
BRANCH  29  38
HETATM   38  O4  UNL     1      -0.286   4.475  85.578  1.00  0.00    -0.361 OA
ATOM     39  H4  UNL     1      -0.900   4.103  86.200  1.00  0.00     0.217 HD
ENDBRANCH  29  38
BRANCH  30  40
HETATM   40  N8  UNL     1      -1.252   5.792  83.268  1.00  0.00    -0.062 N
ATOM     41  H83 UNL     1      -0.910   6.711  83.548  1.00  0.00     0.275 HD
ATOM     42  H82 UNL     1      -1.637   6.035  82.355  1.00  0.00     0.275 HD
ATOM     43  H81 UNL     1      -1.979   5.457  83.901  1.00  0.00     0.275 HD
ENDBRANCH  30  40
ENDBRANCH   1  23
TORSDOF 9
ENDMDL