MODEL 4
REMARK VINA RESULT: -5.231656876      2.627      4.859
REMARK  1 active torsions:
REMARK  status: ('A' for Active; 'I' for Inactive)
REMARK    1  A    between atoms: N1_1  and  N2_4
REMARK       I    between atoms: N2_4  and  C1_6
REMARK       I    between atoms: C1_6  and  N3_8
ROOT
HETATM    1  N2  UNL     1      -0.419   3.175  81.706  1.00  0.00    -0.258 N
ATOM      2  H2  UNL     1      -0.385   2.185  81.949  1.00  0.00     0.191 HD
HETATM    3  C1  UNL     1      -0.662   4.132  82.715  1.00  0.00     0.336 C
HETATM    4  O1  UNL     1      -0.691   5.360  82.341  1.00  0.00    -0.245 OA
HETATM    5  N3  UNL     1      -0.863   3.777  84.068  1.00  0.00    -0.330 N
HETATM    6  C2  UNL     1      -1.114   4.674  85.158  1.00  0.00     0.131 C
HETATM    7  C3  UNL     1      -2.259   3.947  85.851  1.00  0.00     0.059 C
HETATM    8  C4  UNL     1      -1.732   2.532  85.825  1.00  0.00     0.078 C
HETATM    9  C5  UNL     1      -0.933   2.229  87.073  1.00  0.00     0.042 C
HETATM   10  C6  UNL     1      -2.003   1.724  88.008  1.00  0.00     0.029 C
HETATM   11  C7  UNL     1      -3.231   1.615  87.115  1.00  0.00     0.169 C
HETATM   12  O2  UNL     1      -2.743   1.585  85.808  1.00  0.00    -0.378 OA
HETATM   13  C8  UNL     1      -0.852   2.445  84.595  1.00  0.00     0.165 C
ENDROOT
BRANCH   1  14
HETATM   14  N1  UNL     1      -0.227   3.561  80.393  1.00  0.00    -0.341 N
ATOM     15  H12 UNL     1      -1.042   3.644  79.786  1.00  0.00     0.177 HD
ATOM     16  H11 UNL     1       0.708   3.760  80.037  1.00  0.00     0.177 HD
ENDBRANCH   1  14
TORSDOF 1
ENDMDL