MODEL 5
REMARK VINA RESULT: -4.846356766      1.925      3.108
REMARK  1 active torsions:
REMARK  status: ('A' for Active; 'I' for Inactive)
REMARK    1  A    between atoms: N2_4  and  N3_6
ROOT
HETATM    1  N3  UNL     1      -0.673   3.322  84.180  1.00  0.00    -0.326 N
HETATM    2  C3  UNL     1      -1.815   3.251  85.089  1.00  0.00     0.142 C
HETATM    3  C4  UNL     1      -2.201   4.647  85.492  1.00  0.00     0.022 C
HETATM    4  C5  UNL     1      -1.872   5.563  84.310  1.00  0.00     0.016 C
HETATM    5  C6  UNL     1      -0.366   5.681  84.271  1.00  0.00     0.025 C
HETATM    6  C7  UNL     1       0.192   6.534  83.181  1.00  0.00     0.245 C
HETATM    7  N4  UNL     1      -0.024   7.695  84.042  1.00  0.00    -0.073 N
ATOM      8  H41 UNL     1      -0.845   8.290  83.931  1.00  0.00     0.277 HD
ATOM      9  H42 UNL     1       0.559   8.527  83.963  1.00  0.00     0.277 HD
HETATM   10  C8  UNL     1       0.102   6.789  85.179  1.00  0.00     0.245 C
HETATM   11  C9  UNL     1       0.317   4.362  84.455  1.00  0.00     0.155 C
ENDROOT
BRANCH   1  12
HETATM   12  N2  UNL     1      -0.575   2.430  83.128  1.00  0.00    -0.294 N
HETATM   13  C2  UNL     1      -0.419   1.172  83.341  1.00  0.00     0.103 C
HETATM   14  C1  UNL     1      -0.314   0.222  82.207  1.00  0.00     0.086 C
HETATM   15  N1  UNL     1      -0.346   0.685  84.670  1.00  0.00    -0.087 NA
ATOM     16  H2  UNL     1      -0.626   2.775  82.170  1.00  0.00     0.187 HD
ENDBRANCH   1  12
TORSDOF 1
ENDMDL