MODEL 4
REMARK VINA RESULT: -5.565071658      1.320      2.329
REMARK  2 active torsions:
REMARK  status: ('A' for Active; 'I' for Inactive)
REMARK    1  A    between atoms: N2_7  and  C6_8
REMARK    2  A    between atoms: C6_8  and  O1_12
ROOT
HETATM    1  C1  UNL     1       0.491   8.096  83.754  1.00  0.00     0.148 C
HETATM    2  N1  UNL     1       0.066   7.031  84.583  1.00  0.00    -0.397 N
HETATM    3  C2  UNL     1      -1.036   7.265  85.423  1.00  0.00     0.058 C
HETATM    4  C3  UNL     1      -2.157   6.291  85.340  1.00  0.00     0.051 C
HETATM    5  C4  UNL     1      -1.742   4.866  85.195  1.00  0.00     0.014 C
HETATM    6  C5  UNL     1      -2.284   3.962  86.275  1.00  0.00     0.131 C
HETATM    7  N2  UNL     1      -1.810   2.622  85.984  1.00  0.00    -0.347 N
HETATM    8  C7  UNL     1      -0.932   2.439  84.849  1.00  0.00     0.127 C
HETATM    9  C8  UNL     1       0.261   3.372  84.936  1.00  0.00     0.026 C
HETATM   10  C9  UNL     1      -0.248   4.758  85.152  1.00  0.00     0.011 C
HETATM   11  C10 UNL     1       0.209   5.723  84.052  1.00  0.00     0.126 C
ENDROOT
BRANCH   7  12
HETATM   12  C6  UNL     1      -2.206   1.527  86.798  1.00  0.00     0.212 C
HETATM   13  N3  UNL     1      -3.461   1.365  87.047  1.00  0.00    -0.365 N
ATOM     14  H32 UNL     1      -4.119   2.034  86.648  1.00  0.00     0.159 HD
ATOM     15  H31 UNL     1      -3.744   0.579  87.631  1.00  0.00     0.159 HD
BRANCH  12  16
HETATM   16  O1  UNL     1      -1.319   0.626  87.337  1.00  0.00    -0.333 OA
ATOM     17  H1  UNL     1      -0.463   0.447  86.964  1.00  0.00     0.220 HD
ENDBRANCH  12  16
ENDBRANCH   7  12
TORSDOF 2
ENDMDL