MODEL 1
REMARK VINA RESULT: -5.473249371      0.000      0.000
REMARK  1 active torsions:
REMARK  status: ('A' for Active; 'I' for Inactive)
REMARK    1  A    between atoms: C8_10  and  C9_11
ROOT
HETATM    1  C1  UNL     1      -1.232   2.813  82.894  1.00  0.00     0.314 C
HETATM    2  N1  UNL     1      -0.524   2.758  84.154  1.00  0.00     0.120 N
HETATM    3  C2  UNL     1       0.641   3.614  84.159  1.00  0.00     0.276 C
HETATM    4  C3  UNL     1       0.356   4.786  85.035  1.00  0.00     0.035 C
HETATM    5  C4  UNL     1      -1.118   4.656  85.420  1.00  0.00     0.074 C
HETATM    6  C5  UNL     1      -1.290   3.149  85.272  1.00  0.00     0.270 C
HETATM    7  O1  UNL     1      -2.617   2.788  85.282  1.00  0.00    -0.352 OA
HETATM    8  C6  UNL     1      -3.006   3.195  86.577  1.00  0.00     0.172 C
HETATM    9  C7  UNL     1      -1.865   2.894  87.503  1.00  0.00     0.043 C
HETATM   10  C8  UNL     1      -0.784   2.447  86.512  1.00  0.00     0.118 C
ENDROOT
BRANCH  10  11
HETATM   11  C9  UNL     1      -0.866   0.981  86.284  1.00  0.00     0.095 C
HETATM   12  N2  UNL     1      -0.126   0.432  85.398  1.00  0.00    -0.391 N
ATOM     13  H22 UNL     1       0.508   1.030  84.867  1.00  0.00     0.157 HD
ATOM     14  H21 UNL     1      -0.181  -0.575  85.242  1.00  0.00     0.157 HD
HETATM   15  N3  UNL     1      -1.750   0.147  87.024  1.00  0.00    -0.087 NA
ENDBRANCH  10  11
TORSDOF 1
ENDMDL