MODEL 1
REMARK VINA RESULT: -5.654837823      0.000      0.000
REMARK  2 active torsions:
REMARK  status: ('A' for Active; 'I' for Inactive)
REMARK       I    between atoms: C2_2  and  N1_4
REMARK    1  A    between atoms: N1_4  and  C3_6
REMARK    2  A    between atoms: C3_6  and  N2_7
ROOT
HETATM    1  C3  UNL     1      -0.890   3.036  85.302  1.00  0.00     0.273 C
HETATM    2  C4  UNL     1      -1.723   4.199  85.760  1.00  0.00     0.087 C
HETATM    3  C5  UNL     1      -2.799   3.675  86.622  1.00  0.00     0.036 C
HETATM    4  C6  UNL     1      -2.361   2.261  86.934  1.00  0.00     0.024 C
HETATM    5  C7  UNL     1      -3.576   1.329  86.988  1.00  0.00     0.038 C
HETATM    6  C8  UNL     1      -1.730   2.292  88.314  1.00  0.00     0.038 C
HETATM    7  N3  UNL     1      -1.463   1.935  85.922  1.00  0.00    -0.361 N
HETATM    8  C9  UNL     1      -0.831   0.693  85.901  1.00  0.00     0.148 C
ENDROOT
BRANCH   1   9
HETATM    9  N1  UNL     1      -0.781   2.965  83.860  1.00  0.00    -0.312 N
HETATM   10  C2  UNL     1      -0.158   3.981  83.084  1.00  0.00     0.216 C
HETATM   11  C1  UNL     1      -0.027   3.942  81.615  1.00  0.00     0.117 C
HETATM   12  O1  UNL     1       0.309   4.970  83.699  1.00  0.00    -0.274 OA
ATOM     13  H1  UNL     1      -1.168   2.153  83.380  1.00  0.00     0.166 HD
ENDBRANCH   1   9
BRANCH   1  14
HETATM   14  N2  UNL     1       0.494   3.146  85.808  1.00  0.00    -0.034 N
ATOM     15  H23 UNL     1       0.831   2.296  86.259  1.00  0.00     0.279 HD
ATOM     16  H22 UNL     1       1.196   3.179  85.069  1.00  0.00     0.279 HD
ATOM     17  H21 UNL     1       0.504   3.963  86.418  1.00  0.00     0.279 HD
ENDBRANCH   1  14
TORSDOF 2
ENDMDL