MODEL 5
REMARK VINA RESULT: -3.869551869      2.161      3.235
REMARK  1 active torsions:
REMARK  status: ('A' for Active; 'I' for Inactive)
REMARK    1  A    between atoms: N1_1  and  C1_5
ROOT
HETATM    1  C1  UNL     1      -0.245   3.350  83.045  1.00  0.00     0.143 A
HETATM    2  C2  UNL     1      -0.782   3.058  84.357  1.00  0.00     0.042 C
HETATM    3  C3  UNL     1      -0.745   3.990  85.479  1.00  0.00     0.033 C
HETATM    4  C4  UNL     1      -1.554   5.212  85.117  1.00  0.00     0.273 C
HETATM    5  N2  UNL     1      -1.136   6.059  84.201  1.00  0.00     0.103 N
HETATM    6  C5  UNL     1      -0.093   6.773  83.692  1.00  0.00     0.266 A
HETATM    7  C6  UNL     1       1.332   6.611  84.091  1.00  0.00     0.112 C
HETATM    8  S1  UNL     1       1.948   4.943  84.033  1.00  0.00    -0.159 SA
HETATM    9  C7  UNL     1       1.037   4.054  82.781  1.00  0.00     0.092 A
HETATM   10  C8  UNL     1      -0.260   4.601  82.380  1.00  0.00     0.074 A
HETATM   11  C9  UNL     1      -0.782   5.839  82.892  1.00  0.00     0.265 A
ENDROOT
BRANCH   1  12
HETATM   12  N1  UNL     1      -0.406   2.120  82.215  1.00  0.00    -0.069 N
ATOM     13  H13 UNL     1      -0.848   1.353  82.722  1.00  0.00     0.275 HD
ATOM     14  H12 UNL     1      -1.113   2.221  81.486  1.00  0.00     0.275 HD
ATOM     15  H11 UNL     1       0.515   1.880  81.848  1.00  0.00     0.275 HD
ENDBRANCH   1  12
TORSDOF 1
ENDMDL