MODEL 3
REMARK VINA RESULT: -5.357287866      1.886      6.064
REMARK  3 active torsions:
REMARK  status: ('A' for Active; 'I' for Inactive)
REMARK    1  A    between atoms: C2_2  and  N1_3
REMARK    2  A    between atoms: C2_2  and  C3_7
REMARK    3  A    between atoms: C4_8  and  C5_9
ROOT
HETATM    1  C5  UNL     1      -1.625   4.721  84.691  1.00  0.00     0.089 C
HETATM    2  N2  UNL     1      -2.269   5.836  84.610  1.00  0.00    -0.355 N
ATOM      3  H2  UNL     1      -3.058   6.093  85.203  1.00  0.00     0.162 HD
HETATM    4  C6  UNL     1      -1.727   6.666  83.576  1.00  0.00     0.322 C
HETATM    5  C7  UNL     1      -1.828   8.130  83.842  1.00  0.00     0.057 C
HETATM    6  C8  UNL     1      -0.477   8.829  83.732  1.00  0.00     0.005 C
HETATM    7  C9  UNL     1       0.446   8.128  84.708  1.00  0.00     0.030 C
HETATM    8  C10 UNL     1       0.516   6.655  84.454  1.00  0.00     0.275 C
HETATM    9  N3  UNL     1      -0.380   6.185  83.444  1.00  0.00     0.117 N
HETATM   10  C11 UNL     1      -0.553   4.753  83.645  1.00  0.00     0.341 C
ENDROOT
BRANCH   1  11
HETATM   11  C4  UNL     1      -1.924   3.672  85.629  1.00  0.00    -0.050 C
HETATM   12  C3  UNL     1      -2.167   2.803  86.433  1.00  0.00    -0.067 C
BRANCH  12  13
HETATM   13  C2  UNL     1      -2.469   1.756  87.435  1.00  0.00     0.258 C
HETATM   14  C1  UNL     1      -2.173   2.313  88.801  1.00  0.00     0.053 C
BRANCH  13  15
HETATM   15  N1  UNL     1      -1.673   0.578  87.150  1.00  0.00    -0.065 N
ATOM     16  H13 UNL     1      -1.687  -0.077  87.932  1.00  0.00     0.275 HD
ATOM     17  H12 UNL     1      -2.116  -0.008  86.443  1.00  0.00     0.275 HD
ATOM     18  H11 UNL     1      -0.719   0.822  86.887  1.00  0.00     0.275 HD
ENDBRANCH  13  15
ENDBRANCH  12  13
ENDBRANCH   1  11
TORSDOF 3
ENDMDL