MODEL 4
REMARK VINA RESULT: -5.380362638      0.903      1.251
REMARK  2 active torsions:
REMARK  status: ('A' for Active; 'I' for Inactive)
REMARK    1  A    between atoms: C2_3  and  C3_4
REMARK    2  A    between atoms: C4_5  and  C5_6
ROOT
HETATM    1  N1  UNL     1      -0.780   5.315  81.781  1.00  0.00    -0.195 NA
HETATM    2  C1  UNL     1      -0.766   5.534  82.928  1.00  0.00     0.084 C
HETATM    3  C2  UNL     1      -0.750   5.824  84.368  1.00  0.00     0.136 C
HETATM    4  C8  UNL     1       0.497   6.599  84.663  1.00  0.00     0.041 C
HETATM    5  C9  UNL     1       0.419   8.037  84.198  1.00  0.00     0.030 C
HETATM    6  C10 UNL     1      -0.994   8.571  84.233  1.00  0.00     0.232 C
HETATM    7  N3  UNL     1      -1.680   7.838  85.306  1.00  0.00    -0.073 N
ATOM      8  H31 UNL     1      -2.488   8.337  85.678  1.00  0.00     0.277 HD
ATOM      9  H32 UNL     1      -1.141   7.797  86.171  1.00  0.00     0.277 HD
HETATM   10  C11 UNL     1      -2.010   6.543  84.786  1.00  0.00     0.269 C
ENDROOT
BRANCH   3  11
HETATM   11  C3  UNL     1      -0.631   4.534  85.089  1.00  0.00    -0.079 C
HETATM   12  C4  UNL     1      -0.539   3.492  85.688  1.00  0.00    -0.097 C
BRANCH  12  13
HETATM   13  C5  UNL     1      -0.427   2.258  86.427  1.00  0.00     0.116 C
HETATM   14  C6  UNL     1      -0.857   1.005  85.696  1.00  0.00     0.251 C
HETATM   15  N2  UNL     1      -1.484   0.576  86.956  1.00  0.00    -0.073 N
HETATM   16  C7  UNL     1      -1.684   2.007  87.233  1.00  0.00     0.251 C
ATOM     17  H22 UNL     1      -2.261  -0.086  86.968  1.00  0.00     0.277 HD
ATOM     18  H21 UNL     1      -0.999  -0.035  87.613  1.00  0.00     0.277 HD
ENDBRANCH  12  13
ENDBRANCH   3  11
TORSDOF 2
ENDMDL