MODEL 4
REMARK VINA RESULT: -4.467834177      1.385      3.568
REMARK  0 active torsions:
REMARK  status: ('A' for Active; 'I' for Inactive)
ROOT
HETATM    1  C1  UNL     1      -0.211   3.222  85.757  1.00  0.00     0.312 C
HETATM    2  N1  UNL     1      -0.737   3.939  84.587  1.00  0.00     0.109 N
HETATM    3  C2  UNL     1      -1.977   4.540  85.002  1.00  0.00     0.274 C
HETATM    4  C3  UNL     1      -2.112   5.981  84.568  1.00  0.00     0.030 C
HETATM    5  C4  UNL     1      -1.263   6.927  85.335  1.00  0.00     0.007 C
HETATM    6  C5  UNL     1       0.144   7.058  84.825  1.00  0.00     0.044 C
HETATM    7  C6  UNL     1       0.243   7.804  83.524  1.00  0.00     0.055 C
HETATM    8  N2  UNL     1       0.435   7.003  82.381  1.00  0.00    -0.402 N
ATOM      9  H2  UNL     1      -0.264   6.974  81.639  1.00  0.00     0.158 HD
HETATM   10  C7  UNL     1       1.615   6.248  82.291  1.00  0.00     0.120 C
HETATM   11  C8  UNL     1       1.395   4.923  81.548  1.00  0.00     0.047 C
HETATM   12  C9  UNL     1       1.113   3.796  82.510  1.00  0.00     0.236 C
HETATM   13  N3  UNL     1      -0.257   3.395  82.334  1.00  0.00    -0.049 N
ATOM     14  H31 UNL     1      -0.328   2.669  81.622  1.00  0.00     0.279 HD
ATOM     15  H32 UNL     1      -0.791   4.135  81.879  1.00  0.00     0.279 HD
HETATM   16  C10 UNL     1      -0.904   2.978  83.544  1.00  0.00     0.502 C
ENDROOT
TORSDOF 0
ENDMDL