MODEL 3
REMARK VINA RESULT: -7.007260223      1.694      2.046
REMARK  6 active torsions:
REMARK  status: ('A' for Active; 'I' for Inactive)
REMARK    1  A    between atoms: C2_2  and  O1_3
REMARK    2  A    between atoms: O1_3  and  C3_4
REMARK    3  A    between atoms: C3_4  and  C4_6
REMARK    4  A    between atoms: C7_11  and  C8_12
REMARK    5  A    between atoms: C14_19  and  N3_20
REMARK    6  A    between atoms: N4_25  and  C16_26
ROOT
HETATM    1  C8  UNL     1     -50.778  -1.771 -24.435  1.00  0.00     0.070 A
HETATM    2  C9  UNL     1     -50.658  -1.447 -23.106  1.00  0.00     0.086 A
HETATM    3  C10 UNL     1     -49.525  -1.927 -22.295  1.00  0.00     0.102 C
HETATM    4  N2  UNL     1     -48.590  -2.289 -21.667  1.00  0.00    -0.191 NA
HETATM    5  C11 UNL     1     -51.550  -0.451 -22.700  1.00  0.00     0.030 A
HETATM    6  C12 UNL     1     -51.903   0.249 -21.589  1.00  0.00    -0.007 A
HETATM    7  C13 UNL     1     -51.297   0.068 -20.203  1.00  0.00     0.052 C
HETATM    8  C14 UNL     1     -52.903   1.184 -21.720  1.00  0.00     0.152 A
HETATM    9  S1  UNL     1     -53.314   1.049 -23.377  1.00  0.00    -0.047 SA
HETATM   10  C15 UNL     1     -52.221  -0.167 -23.840  1.00  0.00     0.091 A
HETATM   11  N4  UNL     1     -51.769  -0.953 -24.903  1.00  0.00    -0.339 N
ENDROOT
BRANCH   1  12
HETATM   12  C7  UNL     1     -50.352  -3.000 -25.134  1.00  0.00     0.023 A
HETATM   13  C5  UNL     1     -50.362  -4.317 -24.815  1.00  0.00     0.019 A
HETATM   14  N1  UNL     1     -49.537  -5.072 -25.558  1.00  0.00    -0.354 N
HETATM   15  C6  UNL     1     -51.322  -4.956 -23.841  1.00  0.00     0.069 C
HETATM   16  C4  UNL     1     -48.944  -4.259 -26.420  1.00  0.00     0.115 A
ATOM     17  H1  UNL     1     -49.394  -6.079 -25.476  1.00  0.00     0.166 HD
HETATM   18  C18 UNL     1     -49.408  -2.955 -26.201  1.00  0.00    -0.015 A
HETATM   19  C19 UNL     1     -48.829  -1.819 -26.895  1.00  0.00     0.052 C
BRANCH  16  20
HETATM   20  C3  UNL     1     -47.988  -4.698 -27.423  1.00  0.00     0.310 C
HETATM   21  O2  UNL     1     -47.093  -5.541 -27.083  1.00  0.00    -0.258 OA
BRANCH  20  22
HETATM   22  O1  UNL     1     -47.956  -4.292 -28.729  1.00  0.00    -0.317 OA
BRANCH  22  23
HETATM   23  C2  UNL     1     -48.087  -5.212 -29.782  1.00  0.00     0.175 C
HETATM   24  C1  UNL     1     -46.840  -5.174 -30.662  1.00  0.00     0.034 C
ENDBRANCH  22  23
ENDBRANCH  20  22
ENDBRANCH  16  20
ENDBRANCH   1  12
BRANCH  11  25
HETATM   25  C16 UNL     1     -52.377  -0.737 -26.168  1.00  0.00     0.125 C
HETATM   26  C17 UNL     1     -53.708  -1.480 -26.266  1.00  0.00     0.027 C
ENDBRANCH  11  25
BRANCH   8  27
HETATM   27  N3  UNL     1     -53.464   2.062 -20.747  1.00  0.00    -0.108 N
HETATM   28  O3  UNL     1     -54.282   2.907 -21.119  1.00  0.00    -0.531 OA
HETATM   29  O4  UNL     1     -53.106   1.969 -19.452  1.00  0.00    -0.531 OA
ENDBRANCH   8  27
TORSDOF 6
ENDMDL