MODEL 2
REMARK VINA RESULT: -7.050549855      3.216      5.592
REMARK  6 active torsions:
REMARK  status: ('A' for Active; 'I' for Inactive)
REMARK    1  A    between atoms: C2_2  and  C3_4
REMARK    2  A    between atoms: C3_4  and  C12_21
REMARK    3  A    between atoms: N1_5  and  N2_7
REMARK    4  A    between atoms: N2_7  and  C4_9
REMARK    5  A    between atoms: C5_12  and  C6_13
REMARK    6  A    between atoms: C12_21  and  C14_24
ROOT
HETATM    1  C12 UNL     1     -52.991  -2.211 -26.410  1.00  0.00     0.204 C
HETATM    2  C13 UNL     1     -52.173  -1.747 -27.551  1.00  0.00     0.077 C
HETATM    3  N4  UNL     1     -51.537  -1.359 -28.453  1.00  0.00    -0.196 NA
ENDROOT
BRANCH   1   4
HETATM    4  C3  UNL     1     -52.103  -2.733 -25.357  1.00  0.00     0.095 C
HETATM    5  N1  UNL     1     -50.897  -2.311 -25.298  1.00  0.00    -0.297 N
ATOM      6  H1  UNL     1     -50.584  -1.620 -25.981  1.00  0.00     0.187 HD
BRANCH   4   7
HETATM    7  C2  UNL     1     -52.573  -3.709 -24.411  1.00  0.00     0.171 C
HETATM    8  C1  UNL     1     -53.010  -5.051 -24.920  1.00  0.00     0.098 C
HETATM    9  O1  UNL     1     -52.631  -3.468 -23.170  1.00  0.00    -0.291 OA
ENDBRANCH   4   7
BRANCH   5  10
HETATM   10  N2  UNL     1     -50.007  -2.751 -24.352  1.00  0.00    -0.279 N
ATOM     11  H2  UNL     1     -49.559  -3.665 -24.433  1.00  0.00     0.189 HD
BRANCH  10  12
HETATM   12  C4  UNL     1     -49.750  -1.954 -23.337  1.00  0.00     0.163 A
HETATM   13  N3  UNL     1     -50.641  -1.328 -22.567  1.00  0.00    -0.334 N
HETATM   14  C5  UNL     1     -50.214  -0.575 -21.602  1.00  0.00     0.058 A
ATOM     15  H3  UNL     1     -51.641  -1.440 -22.734  1.00  0.00     0.168 HD
HETATM   16  C11 UNL     1     -48.853  -0.467 -21.431  1.00  0.00     0.084 A
HETATM   17  S2  UNL     1     -48.259  -1.463 -22.678  1.00  0.00    -0.062 SA
BRANCH  14  18
HETATM   18  C6  UNL     1     -51.136   0.169 -20.683  1.00  0.00     0.032 A
HETATM   19  C7  UNL     1     -52.251   0.899 -21.000  1.00  0.00     0.022 A
HETATM   20  C8  UNL     1     -52.913   1.476 -19.987  1.00  0.00     0.015 A
HETATM   21  C9  UNL     1     -52.423   1.286 -18.725  1.00  0.00    -0.021 A
HETATM   22  C10 UNL     1     -53.006   1.839 -17.447  1.00  0.00     0.056 C
HETATM   23  S1  UNL     1     -51.050   0.310 -18.990  1.00  0.00    -0.093 SA
ENDBRANCH  14  18
ENDBRANCH  10  12
ENDBRANCH   5  10
ENDBRANCH   1   4
BRANCH   1  24
HETATM   24  C14 UNL     1     -53.784  -1.041 -25.928  1.00  0.00     0.077 A
HETATM   25  C15 UNL     1     -53.384  -0.150 -24.960  1.00  0.00     0.037 A
HETATM   26  C16 UNL     1     -54.408   0.783 -24.809  1.00  0.00     0.035 A
HETATM   27  C17 UNL     1     -55.374   0.374 -25.718  1.00  0.00     0.049 A
HETATM   28  C18 UNL     1     -56.673   1.103 -25.897  1.00  0.00     0.076 C
HETATM   29  O2  UNL     1     -54.972  -0.682 -26.341  1.00  0.00    -0.318 OA
ENDBRANCH   1  24
TORSDOF 6
ENDMDL