MODEL 5
REMARK VINA RESULT: -6.180026232      2.676      3.218
REMARK  11 active torsions:
REMARK  status: ('A' for Active; 'I' for Inactive)
REMARK    1  A    between atoms: C2_2  and  S1_3
REMARK    2  A    between atoms: S1_3  and  C3_4
REMARK    3  A    between atoms: C3_4  and  N1_6
REMARK    4  A    between atoms: N1_6  and  C4_8
REMARK    5  A    between atoms: C5_11  and  N3_12
REMARK    6  A    between atoms: N3_12  and  N4_14
REMARK    7  A    between atoms: N4_14  and  N5_15
REMARK    8  A    between atoms: C6_18  and  S3_19
REMARK    9  A    between atoms: S3_19  and  C7_20
REMARK   10  A    between atoms: C7_20  and  C8_21
REMARK   11  A    between atoms: C8_21  and  C9_23
ROOT
HETATM    1  C4  UNL     1     -49.267  -3.139 -27.142  1.00  0.00     0.152 A
HETATM    2  N2  UNL     1     -50.530  -3.373 -27.503  1.00  0.00    -0.319 N
ATOM      3  H2  UNL     1     -50.742  -3.842 -28.383  1.00  0.00     0.169 HD
HETATM    4  C5  UNL     1     -51.486  -2.990 -26.707  1.00  0.00     0.159 A
HETATM    5  C6  UNL     1     -51.139  -2.367 -25.539  1.00  0.00     0.091 A
HETATM    6  S4  UNL     1     -49.436  -2.357 -25.637  1.00  0.00    -0.043 SA
ENDROOT
BRANCH   5   7
HETATM    7  S3  UNL     1     -52.221  -1.724 -24.237  1.00  0.00    -0.111 SA
BRANCH   7   8
HETATM    8  C7  UNL     1     -51.867   0.054 -24.134  1.00  0.00     0.164 C
BRANCH   8   9
HETATM    9  C8  UNL     1     -52.960   0.804 -23.497  1.00  0.00     0.169 C
HETATM   10  O1  UNL     1     -53.937   1.195 -24.166  1.00  0.00    -0.291 OA
BRANCH   9  11
HETATM   11  C9  UNL     1     -52.906   1.093 -22.084  1.00  0.00     0.010 A
HETATM   12  C10 UNL     1     -51.957   0.510 -21.260  1.00  0.00     0.015 A
HETATM   13  C11 UNL     1     -51.901   0.779 -19.911  1.00  0.00     0.001 A
HETATM   14  C12 UNL     1     -52.804   1.648 -19.340  1.00  0.00     0.000 A
HETATM   15  C13 UNL     1     -53.773   2.250 -20.145  1.00  0.00     0.001 A
HETATM   16  C14 UNL     1     -53.802   1.957 -21.504  1.00  0.00     0.015 A
ENDBRANCH   9  11
ENDBRANCH   8   9
ENDBRANCH   7   8
ENDBRANCH   5   7
BRANCH   4  17
HETATM   17  N3  UNL     1     -52.896  -3.196 -27.008  1.00  0.00    -0.198 N
ATOM     18  H3  UNL     1     -53.430  -3.848 -26.434  1.00  0.00     0.205 HD
BRANCH  17  19
HETATM   19  N4  UNL     1     -53.458  -2.623 -27.912  1.00  0.00    -0.242 NA
BRANCH  19  20
HETATM   20  N5  UNL     1     -53.830  -2.068 -28.937  1.00  0.00    -0.260 N
ATOM     21  H52 UNL     1     -53.070  -2.523 -29.444  1.00  0.00     0.193 HD
ATOM     22  H51 UNL     1     -54.274  -1.530 -29.682  1.00  0.00     0.193 HD
ENDBRANCH  19  20
ENDBRANCH  17  19
ENDBRANCH   4  17
BRANCH   1  23
HETATM   23  N1  UNL     1     -48.174  -3.449 -27.807  1.00  0.00    -0.322 N
ATOM     24  H1  UNL     1     -47.522  -2.737 -28.135  1.00  0.00     0.169 HD
BRANCH  23  25
HETATM   25  C3  UNL     1     -47.960  -4.815 -28.038  1.00  0.00     0.140 C
HETATM   26  S2  UNL     1     -47.515  -5.783 -26.828  1.00  0.00    -0.053 SA
BRANCH  25  27
HETATM   27  S1  UNL     1     -48.177  -5.477 -29.661  1.00  0.00    -0.101 SA
BRANCH  27  28
HETATM   28  C2  UNL     1     -46.702  -5.288 -30.689  1.00  0.00     0.077 C
HETATM   29  C1  UNL     1     -47.142  -4.912 -32.079  1.00  0.00     0.016 C
ENDBRANCH  27  28
ENDBRANCH  25  27
ENDBRANCH  23  25
ENDBRANCH   1  23
TORSDOF 11
ENDMDL