MODEL 4
REMARK VINA RESULT: -6.553628546      2.432      4.013
REMARK  7 active torsions:
REMARK  status: ('A' for Active; 'I' for Inactive)
REMARK    1  A    between atoms: C2_2  and  C3_3
REMARK    2  A    between atoms: C3_3  and  C4_4
REMARK    3  A    between atoms: C4_4  and  C5_5
REMARK    4  A    between atoms: C5_5  and  C7_7
REMARK    5  A    between atoms: C7_7  and  O1_8
REMARK    6  A    between atoms: O1_8  and  O2_9
REMARK    7  A    between atoms: C15_22  and  O5_23
ROOT
HETATM    1  C7  UNL     1     -50.901  -0.842 -20.821  1.00  0.00     0.229 C
HETATM    2  O3  UNL     1     -51.905  -1.161 -21.779  1.00  0.00    -0.319 OA
HETATM    3  C8  UNL     1     -51.259  -1.957 -22.705  1.00  0.00     0.280 C
HETATM    4  O4  UNL     1     -52.078  -2.714 -23.530  1.00  0.00    -0.308 OA
HETATM    5  C9  UNL     1     -51.770  -4.065 -23.794  1.00  0.00     0.113 C
HETATM    6  C10 UNL     1     -52.769  -4.815 -24.606  1.00  0.00     0.097 C
HETATM    7  N1  UNL     1     -50.691  -4.631 -23.365  1.00  0.00    -0.365 N
ATOM      8  H1  UNL     1     -50.486  -5.610 -23.566  1.00  0.00     0.162 HD
HETATM    9  C11 UNL     1     -49.768  -3.797 -22.568  1.00  0.00     0.039 C
HETATM   10  C12 UNL     1     -49.073  -2.954 -23.662  1.00  0.00     0.039 C
HETATM   11  C13 UNL     1     -48.683  -4.554 -21.930  1.00  0.00     0.034 C
HETATM   12  C14 UNL     1     -48.955  -5.363 -20.751  1.00  0.00     0.037 C
HETATM   13  C15 UNL     1     -49.539  -4.817 -19.535  1.00  0.00     0.152 C
HETATM   14  C16 UNL     1     -49.121  -3.466 -19.063  1.00  0.00     0.080 C
HETATM   15  C17 UNL     1     -47.681  -3.150 -19.272  1.00  0.00     0.048 C
HETATM   16  C18 UNL     1     -49.291  -3.503 -17.520  1.00  0.00     0.048 C
HETATM   17  O6  UNL     1     -50.010  -2.491 -19.447  1.00  0.00    -0.367 OA
HETATM   18  C19 UNL     1     -50.029  -2.074 -20.725  1.00  0.00     0.199 C
HETATM   19  C20 UNL     1     -50.641  -2.975 -21.720  1.00  0.00     0.104 C
ENDROOT
BRANCH   1  20
HETATM   20  C5  UNL     1     -51.695  -0.529 -19.584  1.00  0.00     0.050 C
HETATM   21  C6  UNL     1     -51.091   0.443 -18.644  1.00  0.00     0.015 C
BRANCH  20  22
HETATM   22  C4  UNL     1     -52.975   0.147 -20.118  1.00  0.00     0.010 C
BRANCH  22  23
HETATM   23  C3  UNL     1     -53.077   1.564 -19.613  1.00  0.00     0.000 C
BRANCH  23  24
HETATM   24  C2  UNL     1     -53.788   2.364 -20.685  1.00  0.00    -0.005 C
HETATM   25  C1  UNL     1     -54.155   1.500 -21.871  1.00  0.00     0.005 C
ENDBRANCH  23  24
ENDBRANCH  22  23
ENDBRANCH  20  22
ENDBRANCH   1  20
BRANCH   1  26
HETATM   26  O1  UNL     1     -50.203   0.291 -21.244  1.00  0.00    -0.200 OA
BRANCH  26  27
HETATM   27  O2  UNL     1     -48.919   0.134 -21.210  1.00  0.00    -0.247 OA
ATOM     28  H2  UNL     1     -48.656  -0.778 -21.235  1.00  0.00     0.253 HD
ENDBRANCH  26  27
ENDBRANCH   1  26
BRANCH  13  29
HETATM   29  O5  UNL     1     -49.265  -5.769 -18.509  1.00  0.00    -0.393 OA
ATOM     30  H5  UNL     1     -48.524  -5.423 -18.025  1.00  0.00     0.210 HD
ENDBRANCH  13  29
TORSDOF 7
ENDMDL