MODEL 1
REMARK VINA RESULT: -6.987523244      0.000      0.000
REMARK  6 active torsions:
REMARK  status: ('A' for Active; 'I' for Inactive)
REMARK    1  A    between atoms: C2_2  and  O1_3
REMARK    2  A    between atoms: O1_3  and  C3_4
REMARK    3  A    between atoms: C3_4  and  C4_6
REMARK    4  A    between atoms: C8_11  and  N1_12
REMARK       I    between atoms: N1_12  and  C9_14
REMARK    5  A    between atoms: C9_14  and  C10_16
REMARK    6  A    between atoms: C11_17  and  C12_18
ROOT
HETATM    1  C12 UNL     1     -50.540   0.162 -17.719  1.00  0.00     0.165 C
HETATM    2  C13 UNL     1     -50.787  -1.187 -17.184  1.00  0.00     0.063 C
HETATM    3  N2  UNL     1     -50.998  -2.248 -16.745  1.00  0.00    -0.197 NA
ENDROOT
BRANCH   1   4
HETATM    4  C11 UNL     1     -51.391   0.535 -18.827  1.00  0.00    -0.006 A
HETATM    5  C10 UNL     1     -51.192   0.212 -20.160  1.00  0.00     0.060 A
HETATM    6  C19 UNL     1     -52.146   0.628 -21.114  1.00  0.00     0.048 A
HETATM    7  C16 UNL     1     -53.258   1.333 -20.793  1.00  0.00     0.051 A
HETATM    8  S2  UNL     1     -52.310   0.439 -22.794  1.00  0.00    -0.099 SA
HETATM    9  N3  UNL     1     -53.433   1.642 -19.466  1.00  0.00    -0.358 N
HETATM   10  C17 UNL     1     -54.111   1.665 -21.791  1.00  0.00     0.038 A
HETATM   11  C14 UNL     1     -52.558   1.265 -18.568  1.00  0.00     0.014 A
ATOM     12  H3  UNL     1     -54.255   2.173 -19.176  1.00  0.00     0.166 HD
HETATM   13  C15 UNL     1     -52.789   1.617 -17.128  1.00  0.00     0.068 C
HETATM   14  C18 UNL     1     -53.778   1.257 -23.052  1.00  0.00     0.053 A
BRANCH   5  15
HETATM   15  C9  UNL     1     -50.046  -0.527 -20.585  1.00  0.00     0.258 C
HETATM   16  N1  UNL     1     -49.902  -1.936 -20.619  1.00  0.00    -0.321 N
ATOM     17  H1  UNL     1     -50.672  -2.535 -20.322  1.00  0.00     0.169 HD
HETATM   18  O3  UNL     1     -49.017   0.126 -20.990  1.00  0.00    -0.267 OA
BRANCH  16  19
HETATM   19  C8  UNL     1     -48.643  -2.534 -21.081  1.00  0.00     0.064 A
HETATM   20  C4  UNL     1     -48.495  -2.871 -22.397  1.00  0.00     0.107 A
HETATM   21  S1  UNL     1     -46.915  -3.513 -22.458  1.00  0.00    -0.093 SA
HETATM   22  C5  UNL     1     -46.486  -3.339 -20.823  1.00  0.00     0.059 A
HETATM   23  C6  UNL     1     -47.601  -2.777 -20.261  1.00  0.00    -0.027 A
HETATM   24  C7  UNL     1     -47.637  -2.447 -18.770  1.00  0.00     0.051 C
BRANCH  20  25
HETATM   25  C3  UNL     1     -49.479  -2.711 -23.491  1.00  0.00     0.302 C
HETATM   26  O2  UNL     1     -50.695  -2.844 -23.251  1.00  0.00    -0.259 OA
BRANCH  25  27
HETATM   27  O1  UNL     1     -49.026  -2.422 -24.742  1.00  0.00    -0.317 OA
BRANCH  27  28
HETATM   28  C2  UNL     1     -48.921  -3.365 -25.790  1.00  0.00     0.174 C
HETATM   29  C1  UNL     1     -48.650  -2.622 -27.062  1.00  0.00     0.034 C
ENDBRANCH  27  28
ENDBRANCH  25  27
ENDBRANCH  20  25
ENDBRANCH  16  19
ENDBRANCH   5  15
ENDBRANCH   1   4
TORSDOF 6
ENDMDL