MODEL 3
REMARK VINA RESULT: -6.782732037      2.310      3.864
REMARK  7 active torsions:
REMARK  status: ('A' for Active; 'I' for Inactive)
REMARK    1  A    between atoms: C3_3  and  C4_4
REMARK    2  A    between atoms: C4_4  and  O2_6
REMARK    3  A    between atoms: O2_6  and  C5_7
REMARK    4  A    between atoms: C5_7  and  C6_8
REMARK    5  A    between atoms: C10_13  and  N1_14
REMARK    6  A    between atoms: N1_14  and  C11_16
REMARK    7  A    between atoms: C17_23  and  C18_24
ROOT
HETATM    1  C1  UNL     1     -52.125  -5.080 -24.654  1.00  0.00     0.074 C
HETATM    2  C2  UNL     1     -51.938  -3.666 -24.193  1.00  0.00     0.073 A
HETATM    3  C3  UNL     1     -52.205  -2.510 -24.898  1.00  0.00     0.177 A
HETATM    4  O3  UNL     1     -51.883  -1.533 -24.083  1.00  0.00    -0.282 OA
HETATM    5  C9  UNL     1     -51.442  -2.017 -22.943  1.00  0.00     0.199 A
HETATM    6  C10 UNL     1     -50.943  -1.675 -21.662  1.00  0.00     0.107 A
HETATM    7  C17 UNL     1     -50.695  -2.818 -21.005  1.00  0.00     0.064 A
HETATM    8  N2  UNL     1     -51.033  -3.842 -21.859  1.00  0.00    -0.293 N
ATOM      9  H2  UNL     1     -50.957  -4.837 -21.647  1.00  0.00     0.187 HD
HETATM   10  N3  UNL     1     -51.461  -3.346 -22.972  1.00  0.00    -0.233 N
ENDROOT
BRANCH   6  11
HETATM   11  N1  UNL     1     -50.714  -0.323 -21.308  1.00  0.00    -0.378 N
ATOM     12  H1  UNL     1     -49.742  -0.022 -21.380  1.00  0.00     0.160 HD
BRANCH  11  13
HETATM   13  C11 UNL     1     -51.608   0.674 -20.872  1.00  0.00     0.113 C
HETATM   14  C12 UNL     1     -52.365   1.396 -21.970  1.00  0.00     0.059 C
HETATM   15  C13 UNL     1     -53.772   1.412 -21.445  1.00  0.00     0.120 C
HETATM   16  C14 UNL     1     -54.187   2.775 -20.946  1.00  0.00     0.039 C
HETATM   17  O4  UNL     1     -53.863   0.463 -20.442  1.00  0.00    -0.379 OA
HETATM   18  C15 UNL     1     -52.610   0.417 -19.830  1.00  0.00     0.140 C
HETATM   19  C16 UNL     1     -52.607   1.440 -18.710  1.00  0.00     0.041 C
ENDBRANCH  11  13
ENDBRANCH   6  11
BRANCH   7  20
HETATM   20  C18 UNL     1     -50.199  -3.122 -19.659  1.00  0.00    -0.005 C
HETATM   21  C19 UNL     1     -51.170  -2.694 -18.600  1.00  0.00     0.021 C
HETATM   22  C20 UNL     1     -49.974  -4.611 -19.453  1.00  0.00     0.021 C
HETATM   23  C21 UNL     1     -48.828  -2.479 -19.438  1.00  0.00     0.021 C
ENDBRANCH   7  20
BRANCH   3  24
HETATM   24  C4  UNL     1     -52.732  -2.428 -26.255  1.00  0.00     0.319 C
HETATM   25  O1  UNL     1     -53.808  -1.810 -26.432  1.00  0.00    -0.257 OA
BRANCH  24  26
HETATM   26  O2  UNL     1     -52.122  -2.984 -27.338  1.00  0.00    -0.316 OA
BRANCH  26  27
HETATM   27  C5  UNL     1     -50.965  -2.584 -27.991  1.00  0.00     0.183 C
BRANCH  27  28
HETATM   28  C6  UNL     1     -49.753  -2.984 -27.183  1.00  0.00     0.002 C
HETATM   29  C7  UNL     1     -48.871  -3.894 -28.017  1.00  0.00     0.011 C
HETATM   30  C8  UNL     1     -48.966  -1.757 -26.750  1.00  0.00     0.011 C
ENDBRANCH  27  28
ENDBRANCH  26  27
ENDBRANCH  24  26
ENDBRANCH   3  24
TORSDOF 7
ENDMDL