MODEL 4
REMARK VINA RESULT: -7.771873290      1.240      1.767
REMARK  5 active torsions:
REMARK  status: ('A' for Active; 'I' for Inactive)
REMARK    1  A    between atoms: C9_10  and  N1_11
REMARK       I    between atoms: N1_11  and  C10_13
REMARK    2  A    between atoms: C10_13  and  C11_15
REMARK    3  A    between atoms: C11_15  and  S2_16
REMARK    4  A    between atoms: S2_16  and  C12_17
REMARK    5  A    between atoms: C13_22  and  C14_23
ROOT
HETATM    1  N1  UNL     1     -49.616  -2.053 -20.791  1.00  0.00    -0.320 N
ATOM      2  H1  UNL     1     -48.648  -1.826 -21.015  1.00  0.00     0.169 HD
HETATM    3  C10 UNL     1     -50.071  -3.396 -20.884  1.00  0.00     0.232 C
HETATM    4  O1  UNL     1     -51.223  -3.754 -20.614  1.00  0.00    -0.272 OA
ENDROOT
BRANCH   3   5
HETATM    5  C11 UNL     1     -49.077  -4.393 -21.341  1.00  0.00     0.185 C
BRANCH   5   6
HETATM    6  S2  UNL     1     -48.144  -3.985 -22.786  1.00  0.00    -0.082 SA
BRANCH   6   7
HETATM    7  C12 UNL     1     -49.065  -3.531 -24.229  1.00  0.00     0.174 A
HETATM    8  N2  UNL     1     -48.852  -2.438 -24.974  1.00  0.00    -0.277 N
HETATM    9  N3  UNL     1     -49.618  -2.145 -26.041  1.00  0.00    -0.286 N
ATOM     10  H2  UNL     1     -48.088  -1.810 -24.725  1.00  0.00     0.189 HD
HETATM   11  C13 UNL     1     -50.634  -2.925 -26.418  1.00  0.00     0.114 A
ATOM     12  H3  UNL     1     -49.415  -1.302 -26.578  1.00  0.00     0.188 HD
HETATM   13  N4  UNL     1     -50.858  -4.042 -25.667  1.00  0.00    -0.286 N
HETATM   14  N5  UNL     1     -50.111  -4.327 -24.629  1.00  0.00    -0.277 N
ATOM     15  H4  UNL     1     -51.622  -4.668 -25.919  1.00  0.00     0.188 HD
ATOM     16  H5  UNL     1     -50.315  -5.173 -24.097  1.00  0.00     0.189 HD
BRANCH  11  17
HETATM   17  C14 UNL     1     -51.524  -2.613 -27.571  1.00  0.00     0.048 C
HETATM   18  C15 UNL     1     -51.444  -1.179 -28.012  1.00  0.00     0.017 C
HETATM   19  C16 UNL     1     -52.960  -2.901 -27.163  1.00  0.00     0.017 C
ENDBRANCH  11  17
ENDBRANCH   6   7
ENDBRANCH   5   6
ENDBRANCH   3   5
BRANCH   1  20
HETATM   20  C9  UNL     1     -50.531  -1.007 -20.375  1.00  0.00     0.088 A
HETATM   21  S1  UNL     1     -50.806  -0.400 -18.814  1.00  0.00    -0.076 SA
HETATM   22  C7  UNL     1     -52.009   0.764 -19.188  1.00  0.00    -0.007 A
HETATM   23  C6  UNL     1     -52.152   0.635 -20.541  1.00  0.00    -0.004 A
HETATM   24  C8  UNL     1     -52.696   1.666 -18.190  1.00  0.00     0.057 C
HETATM   25  C4  UNL     1     -53.032   1.385 -21.343  1.00  0.00    -0.049 A
HETATM   26  C17 UNL     1     -51.390  -0.281 -21.161  1.00  0.00     0.010 A
HETATM   27  C3  UNL     1     -53.134   1.209 -22.715  1.00  0.00     0.014 A
HETATM   28  C5  UNL     1     -53.903   2.441 -20.764  1.00  0.00     0.049 C
HETATM   29  C2  UNL     1     -52.360   0.279 -23.333  1.00  0.00    -0.061 A
HETATM   30  C1  UNL     1     -52.443   0.067 -24.815  1.00  0.00     0.048 C
HETATM   31  C18 UNL     1     -51.500  -0.452 -22.559  1.00  0.00     0.022 A
ENDBRANCH   1  20
TORSDOF 5
ENDMDL