MODEL 5
REMARK VINA RESULT: -7.336850551      0.871      1.462
REMARK  7 active torsions:
REMARK  status: ('A' for Active; 'I' for Inactive)
REMARK    1  A    between atoms: C2_2  and  O1_3
REMARK    2  A    between atoms: O1_3  and  C3_4
REMARK    3  A    between atoms: C3_4  and  C4_6
REMARK    4  A    between atoms: C6_8  and  O3_9
REMARK    5  A    between atoms: C7_11  and  C8_12
REMARK    6  A    between atoms: N1_13  and  C9_15
REMARK    7  A    between atoms: C16_24  and  C17_25
ROOT
HETATM    1  C9  UNL     1     -50.747  -2.622 -25.404  1.00  0.00     0.096 A
HETATM    2  S1  UNL     1     -51.632  -1.196 -25.704  1.00  0.00    -0.067 SA
HETATM    3  C10 UNL     1     -51.975  -0.737 -24.102  1.00  0.00     0.061 A
HETATM    4  C11 UNL     1     -51.385  -1.719 -23.360  1.00  0.00    -0.014 A
HETATM    5  C12 UNL     1     -50.744  -2.701 -24.039  1.00  0.00     0.086 A
HETATM    6  C13 UNL     1     -50.066  -3.817 -23.353  1.00  0.00     0.103 C
HETATM    7  N2  UNL     1     -49.516  -4.711 -22.821  1.00  0.00    -0.191 NA
HETATM    8  C14 UNL     1     -51.571  -1.518 -21.857  1.00  0.00     0.042 C
HETATM    9  C15 UNL     1     -51.300  -0.094 -21.518  1.00  0.00     0.018 C
HETATM   10  C16 UNL     1     -52.310   0.876 -22.102  1.00  0.00     0.065 C
HETATM   11  C20 UNL     1     -52.699   0.383 -23.443  1.00  0.00     0.171 C
HETATM   12  O4  UNL     1     -53.649   0.872 -24.095  1.00  0.00    -0.291 OA
ENDROOT
BRANCH   1  13
HETATM   13  N1  UNL     1     -50.133  -3.542 -26.333  1.00  0.00    -0.356 N
HETATM   14  C8  UNL     1     -48.994  -3.310 -26.843  1.00  0.00     0.129 C
ATOM     15  H1  UNL     1     -50.626  -4.399 -26.585  1.00  0.00     0.166 HD
BRANCH  14  16
HETATM   16  C7  UNL     1     -48.331  -4.201 -27.785  1.00  0.00     0.124 A
HETATM   17  C6  UNL     1     -48.146  -5.549 -27.552  1.00  0.00     0.103 A
HETATM   18  C5  UNL     1     -47.488  -6.013 -28.672  1.00  0.00     0.083 A
HETATM   19  C4  UNL     1     -47.295  -4.959 -29.536  1.00  0.00     0.154 A
HETATM   20  O5  UNL     1     -47.820  -3.905 -28.948  1.00  0.00    -0.300 OA
BRANCH  17  21
HETATM   21  O3  UNL     1     -48.554  -6.257 -26.411  1.00  0.00    -0.358 OA
ATOM     22  H3  UNL     1     -48.855  -7.156 -26.342  1.00  0.00     0.217 HD
ENDBRANCH  17  21
BRANCH  19  23
HETATM   23  C3  UNL     1     -46.643  -4.984 -30.839  1.00  0.00     0.317 C
HETATM   24  O2  UNL     1     -46.838  -4.029 -31.620  1.00  0.00    -0.257 OA
BRANCH  23  25
HETATM   25  O1  UNL     1     -45.820  -6.017 -31.243  1.00  0.00    -0.316 OA
BRANCH  25  26
HETATM   26  C2  UNL     1     -44.408  -5.976 -31.241  1.00  0.00     0.175 C
HETATM   27  C1  UNL     1     -43.910  -6.400 -29.882  1.00  0.00     0.034 C
ENDBRANCH  25  26
ENDBRANCH  23  25
ENDBRANCH  19  23
ENDBRANCH  14  16
ENDBRANCH   1  13
BRANCH  10  28
HETATM   28  C17 UNL     1     -53.453   1.138 -21.177  1.00  0.00    -0.011 C
HETATM   29  C18 UNL     1     -53.085   0.870 -19.730  1.00  0.00     0.010 C
HETATM   30  C19 UNL     1     -53.838   2.608 -21.239  1.00  0.00     0.010 C
ENDBRANCH  10  28
TORSDOF 7
ENDMDL