MODEL 4
REMARK VINA RESULT: -7.316012745      1.420      4.136
REMARK  6 active torsions:
REMARK  status: ('A' for Active; 'I' for Inactive)
REMARK    1  A    between atoms: O1_2  and  C2_3
REMARK    2  A    between atoms: C3_4  and  O2_5
REMARK    3  A    between atoms: C9_12  and  O3_13
REMARK    4  A    between atoms: C12_16  and  C13_17
REMARK    5  A    between atoms: C16_20  and  O4_21
REMARK    6  A    between atoms: O4_21  and  C17_22
ROOT
HETATM    1  C2  UNL     1     -52.278  -0.966 -25.045  1.00  0.00     0.155 C
HETATM    2  C3  UNL     1     -52.181   0.018 -24.076  1.00  0.00     0.114 C
HETATM    3  C4  UNL     1     -51.834  -0.232 -22.757  1.00  0.00     0.014 A
HETATM    4  C5  UNL     1     -52.454   0.606 -21.870  1.00  0.00     0.022 A
HETATM    5  C6  UNL     1     -52.215   0.472 -20.516  1.00  0.00    -0.058 A
HETATM    6  C7  UNL     1     -52.872   1.415 -19.545  1.00  0.00     0.048 C
HETATM    7  C8  UNL     1     -51.367  -0.483 -20.020  1.00  0.00     0.044 A
HETATM    8  C9  UNL     1     -50.737  -1.333 -20.927  1.00  0.00     0.080 A
HETATM    9  C11 UNL     1     -50.957  -1.215 -22.256  1.00  0.00     0.024 A
HETATM   10  C12 UNL     1     -50.170  -2.094 -23.020  1.00  0.00     0.018 C
HETATM   11  C16 UNL     1     -50.658  -2.649 -24.208  1.00  0.00     0.140 C
HETATM   12  C22 UNL     1     -51.634  -2.169 -25.111  1.00  0.00     0.242 C
HETATM   13  O5  UNL     1     -51.923  -2.916 -26.041  1.00  0.00    -0.282 OA
ENDROOT
BRANCH  11  14
HETATM   14  O4  UNL     1     -50.102  -3.835 -24.541  1.00  0.00    -0.302 OA
BRANCH  14  15
HETATM   15  C17 UNL     1     -49.262  -4.357 -25.405  1.00  0.00     0.116 A
HETATM   16  C18 UNL     1     -48.870  -5.715 -25.301  1.00  0.00     0.148 A
HETATM   17  N1  UNL     1     -48.024  -6.000 -26.281  1.00  0.00    -0.305 N
HETATM   18  C19 UNL     1     -47.407  -7.311 -26.507  1.00  0.00     0.177 C
HETATM   19  N2  UNL     1     -47.844  -4.932 -27.005  1.00  0.00    -0.301 N
HETATM   20  C20 UNL     1     -48.599  -3.904 -26.481  1.00  0.00     0.057 A
ATOM     21  H2  UNL     1     -47.241  -4.867 -27.826  1.00  0.00     0.187 HD
HETATM   22  C21 UNL     1     -48.565  -2.583 -27.151  1.00  0.00     0.072 C
ENDBRANCH  14  15
ENDBRANCH  11  14
BRANCH  10  23
HETATM   23  C13 UNL     1     -48.873  -2.405 -22.413  1.00  0.00    -0.073 C
HETATM   24  C14 UNL     1     -47.668  -1.473 -22.597  1.00  0.00     0.044 C
HETATM   25  C15 UNL     1     -48.473  -3.858 -22.145  1.00  0.00     0.044 C
ENDBRANCH  10  23
BRANCH   1  26
HETATM   26  O1  UNL     1     -53.162  -0.644 -26.074  1.00  0.00    -0.350 OA
HETATM   27  C1  UNL     1     -54.567  -0.614 -25.842  1.00  0.00     0.210 C
ENDBRANCH   1  26
BRANCH   8  28
HETATM   28  O3  UNL     1     -49.874  -2.318 -20.513  1.00  0.00    -0.355 OA
HETATM   29  C10 UNL     1     -49.952  -2.702 -19.126  1.00  0.00     0.210 C
ENDBRANCH   8  28
BRANCH   2  30
HETATM   30  O2  UNL     1     -52.436   1.307 -24.381  1.00  0.00    -0.357 OA
ATOM     31  H2  UNL     1     -53.153   1.532 -24.962  1.00  0.00     0.217 HD
ENDBRANCH   2  30
TORSDOF 6
ENDMDL