MODEL 4
REMARK VINA RESULT: -6.253898410      3.017      4.235
REMARK  6 active torsions:
REMARK  status: ('A' for Active; 'I' for Inactive)
REMARK    1  A    between atoms: C1_2  and  C2_3
REMARK    2  A    between atoms: C2_3  and  S1_4
REMARK    3  A    between atoms: S1_4  and  C3_5
REMARK    4  A    between atoms: C7_13  and  N2_14
REMARK       I    between atoms: N2_14  and  C8_16
REMARK    5  A    between atoms: C8_16  and  C9_18
REMARK    6  A    between atoms: C9_18  and  C10_19
ROOT
HETATM    1  C3  UNL     1     -53.428   0.656 -23.609  1.00  0.00     0.023 A
HETATM    2  C4  UNL     1     -53.323   1.059 -22.321  1.00  0.00     0.050 A
HETATM    3  C5  UNL     1     -52.505   0.469 -21.381  1.00  0.00     0.075 A
HETATM    4  S2  UNL     1     -52.443   1.036 -19.829  1.00  0.00    -0.072 SA
HETATM    5  S3  UNL     1     -51.599  -0.842 -21.951  1.00  0.00    -0.059 SA
HETATM    6  C6  UNL     1     -51.854  -1.226 -23.629  1.00  0.00     0.096 A
HETATM    7  N1  UNL     1     -51.313  -2.172 -24.353  1.00  0.00    -0.330 N
ATOM      8  H1  UNL     1     -50.634  -2.810 -23.940  1.00  0.00     0.168 HD
HETATM    9  C7  UNL     1     -51.655  -2.292 -25.628  1.00  0.00     0.152 A
HETATM   10  S5  UNL     1     -52.783  -1.032 -25.839  1.00  0.00    -0.050 SA
HETATM   11  C14 UNL     1     -52.757  -0.393 -24.223  1.00  0.00     0.059 A
ENDROOT
BRANCH   9  12
HETATM   12  N2  UNL     1     -51.217  -3.172 -26.507  1.00  0.00    -0.307 N
HETATM   13  C8  UNL     1     -50.245  -2.744 -27.444  1.00  0.00     0.228 C
HETATM   14  O2  UNL     1     -50.689  -2.421 -28.588  1.00  0.00    -0.273 OA
ATOM     15  H2  UNL     1     -51.567  -4.131 -26.512  1.00  0.00     0.171 HD
BRANCH  13  16
HETATM   16  C9  UNL     1     -48.808  -2.652 -27.195  1.00  0.00     0.149 C
BRANCH  16  17
HETATM   17  C10 UNL     1     -48.196  -4.013 -27.414  1.00  0.00    -0.009 A
HETATM   18  C11 UNL     1     -47.705  -4.514 -28.593  1.00  0.00     0.015 A
HETATM   19  C12 UNL     1     -47.201  -5.752 -28.574  1.00  0.00     0.008 A
HETATM   20  C13 UNL     1     -47.217  -6.419 -27.377  1.00  0.00     0.050 A
HETATM   21  S4  UNL     1     -47.935  -5.294 -26.320  1.00  0.00    -0.106 SA
ENDBRANCH  16  17
ENDBRANCH  13  16
ENDBRANCH   9  12
BRANCH   1  22
HETATM   22  S1  UNL     1     -54.565   1.587 -24.648  1.00  0.00    -0.122 SA
BRANCH  22  23
HETATM   23  C2  UNL     1     -56.078   0.692 -24.978  1.00  0.00     0.149 C
BRANCH  23  24
HETATM   24  C1  UNL     1     -56.442   0.850 -26.413  1.00  0.00     0.241 C
HETATM   25  O1  UNL     1     -56.081  -0.049 -27.166  1.00  0.00    -0.306 OA
ENDBRANCH  23  24
ENDBRANCH  22  23
ENDBRANCH   1  22
TORSDOF 6
ENDMDL