MODEL 3
REMARK VINA RESULT: -4.420273604      7.417      8.877
REMARK  5 active torsions:
REMARK  status: ('A' for Active; 'I' for Inactive)
REMARK    1  A    between atoms: N1_7  and  C7_8
REMARK    2  A    between atoms: C7_8  and  O1_9
REMARK    3  A    between atoms: C7_8  and  C8_11
REMARK    4  A    between atoms: C8_11  and  N2_12
REMARK    5  A    between atoms: N2_12  and  N3_14
ROOT
HETATM    1  C7  UNL     1      11.967  -9.687 -25.971  1.00  0.00     0.376 C
ENDROOT
BRANCH   1   2
HETATM    2  N1  UNL     1      11.126  -9.141 -24.939  1.00  0.00     0.127 N
HETATM    3  C2  UNL     1       9.977  -8.478 -25.451  1.00  0.00     0.223 C
HETATM    4  C1  UNL     1       8.685  -8.957 -24.843  1.00  0.00     0.043 C
HETATM    5  C3  UNL     1      10.115  -7.006 -25.125  1.00  0.00     0.037 C
HETATM    6  C4  UNL     1      11.529  -6.879 -24.661  1.00  0.00     0.037 C
HETATM    7  C5  UNL     1      11.894  -8.240 -24.143  1.00  0.00     0.223 C
HETATM    8  C6  UNL     1      11.646  -8.383 -22.662  1.00  0.00     0.043 C
ENDBRANCH   1   2
BRANCH   1   9
HETATM    9  O1  UNL     1      11.190  -9.994 -27.116  1.00  0.00    -0.366 OA
ATOM     10  H1  UNL     1      11.722 -10.455 -27.755  1.00  0.00     0.212 HD
ENDBRANCH   1   9
BRANCH   1  11
HETATM   11  C8  UNL     1      12.676 -10.957 -25.521  1.00  0.00     0.205 C
BRANCH  11  12
HETATM   12  N2  UNL     1      11.654 -11.762 -24.858  1.00  0.00    -0.318 N
ATOM     13  H2  UNL     1      11.682 -11.889 -23.846  1.00  0.00     0.181 HD
BRANCH  12  14
HETATM   14  N3  UNL     1      10.769 -12.283 -25.514  1.00  0.00    -0.254 N
HETATM   15  N4  UNL     1       9.644 -12.558 -25.890  1.00  0.00    -0.331 N
ATOM     16  H42 UNL     1       9.137 -11.976 -25.224  1.00  0.00     0.178 HD
ATOM     17  H41 UNL     1       8.903 -12.994 -26.439  1.00  0.00     0.178 HD
ATOM     18  H3  UNL     1      11.323 -12.847 -26.157  1.00  0.00     0.207 HD
ENDBRANCH  12  14
ENDBRANCH  11  12
ENDBRANCH   1  11
TORSDOF 5
ENDMDL