MODEL 4
REMARK VINA RESULT: -4.324614719      2.183      5.383
REMARK  4 active torsions:
REMARK  status: ('A' for Active; 'I' for Inactive)
REMARK    1  A    between atoms: C2_2  and  C3_3
REMARK    2  A    between atoms: C3_3  and  N1_4
REMARK    3  A    between atoms: N1_4  and  C4_5
REMARK    4  A    between atoms: N1_4  and  C7_12
ROOT
HETATM    1  N1  UNL     1      10.860  -9.427 -25.274  1.00  0.00    -0.345 N
ENDROOT
BRANCH   1   2
HETATM    2  C3  UNL     1      10.472  -8.543 -24.200  1.00  0.00     0.153 C
BRANCH   2   3
HETATM    3  C2  UNL     1      11.275  -7.293 -24.147  1.00  0.00    -0.017 C
HETATM    4  C1  UNL     1      10.888  -6.211 -24.784  1.00  0.00     0.008 C
ENDBRANCH   2   3
ENDBRANCH   1   2
BRANCH   1   5
HETATM    5  C4  UNL     1      11.942 -10.315 -25.053  1.00  0.00     0.173 C
HETATM    6  N2  UNL     1      12.797 -10.751 -25.908  1.00  0.00    -0.361 N
HETATM    7  C5  UNL     1      13.766 -11.641 -25.348  1.00  0.00     0.142 C
ATOM      8  H2  UNL     1      12.784 -10.488 -26.893  1.00  0.00     0.162 HD
HETATM    9  C6  UNL     1      13.242 -11.958 -23.973  1.00  0.00     0.142 C
HETATM   10  N3  UNL     1      12.262 -10.887 -23.800  1.00  0.00    -0.361 N
ATOM     11  H3  UNL     1      11.866 -10.595 -22.906  1.00  0.00     0.162 HD
ENDBRANCH   1   5
BRANCH   1  12
HETATM   12  C7  UNL     1      10.185  -9.433 -26.514  1.00  0.00     0.087 C
HETATM   13  C8  UNL     1      10.742  -8.557 -27.595  1.00  0.00     0.025 C
HETATM   14  C9  UNL     1       9.699  -8.801 -28.694  1.00  0.00     0.002 C
HETATM   15  C10 UNL     1       8.402  -8.874 -27.920  1.00  0.00     0.002 C
HETATM   16  C11 UNL     1       8.749  -8.952 -26.449  1.00  0.00     0.025 C
ENDBRANCH   1  12
TORSDOF 4
ENDMDL