MODEL 4
REMARK VINA RESULT: -4.567078962      2.572      4.524
REMARK  4 active torsions:
REMARK  status: ('A' for Active; 'I' for Inactive)
REMARK    1  A    between atoms: O1_2  and  C2_3
REMARK    2  A    between atoms: C2_3  and  C4_5
REMARK    3  A    between atoms: C7_8  and  C8_9
REMARK    4  A    between atoms: C8_9  and  O2_12
ROOT
HETATM    1  C4  UNL     1      12.136 -11.011 -26.039  1.00  0.00     0.150 C
HETATM    2  C5  UNL     1      12.959 -11.433 -24.861  1.00  0.00     0.037 C
HETATM    3  C6  UNL     1      12.681 -10.300 -23.866  1.00  0.00     0.037 C
HETATM    4  C7  UNL     1      12.171  -9.240 -24.806  1.00  0.00     0.155 C
HETATM    5  O3  UNL     1      11.293  -9.977 -25.599  1.00  0.00    -0.375 OA
ENDROOT
BRANCH   4   6
HETATM    6  C8  UNL     1      11.509  -8.095 -24.104  1.00  0.00     0.076 C
HETATM    7  C9  UNL     1      11.843  -8.194 -22.634  1.00  0.00     0.048 C
HETATM    8  C10 UNL     1      10.040  -8.002 -24.313  1.00  0.00     0.048 C
BRANCH   6   9
HETATM    9  O2  UNL     1      12.106  -6.917 -24.571  1.00  0.00    -0.388 OA
ATOM     10  H2  UNL     1      13.042  -7.073 -24.615  1.00  0.00     0.210 HD
ENDBRANCH   6   9
ENDBRANCH   4   6
BRANCH   1  11
HETATM   11  C2  UNL     1      11.340 -12.137 -26.643  1.00  0.00     0.145 C
HETATM   12  C3  UNL     1      10.277 -11.670 -27.584  1.00  0.00     0.042 C
BRANCH  11  13
HETATM   13  O1  UNL     1      10.794 -12.871 -25.597  1.00  0.00    -0.389 OA
HETATM   14  C1  UNL     1       9.560 -13.431 -25.978  1.00  0.00     0.202 C
ENDBRANCH  11  13
ENDBRANCH   1  11
TORSDOF 4
ENDMDL