MODEL 4
REMARK VINA RESULT: -4.429008073      1.433      2.331
REMARK  3 active torsions:
REMARK  status: ('A' for Active; 'I' for Inactive)
REMARK    1  A    between atoms: C3_4  and  C5_6
REMARK    2  A    between atoms: C6_7  and  C7_8
REMARK    3  A    between atoms: C8_9  and  C9_10
ROOT
HETATM    1  C5  UNL     1      12.184 -11.112 -24.626  1.00  0.00     0.018 C
HETATM    2  C6  UNL     1      12.668  -9.906 -24.464  1.00  0.00    -0.001 C
ENDROOT
BRANCH   1   3
HETATM    3  C3  UNL     1      12.216 -11.868 -25.890  1.00  0.00     0.139 C
HETATM    4  O1  UNL     1      12.034 -11.118 -27.043  1.00  0.00    -0.356 OA
HETATM    5  C2  UNL     1      10.747 -11.556 -27.247  1.00  0.00     0.192 C
HETATM    6  C1  UNL     1      10.507 -12.278 -28.569  1.00  0.00     0.048 C
HETATM    7  C10 UNL     1      10.920 -12.532 -26.163  1.00  0.00     0.193 C
HETATM    8  O2  UNL     1      10.234 -13.454 -25.749  1.00  0.00    -0.291 OA
HETATM    9  C4  UNL     1      13.435 -12.752 -26.013  1.00  0.00     0.059 C
ENDBRANCH   1   3
BRANCH   2  10
HETATM   10  C7  UNL     1      12.594  -9.233 -23.181  1.00  0.00     0.001 C
HETATM   11  C8  UNL     1      11.935  -8.114 -22.976  1.00  0.00     0.016 C
BRANCH  11  12
HETATM   12  C9  UNL     1      11.196  -7.407 -24.009  1.00  0.00     0.080 C
HETATM   13  N1  UNL     1      11.721  -6.395 -24.610  1.00  0.00    -0.408 N
ATOM     14  H12 UNL     1      12.661  -6.101 -24.348  1.00  0.00     0.155 HD
ATOM     15  H11 UNL     1      11.202  -5.899 -25.335  1.00  0.00     0.155 HD
ENDBRANCH  11  12
ENDBRANCH   2  10
TORSDOF 3
ENDMDL