MODEL 3
REMARK VINA RESULT: -4.477867315      5.068      6.971
REMARK  3 active torsions:
REMARK  status: ('A' for Active; 'I' for Inactive)
REMARK    1  A    between atoms: C4_4  and  C5_5
REMARK    2  A    between atoms: C5_5  and  N1_6
REMARK    3  A    between atoms: N1_6  and  C6_8
ROOT
HETATM    1  N1  UNL     1       8.772  -7.313 -26.080  1.00  0.00    -0.393 N
ATOM      2  H1  UNL     1       8.772  -6.750 -26.930  1.00  0.00     0.159 HD
ENDROOT
BRANCH   1   3
HETATM    3  C5  UNL     1       7.564  -7.807 -25.553  1.00  0.00     0.060 C
BRANCH   3   4
HETATM    4  C4  UNL     1       6.492  -6.758 -25.695  1.00  0.00     0.024 C
HETATM    5  C3  UNL     1       7.086  -5.342 -25.699  1.00  0.00     0.010 C
HETATM    6  C2  UNL     1       5.789  -4.549 -25.493  1.00  0.00     0.001 C
HETATM    7  C1  UNL     1       5.217  -5.258 -24.289  1.00  0.00     0.001 C
HETATM    8  C10 UNL     1       5.546  -6.700 -24.531  1.00  0.00     0.010 C
ENDBRANCH   3   4
ENDBRANCH   1   3
BRANCH   1   9
HETATM    9  C6  UNL     1       9.971  -7.604 -25.422  1.00  0.00     0.128 C
HETATM   10  C7  UNL     1      10.737  -6.472 -24.845  1.00  0.00     0.197 C
HETATM   11  O1  UNL     1      12.000  -6.977 -24.461  1.00  0.00    -0.365 OA
HETATM   12  C8  UNL     1      11.904  -8.234 -23.896  1.00  0.00     0.337 C
HETATM   13  O2  UNL     1      10.655  -8.439 -23.314  1.00  0.00    -0.365 OA
HETATM   14  C9  UNL     1       9.669  -8.581 -24.275  1.00  0.00     0.197 C
ENDBRANCH   1   9
TORSDOF 3
ENDMDL