MODEL 5
REMARK VINA RESULT: -4.150629508      2.965      4.221
REMARK  3 active torsions:
REMARK  status: ('A' for Active; 'I' for Inactive)
REMARK    1  A    between atoms: S1_2  and  C2_3
REMARK    2  A    between atoms: C2_3  and  N1_4
REMARK    3  A    between atoms: C3_6  and  C4_7
ROOT
HETATM    1  C4  UNL     1       9.792  -8.398 -25.020  1.00  0.00    -0.003 C
HETATM    2  C5  UNL     1       9.420  -6.925 -25.078  1.00  0.00     0.042 C
HETATM    3  C6  UNL     1      10.634  -6.055 -25.014  1.00  0.00     0.233 C
HETATM    4  N2  UNL     1      11.738  -6.648 -24.303  1.00  0.00    -0.071 N
ATOM      5  H21 UNL     1      11.823  -6.242 -23.371  1.00  0.00     0.277 HD
ATOM      6  H22 UNL     1      12.626  -6.346 -24.704  1.00  0.00     0.277 HD
HETATM    7  C7  UNL     1      11.682  -8.080 -24.225  1.00  0.00     0.188 C
HETATM    8  C8  UNL     1      11.160  -8.679 -25.540  1.00  0.00     0.048 C
HETATM    9  C9  UNL     1      10.389  -8.590 -23.619  1.00  0.00     0.048 C
ENDROOT
BRANCH   1  10
HETATM   10  C3  UNL     1       8.690  -9.292 -25.358  1.00  0.00     0.070 C
HETATM   11  N1  UNL     1       8.944 -10.508 -25.597  1.00  0.00    -0.373 N
ATOM     12  H1  UNL     1       9.928 -10.767 -25.532  1.00  0.00     0.164 HD
BRANCH  11  13
HETATM   13  C2  UNL     1       8.071 -11.556 -25.939  1.00  0.00     0.132 C
BRANCH  13  14
HETATM   14  S1  UNL     1       9.020 -13.065 -26.211  1.00  0.00    -0.129 SA
HETATM   15  C1  UNL     1      10.794 -12.830 -26.097  1.00  0.00     0.096 C
ENDBRANCH  13  14
ENDBRANCH  11  13
ENDBRANCH   1  10
TORSDOF 3
ENDMDL