MODEL 2
REMARK VINA RESULT: -4.597150642      3.218      5.729
REMARK  6 active torsions:
REMARK  status: ('A' for Active; 'I' for Inactive)
REMARK    1  A    between atoms: C2_2  and  C3_3
REMARK    2  A    between atoms: C2_2  and  N4_10
REMARK    3  A    between atoms: C3_3  and  N1_4
REMARK    4  A    between atoms: N1_4  and  N2_6
REMARK    5  A    between atoms: N2_6  and  N3_7
REMARK    6  A    between atoms: C6_13  and  O1_14
ROOT
HETATM    1  C1  UNL     1      11.959  -8.398 -22.653  1.00  0.00     0.045 C
HETATM    2  C2  UNL     1      11.916  -8.423 -24.158  1.00  0.00     0.239 C
ENDROOT
BRANCH   2   3
HETATM    3  C3  UNL     1      10.747  -7.543 -24.549  1.00  0.00     0.191 C
BRANCH   3   4
HETATM    4  N1  UNL     1      11.100  -6.189 -24.812  1.00  0.00    -0.251 N
ATOM      5  H1  UNL     1      12.073  -5.940 -24.995  1.00  0.00     0.197 HD
BRANCH   4   6
HETATM    6  N2  UNL     1      10.231  -5.326 -24.818  1.00  0.00    -0.249 NA
BRANCH   6   7
HETATM    7  N3  UNL     1       9.290  -4.604 -25.130  1.00  0.00    -0.261 N
ATOM      8  H32 UNL     1       9.254  -4.942 -26.092  1.00  0.00     0.193 HD
ATOM      9  H31 UNL     1       8.532  -3.921 -25.116  1.00  0.00     0.193 HD
ENDBRANCH   6   7
ENDBRANCH   4   6
ENDBRANCH   3   4
ENDBRANCH   2   3
BRANCH   2  10
HETATM   10  N4  UNL     1      11.748  -9.744 -24.705  1.00  0.00     0.094 N
HETATM   11  C4  UNL     1      11.138  -9.645 -25.976  1.00  0.00     0.275 C
HETATM   12  C5  UNL     1      11.607 -10.506 -27.084  1.00  0.00     0.062 C
HETATM   13  C6  UNL     1      12.968 -11.105 -26.910  1.00  0.00     0.121 C
HETATM   14  C7  UNL     1      12.948 -11.725 -25.518  1.00  0.00     0.062 C
HETATM   15  C8  UNL     1      12.913 -10.544 -24.564  1.00  0.00     0.275 C
BRANCH  13  16
HETATM   16  O1  UNL     1      13.206 -12.115 -27.812  1.00  0.00    -0.395 OA
ATOM     17  H1  UNL     1      13.976 -12.623 -27.584  1.00  0.00     0.210 HD
ENDBRANCH  13  16
ENDBRANCH   2  10
TORSDOF 6
ENDMDL