MODEL 1
REMARK VINA RESULT: -4.545705478      0.000      0.000
REMARK  6 active torsions:
REMARK  status: ('A' for Active; 'I' for Inactive)
REMARK    1  A    between atoms: N1_1  and  N2_4
REMARK    2  A    between atoms: N2_4  and  N3_5
REMARK    3  A    between atoms: N3_5  and  C1_7
REMARK    4  A    between atoms: C1_7  and  C2_8
REMARK    5  A    between atoms: C2_8  and  N4_9
REMARK    6  A    between atoms: C6_13  and  O1_14
ROOT
HETATM    1  N4  UNL     1      11.849  -9.724 -25.558  1.00  0.00    -0.392 N
HETATM    2  C3  UNL     1      11.559  -9.915 -24.185  1.00  0.00     0.122 C
HETATM    3  C4  UNL     1      12.277  -8.822 -23.431  1.00  0.00     0.022 C
HETATM    4  C5  UNL     1      11.861  -7.455 -23.683  1.00  0.00     0.033 C
HETATM    5  C6  UNL     1      10.813  -7.143 -24.672  1.00  0.00     0.119 C
HETATM    6  C7  UNL     1      10.990  -7.626 -26.057  1.00  0.00     0.051 C
HETATM    7  C8  UNL     1      10.723  -9.132 -26.206  1.00  0.00     0.124 C
ENDROOT
BRANCH   1   8
HETATM    8  C2  UNL     1      12.557 -10.703 -26.253  1.00  0.00     0.080 C
BRANCH   8   9
HETATM    9  C1  UNL     1      13.150 -11.739 -25.298  1.00  0.00     0.199 C
BRANCH   9  10
HETATM   10  N3  UNL     1      14.598 -11.605 -25.233  1.00  0.00    -0.248 N
ATOM     11  H3  UNL     1      15.020 -10.691 -25.396  1.00  0.00     0.197 HD
BRANCH  10  12
HETATM   12  N2  UNL     1      15.334 -12.577 -24.983  1.00  0.00    -0.248 NA
BRANCH  12  13
HETATM   13  N1  UNL     1      16.205 -13.294 -24.476  1.00  0.00    -0.261 N
ATOM     14  H12 UNL     1      15.851 -13.216 -23.523  1.00  0.00     0.193 HD
ATOM     15  H11 UNL     1      17.019 -13.898 -24.359  1.00  0.00     0.193 HD
ENDBRANCH  12  13
ENDBRANCH  10  12
ENDBRANCH   9  10
ENDBRANCH   8   9
ENDBRANCH   1   8
BRANCH   5  16
HETATM   16  O1  UNL     1      10.787  -5.725 -24.773  1.00  0.00    -0.396 OA
ATOM     17  H1  UNL     1      10.441  -5.534 -25.637  1.00  0.00     0.210 HD
ENDBRANCH   5  16
TORSDOF 6
ENDMDL