MODEL 2
REMARK VINA RESULT: -4.391639112      2.988      4.846
REMARK  4 active torsions:
REMARK  status: ('A' for Active; 'I' for Inactive)
REMARK    1  A    between atoms: C2_2  and  C4_4
REMARK    2  A    between atoms: C4_4  and  O1_6
REMARK    3  A    between atoms: O1_6  and  C6_7
REMARK    4  A    between atoms: C8_10  and  O3_11
ROOT
HETATM    1  C6  UNL     1       8.379  -8.036 -25.719  1.00  0.00     0.154 C
HETATM    2  C7  UNL     1       7.556  -9.281 -25.461  1.00  0.00     0.203 C
HETATM    3  O2  UNL     1       6.235  -8.937 -25.528  1.00  0.00    -0.358 OA
HETATM    4  C8  UNL     1       6.140  -7.557 -25.342  1.00  0.00     0.263 C
HETATM    5  C9  UNL     1       7.320  -7.064 -26.153  1.00  0.00     0.068 C
HETATM    6  C10 UNL     1       7.670  -5.636 -25.851  1.00  0.00     0.017 C
ENDROOT
BRANCH   1   7
HETATM    7  O1  UNL     1       9.078  -7.631 -24.596  1.00  0.00    -0.378 OA
BRANCH   7   8
HETATM    8  C4  UNL     1      10.454  -7.752 -24.746  1.00  0.00     0.121 C
HETATM    9  C5  UNL     1      11.179  -6.439 -24.643  1.00  0.00     0.040 C
BRANCH   8  10
HETATM   10  C2  UNL     1      11.035  -8.800 -23.821  1.00  0.00     0.006 C
HETATM   11  C1  UNL     1      11.811  -9.812 -24.638  1.00  0.00     0.012 C
HETATM   12  C3  UNL     1      11.915  -8.201 -22.760  1.00  0.00     0.012 C
ENDBRANCH   8  10
ENDBRANCH   7   8
ENDBRANCH   1   7
BRANCH   4  13
HETATM   13  O3  UNL     1       6.373  -7.202 -24.014  1.00  0.00    -0.371 OA
ATOM     14  H3  UNL     1       5.743  -6.561 -23.707  1.00  0.00     0.212 HD
ENDBRANCH   4  13
TORSDOF 4
ENDMDL