MODEL 3
REMARK VINA RESULT: -4.858861397      4.324      6.242
REMARK  4 active torsions:
REMARK  status: ('A' for Active; 'I' for Inactive)
REMARK    1  A    between atoms: C2_2  and  C4_4
REMARK    2  A    between atoms: C4_4  and  N1_5
REMARK    3  A    between atoms: N1_5  and  C5_7
REMARK    4  A    between atoms: C6_10  and  C7_11
ROOT
HETATM    1  C5  UNL     1      13.550 -11.287 -24.748  1.00  0.00     0.244 A
HETATM    2  N2  UNL     1      13.154 -10.006 -24.685  1.00  0.00    -0.309 N
ATOM      3  H2  UNL     1      13.472  -9.265 -25.311  1.00  0.00     0.170 HD
HETATM    4  C6  UNL     1      12.279  -9.839 -23.679  1.00  0.00     0.109 A
HETATM    5  N3  UNL     1      12.157 -11.078 -23.130  1.00  0.00    -0.245 N
ATOM      6  H3  UNL     1      11.563 -11.313 -22.335  1.00  0.00     0.196 HD
HETATM    7  O1  UNL     1      12.904 -11.906 -23.766  1.00  0.00    -0.200 OA
ENDROOT
BRANCH   1   8
HETATM    8  N1  UNL     1      14.380 -11.795 -25.588  1.00  0.00    -0.354 N
ATOM      9  H1  UNL     1      14.356 -11.521 -26.570  1.00  0.00     0.163 HD
BRANCH   8  10
HETATM   10  C4  UNL     1      15.335 -12.744 -25.125  1.00  0.00     0.127 C
BRANCH  10  11
HETATM   11  C2  UNL     1      16.728 -12.200 -24.996  1.00  0.00    -0.005 C
HETATM   12  C1  UNL     1      17.469 -13.070 -23.995  1.00  0.00     0.011 C
HETATM   13  C3  UNL     1      17.451 -12.069 -26.290  1.00  0.00     0.011 C
ENDBRANCH  10  11
ENDBRANCH   8  10
ENDBRANCH   1   8
BRANCH   4  14
HETATM   14  C7  UNL     1      11.574  -8.615 -23.224  1.00  0.00     0.055 A
HETATM   15  C8  UNL     1      10.337  -8.181 -23.947  1.00  0.00     0.013 A
HETATM   16  C9  UNL     1      11.645  -7.438 -24.131  1.00  0.00     0.013 A
ENDBRANCH   4  14
TORSDOF 4
ENDMDL