MODEL 1
REMARK VINA RESULT: -7.480873834      0.000      0.000
REMARK  16 active torsions:
REMARK  status: ('A' for Active; 'I' for Inactive)
REMARK    1  A    between atoms: C2_2  and  O2_4
REMARK    2  A    between atoms: O2_4  and  C3_5
REMARK    3  A    between atoms: C4_6  and  O3_7
REMARK    4  A    between atoms: O3_7  and  C5_8
REMARK    5  A    between atoms: C7_11  and  O5_12
REMARK    6  A    between atoms: O5_12  and  C8_13
REMARK    7  A    between atoms: C10_16  and  N1_17
REMARK    8  A    between atoms: N1_17  and  O7_18
REMARK    9  A    between atoms: N1_17  and  C11_20
REMARK   10  A    between atoms: C13_22  and  O8_23
REMARK   11  A    between atoms: O8_23  and  C14_24
REMARK   12  A    between atoms: C16_33  and  N5_34
REMARK   13  A    between atoms: C17_39  and  O10_40
REMARK   14  A    between atoms: O10_40  and  C18_41
REMARK   15  A    between atoms: C20_44  and  O12_45
REMARK   16  A    between atoms: O12_45  and  C21_46
ROOT
HETATM    1  C3  UNL     1      17.222   6.496   8.424  1.00  0.00     0.196 C
HETATM    2  C4  UNL     1      18.186   5.446   8.879  1.00  0.00     0.196 C
HETATM    3  C7  UNL     1      18.294   5.437  10.394  1.00  0.00     0.192 C
HETATM    4  C10 UNL     1      16.902   5.209  10.944  1.00  0.00     0.180 C
HETATM    5  C17 UNL     1      16.122   6.463  10.582  1.00  0.00     0.192 C
HETATM    6  C20 UNL     1      15.865   6.382   9.103  1.00  0.00     0.196 C
ENDROOT
BRANCH   4   7
HETATM    7  N1  UNL     1      16.885   4.922  12.345  1.00  0.00    -0.234 N
BRANCH   7   8
HETATM    8  O7  UNL     1      16.911   5.891  13.266  1.00  0.00    -0.285 OA
ATOM      9  H7  UNL     1      17.362   5.784  14.095  1.00  0.00     0.245 HD
ENDBRANCH   7   8
BRANCH   7  10
HETATM   10  C11 UNL     1      16.840   3.572  12.793  1.00  0.00     0.146 C
HETATM   11  C12 UNL     1      16.908   3.328  14.134  1.00  0.00     0.094 C
HETATM   12  C13 UNL     1      16.576   2.194  14.841  1.00  0.00     0.150 C
HETATM   13  C15 UNL     1      16.664   0.899  14.317  1.00  0.00     0.293 C
HETATM   14  O9  UNL     1      16.631  -0.007  15.175  1.00  0.00    -0.265 OA
HETATM   15  N4  UNL     1      16.778   0.519  13.020  1.00  0.00    -0.154 N
HETATM   16  C16 UNL     1      16.621   1.280  11.928  1.00  0.00     0.680 C
ATOM     17  H4  UNL     1      17.011  -0.461  12.856  1.00  0.00     0.187 HD
HETATM   18  N6  UNL     1      16.732   2.607  11.835  1.00  0.00    -0.175 N
ATOM     19  H6  UNL     1      16.736   2.962  10.879  1.00  0.00     0.186 HD
BRANCH  12  20
HETATM   20  O8  UNL     1      16.131   2.271  16.133  1.00  0.00    -0.276 OA
BRANCH  20  21
HETATM   21  C14 UNL     1      14.804   2.283  16.476  1.00  0.00     0.230 C
HETATM   22  N2  UNL     1      14.221   3.445  16.575  1.00  0.00    -0.368 N
ATOM     23  H22 UNL     1      14.796   4.267  16.390  1.00  0.00     0.159 HD
ATOM     24  H21 UNL     1      13.234   3.455  16.830  1.00  0.00     0.159 HD
HETATM   25  N3  UNL     1      14.006   1.140  16.732  1.00  0.00    -0.056 NA
ENDBRANCH  20  21
ENDBRANCH  12  20
BRANCH  16  26
HETATM   26  N5  UNL     1      16.329   0.605  10.861  1.00  0.00    -0.234 N
ATOM     27  H52 UNL     1      15.655  -0.157  10.933  1.00  0.00     0.174 HD
ATOM     28  H51 UNL     1      16.825   0.921  10.027  1.00  0.00     0.174 HD
ENDBRANCH  16  26
ENDBRANCH   7  10
ENDBRANCH   4   7
BRANCH   3  29
HETATM   29  O5  UNL     1      19.251   4.576  10.883  1.00  0.00    -0.311 OA
BRANCH  29  30
HETATM   30  C8  UNL     1      20.333   4.897  11.665  1.00  0.00     0.255 C
HETATM   31  C9  UNL     1      21.700   4.699  11.122  1.00  0.00     0.126 C
HETATM   32  O6  UNL     1      20.106   5.349  12.817  1.00  0.00    -0.266 OA
ENDBRANCH  29  30
ENDBRANCH   3  29
BRANCH   5  33
HETATM   33  O10 UNL     1      15.022   6.696  11.370  1.00  0.00    -0.311 OA
BRANCH  33  34
HETATM   34  C18 UNL     1      14.564   7.973  11.709  1.00  0.00     0.255 C
HETATM   35  C19 UNL     1      15.260   9.214  11.343  1.00  0.00     0.126 C
HETATM   36  O11 UNL     1      13.496   7.975  12.362  1.00  0.00    -0.266 OA
ENDBRANCH  33  34
ENDBRANCH   5  33
BRANCH   2  37
HETATM   37  O3  UNL     1      19.467   5.792   8.384  1.00  0.00    -0.311 OA
BRANCH  37  38
HETATM   38  C5  UNL     1      20.212   4.972   7.567  1.00  0.00     0.255 C
HETATM   39  C6  UNL     1      20.731   5.584   6.297  1.00  0.00     0.126 C
HETATM   40  O4  UNL     1      20.426   3.795   7.888  1.00  0.00    -0.266 OA
ENDBRANCH  37  38
ENDBRANCH   2  37
BRANCH   6  41
HETATM   41  O12 UNL     1      15.108   7.504   8.642  1.00  0.00    -0.311 OA
BRANCH  41  42
HETATM   42  C21 UNL     1      13.873   7.345   8.064  1.00  0.00     0.255 C
HETATM   43  C22 UNL     1      12.742   8.183   8.494  1.00  0.00     0.126 C
HETATM   44  O13 UNL     1      13.703   6.493   7.174  1.00  0.00    -0.266 OA
ENDBRANCH  41  42
ENDBRANCH   6  41
BRANCH   1  45
HETATM   45  O2  UNL     1      17.110   6.421   7.021  1.00  0.00    -0.311 OA
BRANCH  45  46
HETATM   46  C2  UNL     1      17.226   7.601   6.298  1.00  0.00     0.255 C
HETATM   47  C1  UNL     1      18.384   8.507   6.439  1.00  0.00     0.126 C
HETATM   48  O1  UNL     1      16.325   7.955   5.471  1.00  0.00    -0.266 OA
ENDBRANCH  45  46
ENDBRANCH   1  45
TORSDOF 16
ENDMDL