MODEL 4
REMARK VINA RESULT: -7.482344320      1.568      2.846
REMARK  18 active torsions:
REMARK  status: ('A' for Active; 'I' for Inactive)
REMARK    1  A    between atoms: C2_2  and  C3_3
REMARK    2  A    between atoms: C3_3  and  O2_5
REMARK    3  A    between atoms: O2_5  and  C4_6
REMARK    4  A    between atoms: C4_6  and  C5_7
REMARK    5  A    between atoms: C6_9  and  O4_10
REMARK    6  A    between atoms: O4_10  and  C7_11
REMARK    7  A    between atoms: C8_13  and  C9_14
REMARK    8  A    between atoms: C9_14  and  O6_15
REMARK    9  A    between atoms: C9_14  and  O7_17
REMARK   10  A    between atoms: C10_19  and  O8_20
REMARK   11  A    between atoms: O8_20  and  C11_21
REMARK   12  A    between atoms: C13_24  and  O10_25
REMARK   13  A    between atoms: N1_28  and  O11_30
REMARK   14  A    between atoms: C15_32  and  N2_33
REMARK   15  A    between atoms: C16_37  and  N3_38
REMARK   16  A    between atoms: C20_42  and  O12_43
REMARK   17  A    between atoms: O12_43  and  C21_44
REMARK   18  A    between atoms: C23_47  and  O14_48
ROOT
HETATM    1  C7  UNL     1      16.962   5.143  11.897  1.00  0.00     0.273 C
HETATM    2  O5  UNL     1      15.807   5.137  12.669  1.00  0.00    -0.348 OA
HETATM    3  C8  UNL     1      15.431   4.142  13.449  1.00  0.00     0.212 C
HETATM    4  C10 UNL     1      15.961   2.762  13.155  1.00  0.00     0.206 C
HETATM    5  C13 UNL     1      16.758   2.798  11.873  1.00  0.00     0.139 C
HETATM    6  C14 UNL     1      17.600   1.692  11.517  1.00  0.00     0.080 C
HETATM    7  N1  UNL     1      17.633   0.461  11.783  1.00  0.00    -0.272 N
ATOM      8  H1  UNL     1      16.886   0.151  12.404  1.00  0.00     0.193 HD
HETATM    9  C15 UNL     1      18.601   2.394  10.595  1.00  0.00     0.267 C
HETATM   10  C16 UNL     1      18.968   3.605  11.438  1.00  0.00     0.270 C
HETATM   11  C19 UNL     1      17.754   3.939  12.163  1.00  0.00     0.120 C
ENDROOT
BRANCH   1  12
HETATM   12  O4  UNL     1      16.553   5.360  10.584  1.00  0.00    -0.328 OA
BRANCH  12  13
HETATM   13  C6  UNL     1      16.494   6.703  10.250  1.00  0.00     0.295 C
HETATM   14  O3  UNL     1      17.560   7.049   9.474  1.00  0.00    -0.348 OA
HETATM   15  C5  UNL     1      17.193   8.200   8.756  1.00  0.00     0.180 C
HETATM   16  C23 UNL     1      15.730   8.110   8.518  1.00  0.00     0.186 C
HETATM   17  C20 UNL     1      15.249   6.990   9.421  1.00  0.00     0.218 C
BRANCH  15  18
HETATM   18  C4  UNL     1      18.024   8.175   7.502  1.00  0.00     0.213 C
BRANCH  18  19
HETATM   19  O2  UNL     1      18.716   7.000   7.262  1.00  0.00    -0.319 OA
BRANCH  19  20
HETATM   20  C3  UNL     1      18.333   6.020   6.347  1.00  0.00     0.258 C
HETATM   21  O1  UNL     1      17.377   5.268   6.631  1.00  0.00    -0.265 OA
BRANCH  20  22
HETATM   22  C2  UNL     1      19.094   5.913   5.048  1.00  0.00     0.106 C
HETATM   23  C1  UNL     1      20.534   5.626   5.416  1.00  0.00     0.015 C
ENDBRANCH  20  22
ENDBRANCH  19  20
ENDBRANCH  18  19
ENDBRANCH  15  18
BRANCH  16  24
HETATM   24  O14 UNL     1      15.424   7.854   7.184  1.00  0.00    -0.385 OA
HETATM   25  C24 UNL     1      14.506   8.729   6.656  1.00  0.00     0.202 C
ENDBRANCH  16  24
BRANCH  17  26
HETATM   26  O12 UNL     1      14.139   7.309  10.201  1.00  0.00    -0.309 OA
BRANCH  26  27
HETATM   27  C21 UNL     1      14.208   7.970  11.415  1.00  0.00     0.255 C
HETATM   28  C22 UNL     1      13.557   7.501  12.661  1.00  0.00     0.126 C
HETATM   29  O13 UNL     1      14.870   9.045  11.456  1.00  0.00    -0.266 OA
ENDBRANCH  26  27
ENDBRANCH  17  26
ENDBRANCH  12  13
ENDBRANCH   1  12
BRANCH   3  30
HETATM   30  C9  UNL     1      15.665   4.514  14.885  1.00  0.00     0.285 C
BRANCH  30  31
HETATM   31  O6  UNL     1      14.662   4.132  15.759  1.00  0.00    -0.369 OA
ATOM     32  H6  UNL     1      14.797   3.293  16.182  1.00  0.00     0.212 HD
ENDBRANCH  30  31
BRANCH  30  33
HETATM   33  O7  UNL     1      15.683   5.938  14.965  1.00  0.00    -0.369 OA
ATOM     34  H7  UNL     1      16.579   6.205  15.135  1.00  0.00     0.212 HD
ENDBRANCH  30  33
ENDBRANCH   3  30
BRANCH   5  35
HETATM   35  O10 UNL     1      15.894   3.130  10.822  1.00  0.00    -0.380 OA
ATOM     36  H10 UNL     1      15.618   4.033  10.933  1.00  0.00     0.211 HD
ENDBRANCH   5  35
BRANCH  10  37
HETATM   37  N3  UNL     1      19.713   4.609  10.769  1.00  0.00     0.087 N
HETATM   38  C17 UNL     1      19.779   4.392   9.328  1.00  0.00     0.310 C
HETATM   39  C18 UNL     1      21.123   4.522  11.200  1.00  0.00     0.310 C
ENDBRANCH  10  37
BRANCH   4  40
HETATM   40  O8  UNL     1      16.808   2.279  14.167  1.00  0.00    -0.310 OA
BRANCH  40  41
HETATM   41  C11 UNL     1      16.542   1.208  14.996  1.00  0.00     0.255 C
HETATM   42  C12 UNL     1      16.346   1.351  16.465  1.00  0.00     0.126 C
HETATM   43  O9  UNL     1      16.458   0.057  14.487  1.00  0.00    -0.266 OA
ENDBRANCH  40  41
ENDBRANCH   4  40
BRANCH   9  44
HETATM   44  N2  UNL     1      19.689   1.550  10.316  1.00  0.00    -0.068 N
ATOM     45  H23 UNL     1      20.244   1.358  11.150  1.00  0.00     0.275 HD
ATOM     46  H22 UNL     1      19.388   0.598  10.111  1.00  0.00     0.275 HD
ATOM     47  H21 UNL     1      20.259   1.937   9.563  1.00  0.00     0.275 HD
ENDBRANCH   9  44
BRANCH   7  48
HETATM   48  O11 UNL     1      18.463  -0.517  11.403  1.00  0.00    -0.290 OA
ATOM     49  H11 UNL     1      18.637  -0.913  10.557  1.00  0.00     0.244 HD
ENDBRANCH   7  48
TORSDOF 18
ENDMDL