MODEL 5
REMARK VINA RESULT: -7.419502812      2.120      7.321
REMARK  17 active torsions:
REMARK  status: ('A' for Active; 'I' for Inactive)
REMARK    1  A    between atoms: C2_2  and  O2_4
REMARK    2  A    between atoms: O2_4  and  C3_5
REMARK    3  A    between atoms: C3_5  and  C4_6
REMARK    4  A    between atoms: C4_6  and  O3_7
REMARK    5  A    between atoms: C4_6  and  O4_9
REMARK    6  A    between atoms: O4_9  and  C5_10
REMARK    7  A    between atoms: C9_14  and  O5_15
REMARK    8  A    between atoms: O5_15  and  C10_16
REMARK    9  A    between atoms: C12_19  and  O7_21
REMARK   10  A    between atoms: C14_23  and  O8_24
REMARK   11  A    between atoms: O8_24  and  C15_25
REMARK   12  A    between atoms: C17_28  and  O10_29
REMARK   13  A    between atoms: O10_29  and  C18_30
REMARK   14  A    between atoms: C20_33  and  O12_34
REMARK   15  A    between atoms: O12_34  and  C21_35
REMARK   16  A    between atoms: C23_38  and  O14_39
REMARK   17  A    between atoms: C24_41  and  O15_42
ROOT
HETATM    1  C10 UNL     1      16.533   2.876  12.633  1.00  0.00     0.294 C
HETATM    2  O6  UNL     1      15.824   1.728  12.407  1.00  0.00    -0.355 OA
HETATM    3  C11 UNL     1      16.235   1.006  11.313  1.00  0.00     0.211 C
HETATM    4  C12 UNL     1      17.740   0.897  11.187  1.00  0.00     0.104 C
HETATM    5  C13 UNL     1      17.998   0.071   9.930  1.00  0.00     0.051 C
HETATM    6  C14 UNL     1      18.296   2.267  10.997  1.00  0.00     0.194 C
HETATM    7  C24 UNL     1      17.315   3.345  11.426  1.00  0.00     0.205 C
ENDROOT
BRANCH   6   8
HETATM    8  O8  UNL     1      19.435   2.435  11.772  1.00  0.00    -0.347 OA
BRANCH   8   9
HETATM    9  C15 UNL     1      20.318   3.243  11.114  1.00  0.00     0.291 C
HETATM   10  O9  UNL     1      19.990   3.357   9.757  1.00  0.00    -0.356 OA
HETATM   11  C16 UNL     1      20.610   4.427   9.154  1.00  0.00     0.206 C
HETATM   12  C17 UNL     1      21.905   4.851   9.758  1.00  0.00     0.188 C
HETATM   13  C20 UNL     1      21.835   5.111  11.240  1.00  0.00     0.197 C
HETATM   14  C23 UNL     1      20.465   4.636  11.691  1.00  0.00     0.205 C
BRANCH  12  15
HETATM   15  O10 UNL     1      22.884   3.877   9.435  1.00  0.00    -0.311 OA
BRANCH  15  16
HETATM   16  C18 UNL     1      24.071   4.178   8.796  1.00  0.00     0.255 C
HETATM   17  C19 UNL     1      24.294   5.536   8.283  1.00  0.00     0.126 C
HETATM   18  O11 UNL     1      24.921   3.257   8.684  1.00  0.00    -0.266 OA
ENDBRANCH  15  16
ENDBRANCH  12  15
BRANCH  13  19
HETATM   19  O12 UNL     1      22.129   6.404  11.640  1.00  0.00    -0.311 OA
BRANCH  19  20
HETATM   20  C21 UNL     1      23.437   6.872  11.703  1.00  0.00     0.255 C
HETATM   21  C22 UNL     1      24.535   6.042  12.236  1.00  0.00     0.126 C
HETATM   22  O13 UNL     1      23.651   8.019  11.290  1.00  0.00    -0.266 OA
ENDBRANCH  19  20
ENDBRANCH  13  19
BRANCH  14  23
HETATM   23  O14 UNL     1      20.411   4.655  13.073  1.00  0.00    -0.388 OA
ATOM     24  H14 UNL     1      21.258   4.507  13.478  1.00  0.00     0.210 HD
ENDBRANCH  14  23
ENDBRANCH   8   9
ENDBRANCH   6   8
BRANCH   4  25
HETATM   25  O7  UNL     1      18.230   0.233  12.303  1.00  0.00    -0.385 OA
ATOM     26  H7  UNL     1      18.997  -0.265  12.046  1.00  0.00     0.210 HD
ENDBRANCH   4  25
BRANCH   7  27
HETATM   27  O15 UNL     1      16.518   3.744  10.375  1.00  0.00    -0.388 OA
ATOM     28  H15 UNL     1      16.698   3.281   9.566  1.00  0.00     0.210 HD
ENDBRANCH   7  27
BRANCH   1  29
HETATM   29  O5  UNL     1      15.803   3.929  13.119  1.00  0.00    -0.329 OA
BRANCH  29  30
HETATM   30  C9  UNL     1      16.463   5.149  13.030  1.00  0.00     0.266 C
HETATM   31  C8  UNL     1      16.361   5.935  14.347  1.00  0.00     0.061 C
HETATM   32  C7  UNL     1      17.556   6.886  14.276  1.00  0.00     0.010 C
HETATM   33  C6  UNL     1      17.907   7.184  12.837  1.00  0.00     0.061 C
HETATM   34  C5  UNL     1      16.706   7.112  11.926  1.00  0.00     0.266 C
HETATM   35  O16 UNL     1      15.936   5.987  12.061  1.00  0.00    -0.331 OA
BRANCH  34  36
HETATM   36  O4  UNL     1      15.976   8.293  12.039  1.00  0.00    -0.330 OA
BRANCH  36  37
HETATM   37  C4  UNL     1      14.879   8.367  11.192  1.00  0.00     0.284 C
BRANCH  37  38
HETATM   38  C3  UNL     1      15.260   7.708   9.890  1.00  0.00     0.239 C
BRANCH  38  39
HETATM   39  O2  UNL     1      14.260   6.888   9.354  1.00  0.00    -0.317 OA
BRANCH  39  40
HETATM   40  C2  UNL     1      13.452   7.173   8.287  1.00  0.00     0.254 C
HETATM   41  C1  UNL     1      12.373   8.199   8.331  1.00  0.00     0.126 C
HETATM   42  O1  UNL     1      13.634   6.534   7.221  1.00  0.00    -0.266 OA
ENDBRANCH  39  40
ENDBRANCH  38  39
ENDBRANCH  37  38
BRANCH  37  43
HETATM   43  O3  UNL     1      13.806   7.596  11.697  1.00  0.00    -0.369 OA
ATOM     44  H3  UNL     1      13.470   8.092  12.435  1.00  0.00     0.212 HD
ENDBRANCH  37  43
ENDBRANCH  36  37
ENDBRANCH  34  36
ENDBRANCH  29  30
ENDBRANCH   1  29
TORSDOF 17
ENDMDL