MODEL 1
REMARK VINA RESULT: -6.090644148      0.000      0.000
REMARK  17 active torsions:
REMARK  status: ('A' for Active; 'I' for Inactive)
REMARK    1  A    between atoms: O1_2  and  C2_3
REMARK    2  A    between atoms: C3_4  and  O2_5
REMARK    3  A    between atoms: O2_5  and  C4_6
REMARK    4  A    between atoms: C5_7  and  O3_8
REMARK    5  A    between atoms: O3_8  and  C6_9
REMARK    6  A    between atoms: C8_12  and  O5_13
REMARK    7  A    between atoms: O5_13  and  C9_14
REMARK    8  A    between atoms: C11_17  and  O7_18
REMARK    9  A    between atoms: O7_18  and  C12_19
REMARK   10  A    between atoms: C14_22  and  C15_23
REMARK   11  A    between atoms: C15_23  and  O9_24
REMARK   12  A    between atoms: C15_23  and  C16_26
REMARK   13  A    between atoms: C16_26  and  O10_27
REMARK   14  A    between atoms: C17_29  and  O11_30
REMARK   15  A    between atoms: C20_36  and  O13_38
REMARK   16  A    between atoms: C22_40  and  O14_41
REMARK   17  A    between atoms: O14_41  and  C23_42
ROOT
HETATM    1  C4  UNL     1      19.976   5.342  11.409  1.00  0.00     0.203 C
HETATM    2  C5  UNL     1      18.983   6.257  12.035  1.00  0.00     0.197 C
HETATM    3  C8  UNL     1      17.554   5.806  12.078  1.00  0.00     0.194 C
HETATM    4  C11 UNL     1      17.310   4.530  11.334  1.00  0.00     0.174 C
HETATM    5  C14 UNL     1      18.025   4.410  10.037  1.00  0.00     0.100 C
HETATM    6  C17 UNL     1      19.497   4.427  10.356  1.00  0.00     0.183 C
HETATM    7  C18 UNL     1      19.797   3.034  10.859  1.00  0.00     0.101 C
HETATM    8  N1  UNL     1      20.039   1.970  11.227  1.00  0.00    -0.194 NA
ENDROOT
BRANCH   6   9
HETATM    9  O11 UNL     1      20.188   4.623   9.176  1.00  0.00    -0.372 OA
ATOM     10  H11 UNL     1      19.608   4.556   8.426  1.00  0.00     0.212 HD
ENDBRANCH   6   9
BRANCH   1  11
HETATM   11  O2  UNL     1      21.064   6.021  10.841  1.00  0.00    -0.369 OA
BRANCH  11  12
HETATM   12  C3  UNL     1      22.258   5.941  11.439  1.00  0.00     0.177 C
HETATM   13  C2  UNL     1      23.205   6.869  10.721  1.00  0.00     0.186 C
HETATM   14  C22 UNL     1      23.347   6.312   9.308  1.00  0.00     0.225 C
HETATM   15  C20 UNL     1      24.087   5.001   9.438  1.00  0.00     0.187 C
HETATM   16  O12 UNL     1      23.192   4.136  10.115  1.00  0.00    -0.350 OA
HETATM   17  C21 UNL     1      24.388   4.377   8.092  1.00  0.00     0.082 C
HETATM   18  C19 UNL     1      22.923   4.572  11.387  1.00  0.00     0.206 C
BRANCH  13  19
HETATM   19  O1  UNL     1      24.434   6.992  11.343  1.00  0.00    -0.385 OA
HETATM   20  C1  UNL     1      24.304   7.871  12.412  1.00  0.00     0.202 C
ENDBRANCH  13  19
BRANCH  14  21
HETATM   21  O14 UNL     1      23.885   7.204   8.393  1.00  0.00    -0.308 OA
BRANCH  21  22
HETATM   22  C23 UNL     1      23.059   7.767   7.435  1.00  0.00     0.255 C
HETATM   23  C24 UNL     1      21.687   7.305   7.129  1.00  0.00     0.126 C
HETATM   24  O15 UNL     1      23.499   8.757   6.757  1.00  0.00    -0.266 OA
ENDBRANCH  21  22
ENDBRANCH  14  21
BRANCH  15  25
HETATM   25  O13 UNL     1      25.284   5.127  10.150  1.00  0.00    -0.363 OA
ATOM     26  H13 UNL     1      25.237   5.858  10.757  1.00  0.00     0.213 HD
ENDBRANCH  15  25
ENDBRANCH  11  12
ENDBRANCH   1  11
BRANCH   5  27
HETATM   27  C15 UNL     1      17.711   5.546   9.127  1.00  0.00     0.152 C
BRANCH  27  28
HETATM   28  O9  UNL     1      17.487   5.005   7.783  1.00  0.00    -0.393 OA
ATOM     29  H9  UNL     1      17.566   5.718   7.161  1.00  0.00     0.210 HD
ENDBRANCH  27  28
BRANCH  27  30
HETATM   30  C16 UNL     1      16.366   6.214   9.325  1.00  0.00     0.196 C
BRANCH  30  31
HETATM   31  O10 UNL     1      15.922   6.825   8.202  1.00  0.00    -0.398 OA
ATOM     32  H10 UNL     1      14.985   6.724   8.079  1.00  0.00     0.209 HD
ENDBRANCH  30  31
ENDBRANCH  27  30
ENDBRANCH   5  27
BRANCH   2  33
HETATM   33  O3  UNL     1      19.302   6.519  13.411  1.00  0.00    -0.311 OA
BRANCH  33  34
HETATM   34  C6  UNL     1      19.680   7.764  13.881  1.00  0.00     0.255 C
HETATM   35  C7  UNL     1      18.835   8.357  14.960  1.00  0.00     0.126 C
HETATM   36  O4  UNL     1      20.680   8.332  13.404  1.00  0.00    -0.266 OA
ENDBRANCH  33  34
ENDBRANCH   2  33
BRANCH   4  37
HETATM   37  O7  UNL     1      17.474   3.391  12.162  1.00  0.00    -0.313 OA
BRANCH  37  38
HETATM   38  C12 UNL     1      16.601   2.353  12.139  1.00  0.00     0.255 C
HETATM   39  C13 UNL     1      16.915   0.947  12.536  1.00  0.00     0.126 C
HETATM   40  O8  UNL     1      15.445   2.596  11.754  1.00  0.00    -0.266 OA
ENDBRANCH  37  38
ENDBRANCH   4  37
BRANCH   3  41
HETATM   41  O5  UNL     1      16.965   5.857  13.349  1.00  0.00    -0.311 OA
BRANCH  41  42
HETATM   42  C9  UNL     1      15.637   5.822  13.647  1.00  0.00     0.255 C
HETATM   43  C10 UNL     1      15.078   5.049  14.751  1.00  0.00     0.126 C
HETATM   44  O6  UNL     1      14.936   6.504  12.901  1.00  0.00    -0.266 OA
ENDBRANCH  41  42
ENDBRANCH   3  41
TORSDOF 17
ENDMDL