MODEL 2
REMARK VINA RESULT: -7.422820318      1.118      1.399
REMARK  17 active torsions:
REMARK  status: ('A' for Active; 'I' for Inactive)
REMARK    1  A    between atoms: C2_2  and  C3_3
REMARK    2  A    between atoms: C3_3  and  O2_5
REMARK    3  A    between atoms: O2_5  and  C4_6
REMARK    4  A    between atoms: C5_8  and  N1_9
REMARK    5  A    between atoms: C5_8  and  O4_13
REMARK    6  A    between atoms: C6_15  and  O5_16
REMARK    7  A    between atoms: O5_16  and  C7_17
REMARK    8  A    between atoms: C8_22  and  O6_23
REMARK    9  A    between atoms: O6_23  and  C9_24
REMARK   10  A    between atoms: C11_27  and  O8_28
REMARK   11  A    between atoms: O8_28  and  C12_29
REMARK   12  A    between atoms: C15_33  and  O10_34
REMARK   13  A    between atoms: O10_34  and  C16_35
REMARK   14  A    between atoms: C18_38  and  O12_39
REMARK   15  A    between atoms: O12_39  and  C19_40
REMARK   16  A    between atoms: C21_43  and  O14_44
REMARK   17  A    between atoms: O14_44  and  C22_45
ROOT
HETATM    1  C4  UNL     1      16.745   7.061   9.401  1.00  0.00     0.306 C
HETATM    2  O3  UNL     1      17.250   8.218   8.818  1.00  0.00    -0.297 OA
HETATM    3  C5  UNL     1      17.736   8.032   7.562  1.00  0.00     0.365 C
HETATM    4  C6  UNL     1      18.753   6.954   7.396  1.00  0.00     0.256 C
HETATM    5  C8  UNL     1      18.654   5.802   8.331  1.00  0.00     0.202 C
HETATM    6  C11 UNL     1      17.690   5.938   9.471  1.00  0.00     0.212 C
ENDROOT
BRANCH   6   7
HETATM    7  O8  UNL     1      16.964   4.763   9.678  1.00  0.00    -0.346 OA
BRANCH   7   8
HETATM    8  C12 UNL     1      17.571   3.889  10.571  1.00  0.00     0.293 C
HETATM    9  O9  UNL     1      16.875   2.676  10.494  1.00  0.00    -0.351 OA
HETATM   10  C13 UNL     1      17.286   1.775  11.475  1.00  0.00     0.152 C
HETATM   11  C14 UNL     1      16.525   0.492  11.210  1.00  0.00     0.042 C
HETATM   12  C15 UNL     1      17.037   2.286  12.879  1.00  0.00     0.192 C
HETATM   13  C18 UNL     1      16.485   3.686  12.720  1.00  0.00     0.198 C
HETATM   14  C21 UNL     1      17.555   4.468  11.975  1.00  0.00     0.219 C
BRANCH  12  15
HETATM   15  O10 UNL     1      16.240   1.448  13.661  1.00  0.00    -0.311 OA
BRANCH  15  16
HETATM   16  C16 UNL     1      16.595   1.073  14.971  1.00  0.00     0.255 C
HETATM   17  C17 UNL     1      17.017   2.047  16.003  1.00  0.00     0.126 C
HETATM   18  O11 UNL     1      16.558  -0.148  15.301  1.00  0.00    -0.266 OA
ENDBRANCH  15  16
ENDBRANCH  12  15
BRANCH  13  19
HETATM   19  O12 UNL     1      16.001   4.266  13.866  1.00  0.00    -0.311 OA
BRANCH  19  20
HETATM   20  C19 UNL     1      15.630   5.572  14.050  1.00  0.00     0.255 C
HETATM   21  C20 UNL     1      16.499   6.586  14.698  1.00  0.00     0.126 C
HETATM   22  O13 UNL     1      14.504   5.927  13.655  1.00  0.00    -0.266 OA
ENDBRANCH  19  20
ENDBRANCH  13  19
BRANCH  14  23
HETATM   23  O14 UNL     1      18.823   4.184  12.521  1.00  0.00    -0.308 OA
BRANCH  23  24
HETATM   24  C22 UNL     1      19.553   5.102  13.214  1.00  0.00     0.255 C
HETATM   25  C23 UNL     1      20.200   6.210  12.462  1.00  0.00     0.126 C
HETATM   26  O15 UNL     1      19.659   4.988  14.461  1.00  0.00    -0.266 OA
ENDBRANCH  23  24
ENDBRANCH  14  23
ENDBRANCH   7   8
ENDBRANCH   6   7
BRANCH   1  27
HETATM   27  O2  UNL     1      15.560   6.757   8.688  1.00  0.00    -0.287 OA
BRANCH  27  28
HETATM   28  C3  UNL     1      14.300   7.092   9.095  1.00  0.00     0.260 C
HETATM   29  O1  UNL     1      14.081   7.325  10.313  1.00  0.00    -0.265 OA
BRANCH  28  30
HETATM   30  C2  UNL     1      13.131   7.203   8.165  1.00  0.00     0.107 C
HETATM   31  C1  UNL     1      12.646   8.657   8.162  1.00  0.00     0.015 C
ENDBRANCH  28  30
ENDBRANCH  27  28
ENDBRANCH   1  27
BRANCH   5  32
HETATM   32  O6  UNL     1      19.971   5.511   8.782  1.00  0.00    -0.311 OA
BRANCH  32  33
HETATM   33  C9  UNL     1      20.607   4.311   8.663  1.00  0.00     0.255 C
HETATM   34  C10 UNL     1      21.091   3.532   9.848  1.00  0.00     0.126 C
HETATM   35  O7  UNL     1      20.790   3.844   7.514  1.00  0.00    -0.266 OA
ENDBRANCH  32  33
ENDBRANCH   5  32
BRANCH   4  36
HETATM   36  O5  UNL     1      20.077   7.448   7.233  1.00  0.00    -0.309 OA
BRANCH  36  37
HETATM   37  C7  UNL     1      20.837   7.363   6.110  1.00  0.00     0.225 C
HETATM   38  N2  UNL     1      21.635   6.389   5.982  1.00  0.00    -0.368 N
ATOM     39  H22 UNL     1      21.722   5.666   6.697  1.00  0.00     0.159 HD
ATOM     40  H21 UNL     1      22.205   6.326   5.138  1.00  0.00     0.159 HD
HETATM   41  N3  UNL     1      20.716   8.367   5.116  1.00  0.00    -0.057 NA
ENDBRANCH  36  37
ENDBRANCH   4  36
BRANCH   3  42
HETATM   42  N1  UNL     1      16.562   7.830   6.691  1.00  0.00    -0.018 N
ATOM     43  H13 UNL     1      16.219   6.869   6.690  1.00  0.00     0.281 HD
ATOM     44  H12 UNL     1      15.712   8.267   7.047  1.00  0.00     0.281 HD
ATOM     45  H11 UNL     1      16.832   8.163   5.765  1.00  0.00     0.281 HD
ENDBRANCH   3  42
BRANCH   3  46
HETATM   46  O4  UNL     1      18.280   9.257   7.103  1.00  0.00    -0.342 OA
ATOM     47  H4  UNL     1      19.015   9.489   7.658  1.00  0.00     0.215 HD
ENDBRANCH   3  46
TORSDOF 17
ENDMDL