MODEL 4
REMARK VINA RESULT: -7.168518380      2.557      4.829
REMARK  15 active torsions:
REMARK  status: ('A' for Active; 'I' for Inactive)
REMARK    1  A    between atoms: C3_4  and  S1_5
REMARK    2  A    between atoms: S1_5  and  C4_6
REMARK    3  A    between atoms: C6_16  and  C7_17
REMARK    4  A    between atoms: C7_17  and  O1_18
REMARK    5  A    between atoms: C7_17  and  C12_26
REMARK    6  A    between atoms: O1_18  and  C8_19
REMARK    7  A    between atoms: C8_19  and  C9_20
REMARK    8  A    between atoms: C9_20  and  O3_22
REMARK    9  A    between atoms: O3_22  and  C10_23
REMARK   10  A    between atoms: C12_26  and  O6_28
REMARK   11  A    between atoms: C14_30  and  C15_31
REMARK   12  A    between atoms: C15_31  and  O7_32
REMARK   13  A    between atoms: C15_31  and  O8_34
REMARK   14  A    between atoms: C17_38  and  O10_39
REMARK   15  A    between atoms: C19_42  and  O12_44
ROOT
HETATM    1  C1  UNL     1      14.772   8.293  11.617  1.00  0.00     0.222 C
HETATM    2  N1  UNL     1      15.769   7.745  11.747  1.00  0.00    -0.446 NA
HETATM    3  C2  UNL     1      16.970   7.100  11.935  1.00  0.00     0.211 C
HETATM    4  C3  UNL     1      17.001   5.656  11.683  1.00  0.00     0.043 C
HETATM    5  C6  UNL     1      16.872   4.825  12.758  1.00  0.00     0.009 C
HETATM    6  C14 UNL     1      16.732   5.395  14.155  1.00  0.00     0.210 C
HETATM    7  O9  UNL     1      17.266   6.619  14.326  1.00  0.00    -0.362 OA
HETATM    8  C16 UNL     1      17.576   7.377  13.303  1.00  0.00     0.230 C
HETATM    9  C17 UNL     1      19.052   7.226  12.992  1.00  0.00     0.295 C
HETATM   10  O11 UNL     1      19.174   7.188  11.602  1.00  0.00    -0.319 OA
HETATM   11  C19 UNL     1      18.053   7.898  11.218  1.00  0.00     0.207 C
HETATM   12  C20 UNL     1      17.910   8.252   9.833  1.00  0.00     0.083 C
ENDROOT
BRANCH   4  13
HETATM   13  S1  UNL     1      17.127   4.861  10.154  1.00  0.00    -0.064 SA
BRANCH  13  14
HETATM   14  C4  UNL     1      18.649   4.734   9.305  1.00  0.00     0.134 A
HETATM   15  N2  UNL     1      19.837   4.207   9.537  1.00  0.00    -0.286 N
HETATM   16  N3  UNL     1      20.778   4.277   8.705  1.00  0.00    -0.279 N
ATOM     17  H2  UNL     1      19.998   3.727  10.423  1.00  0.00     0.188 HD
HETATM   18  C5  UNL     1      20.568   4.905   7.545  1.00  0.00     0.159 A
ATOM     19  H3  UNL     1      21.686   3.861   8.913  1.00  0.00     0.189 HD
HETATM   20  N4  UNL     1      21.406   5.089   6.550  1.00  0.00    -0.379 N
HETATM   21  S2  UNL     1      18.941   5.394   7.710  1.00  0.00    -0.026 SA
ATOM     22  H42 UNL     1      22.379   4.797   6.451  1.00  0.00     0.158 HD
ATOM     23  H41 UNL     1      21.245   5.569   5.664  1.00  0.00     0.158 HD
ENDBRANCH  13  14
ENDBRANCH   4  13
BRANCH  11  24
HETATM   24  O12 UNL     1      18.140   9.124  11.939  1.00  0.00    -0.362 OA
ATOM     25  H12 UNL     1      18.304   9.784  11.276  1.00  0.00     0.213 HD
ENDBRANCH  11  24
BRANCH   5  26
HETATM   26  C7  UNL     1      16.880   3.375  12.734  1.00  0.00     0.254 C
BRANCH  26  27
HETATM   27  O1  UNL     1      17.114   2.969  14.099  1.00  0.00    -0.362 OA
BRANCH  27  28
HETATM   28  C8  UNL     1      16.662   1.675  14.239  1.00  0.00     0.280 C
BRANCH  28  29
HETATM   29  C9  UNL     1      16.746   1.205  15.648  1.00  0.00     0.290 C
HETATM   30  O2  UNL     1      17.794   1.455  16.283  1.00  0.00    -0.262 OA
BRANCH  29  31
HETATM   31  O3  UNL     1      15.709   0.519  16.238  1.00  0.00    -0.244 OA
BRANCH  31  32
HETATM   32  C10 UNL     1      14.728   1.188  16.966  1.00  0.00     0.262 C
HETATM   33  C11 UNL     1      15.155   2.026  18.126  1.00  0.00     0.126 C
HETATM   34  O4  UNL     1      13.511   1.094  16.661  1.00  0.00    -0.265 OA
ENDBRANCH  31  32
ENDBRANCH  29  31
ENDBRANCH  28  29
ENDBRANCH  27  28
ENDBRANCH  26  27
BRANCH  26  35
HETATM   35  C12 UNL     1      17.858   2.598  11.976  1.00  0.00     0.292 C
HETATM   36  O5  UNL     1      19.080   2.811  12.157  1.00  0.00    -0.262 OA
BRANCH  35  37
HETATM   37  O6  UNL     1      17.541   1.632  11.057  1.00  0.00    -0.324 OA
HETATM   38  C13 UNL     1      18.346   0.532  10.678  1.00  0.00     0.213 C
ENDBRANCH  35  37
ENDBRANCH  26  35
ENDBRANCH   5  26
BRANCH   9  39
HETATM   39  O10 UNL     1      19.856   8.152  13.591  1.00  0.00    -0.363 OA
HETATM   40  C18 UNL     1      21.156   8.172  13.091  1.00  0.00     0.204 C
ENDBRANCH   9  39
BRANCH   6  41
HETATM   41  C15 UNL     1      15.305   5.454  14.633  1.00  0.00     0.287 C
BRANCH  41  42
HETATM   42  O7  UNL     1      14.336   5.524  13.683  1.00  0.00    -0.369 OA
ATOM     43  H7  UNL     1      13.669   6.192  13.792  1.00  0.00     0.212 HD
ENDBRANCH  41  42
BRANCH  41  44
HETATM   44  O8  UNL     1      15.029   4.288  15.395  1.00  0.00    -0.369 OA
ATOM     45  H8  UNL     1      14.140   4.007  15.213  1.00  0.00     0.212 HD
ENDBRANCH  41  44
ENDBRANCH   6  41
TORSDOF 15
ENDMDL