MODEL 4
REMARK VINA RESULT: -7.722076623      1.487      3.196
REMARK  17 active torsions:
REMARK  status: ('A' for Active; 'I' for Inactive)
REMARK    1  A    between atoms: C2_2  and  O2_4
REMARK    2  A    between atoms: O2_4  and  C3_5
REMARK    3  A    between atoms: C4_6  and  O3_7
REMARK    4  A    between atoms: N1_11  and  O5_13
REMARK    5  A    between atoms: C6_15  and  C7_16
REMARK    6  A    between atoms: C8_17  and  C9_18
REMARK    7  A    between atoms: C9_18  and  O7_20
REMARK    8  A    between atoms: O7_20  and  C10_21
REMARK    9  A    between atoms: C11_22  and  O8_23
REMARK   10  A    between atoms: O8_23  and  N2_24
REMARK   11  A    between atoms: C12_30  and  O10_31
REMARK   12  A    between atoms: O10_31  and  C13_32
REMARK   13  A    between atoms: C15_35  and  O12_36
REMARK   14  A    between atoms: O12_36  and  C16_37
REMARK   15  A    between atoms: C18_40  and  O14_41
REMARK   16  A    between atoms: O14_41  and  C19_42
REMARK   17  A    between atoms: C21_45  and  O16_46
ROOT
HETATM    1  C10 UNL     1      18.082   2.669  11.861  1.00  0.00     0.222 C
HETATM    2  C11 UNL     1      17.178   1.495  12.234  1.00  0.00     0.325 C
HETATM    3  O9  UNL     1      16.945   1.547  13.584  1.00  0.00    -0.323 OA
HETATM    4  C12 UNL     1      16.071   2.557  13.962  1.00  0.00     0.304 C
HETATM    5  C15 UNL     1      16.202   3.784  13.093  1.00  0.00     0.219 C
HETATM    6  C18 UNL     1      17.639   3.925  12.571  1.00  0.00     0.200 C
ENDROOT
BRANCH   1   7
HETATM    7  O7  UNL     1      18.225   2.814  10.487  1.00  0.00    -0.305 OA
BRANCH   7   8
HETATM    8  C9  UNL     1      19.155   3.628   9.903  1.00  0.00     0.283 C
HETATM    9  O6  UNL     1      18.794   4.423   9.032  1.00  0.00    -0.260 OA
BRANCH   8  10
HETATM   10  C8  UNL     1      20.606   3.614  10.261  1.00  0.00     0.083 C
HETATM   11  C7  UNL     1      21.362   4.630   9.958  1.00  0.00     0.025 C
BRANCH  11  12
HETATM   12  C6  UNL     1      22.745   4.872  10.177  1.00  0.00     0.053 A
HETATM   13  C5  UNL     1      23.697   4.563   9.232  1.00  0.00     0.183 A
HETATM   14  O4  UNL     1      24.955   4.813   9.500  1.00  0.00    -0.266 OA
HETATM   15  N1  UNL     1      23.449   4.041   8.091  1.00  0.00    -0.246 N
HETATM   16  C4  UNL     1      25.379   5.339  10.608  1.00  0.00     0.223 A
HETATM   17  C3  UNL     1      24.494   5.670  11.589  1.00  0.00     0.171 A
HETATM   18  C21 UNL     1      23.137   5.444  11.399  1.00  0.00     0.119 A
ATOM     19  H1  UNL     1      22.478   3.837   7.860  1.00  0.00     0.196 HD
BRANCH  16  20
HETATM   20  O3  UNL     1      26.742   5.563  10.791  1.00  0.00    -0.338 OA
ATOM     21  H3  UNL     1      27.377   5.111  10.248  1.00  0.00     0.220 HD
ENDBRANCH  16  20
BRANCH  17  22
HETATM   22  O2  UNL     1      24.909   6.243  12.805  1.00  0.00    -0.271 OA
BRANCH  22  23
HETATM   23  C2  UNL     1      25.024   7.623  12.924  1.00  0.00     0.260 C
HETATM   24  C1  UNL     1      26.336   8.294  13.147  1.00  0.00     0.126 C
HETATM   25  O1  UNL     1      24.011   8.387  12.850  1.00  0.00    -0.265 OA
ENDBRANCH  22  23
ENDBRANCH  17  22
BRANCH  18  26
HETATM   26  O16 UNL     1      22.272   5.791  12.411  1.00  0.00    -0.357 OA
ATOM     27  H16 UNL     1      22.614   6.291  13.143  1.00  0.00     0.218 HD
ENDBRANCH  18  26
BRANCH  15  28
HETATM   28  O5  UNL     1      24.400   3.743   7.172  1.00  0.00    -0.288 OA
ATOM     29  H5  UNL     1      24.452   2.914   6.711  1.00  0.00     0.244 HD
ENDBRANCH  15  28
ENDBRANCH  11  12
ENDBRANCH   8  10
ENDBRANCH   7   8
ENDBRANCH   1   7
BRANCH   2  30
HETATM   30  O8  UNL     1      16.017   1.457  11.444  1.00  0.00    -0.230 OA
BRANCH  30  31
HETATM   31  N2  UNL     1      15.932   0.759  10.266  1.00  0.00    -0.211 N
HETATM   32  N3  UNL     1      16.971   0.144   9.877  1.00  0.00    -0.326 N
ATOM     33  H32 UNL     1      17.828   0.177  10.430  1.00  0.00     0.178 HD
ATOM     34  H31 UNL     1      16.908  -0.374   9.001  1.00  0.00     0.178 HD
ATOM     35  H2  UNL     1      15.068   0.736   9.724  1.00  0.00     0.215 HD
ENDBRANCH  30  31
ENDBRANCH   2  30
BRANCH   6  36
HETATM   36  O14 UNL     1      18.409   4.190  13.731  1.00  0.00    -0.311 OA
BRANCH  36  37
HETATM   37  C19 UNL     1      19.268   5.268  13.820  1.00  0.00     0.255 C
HETATM   38  C20 UNL     1      19.125   6.413  12.891  1.00  0.00     0.126 C
HETATM   39  O15 UNL     1      20.152   5.212  14.714  1.00  0.00    -0.266 OA
ENDBRANCH  36  37
ENDBRANCH   6  36
BRANCH   5  40
HETATM   40  O12 UNL     1      15.954   4.960  13.847  1.00  0.00    -0.308 OA
BRANCH  40  41
HETATM   41  C16 UNL     1      15.179   6.000  13.333  1.00  0.00     0.255 C
HETATM   42  C17 UNL     1      15.724   7.055  12.450  1.00  0.00     0.126 C
HETATM   43  O13 UNL     1      13.955   5.985  13.677  1.00  0.00    -0.266 OA
ENDBRANCH  40  41
ENDBRANCH   5  40
BRANCH   4  44
HETATM   44  O10 UNL     1      16.361   2.936  15.292  1.00  0.00    -0.287 OA
BRANCH  44  45
HETATM   45  C13 UNL     1      16.520   2.002  16.305  1.00  0.00     0.257 C
HETATM   46  C14 UNL     1      15.387   1.677  17.216  1.00  0.00     0.126 C
HETATM   47  O11 UNL     1      17.623   1.447  16.431  1.00  0.00    -0.266 OA
ENDBRANCH  44  45
ENDBRANCH   4  44
TORSDOF 17
ENDMDL