MODEL 1
REMARK VINA RESULT: -8.751629494      0.000      0.000
REMARK  16 active torsions:
REMARK  status: ('A' for Active; 'I' for Inactive)
REMARK    1  A    between atoms: O1_2  and  C2_3
REMARK    2  A    between atoms: C2_3  and  C3_5
REMARK    3  A    between atoms: C4_6  and  O3_7
REMARK    4  A    between atoms: C6_9  and  O4_10
REMARK    5  A    between atoms: C7_12  and  O5_13
REMARK    6  A    between atoms: O5_13  and  C8_14
REMARK    7  A    between atoms: C8_14  and  C9_16
REMARK    8  A    between atoms: C10_17  and  O7_18
REMARK    9  A    between atoms: O7_18  and  C11_19
REMARK   10  A    between atoms: C11_19  and  C12_21
REMARK   11  A    between atoms: C12_21  and  O9_22
REMARK   12  A    between atoms: C16_30  and  C17_31
REMARK   13  A    between atoms: C19_34  and  O12_35
REMARK   14  A    between atoms: C23_42  and  O15_43
REMARK   15  A    between atoms: C23_42  and  C24_45
REMARK   16  A    between atoms: C24_45  and  O16_46
ROOT
HETATM    1  C9  UNL     1      14.783   7.181   9.387  1.00  0.00     0.107 C
HETATM    2  C10 UNL     1      16.011   6.850   9.047  1.00  0.00     0.152 C
ENDROOT
BRANCH   2   3
HETATM    3  O7  UNL     1      16.925   6.493  10.021  1.00  0.00    -0.287 OA
BRANCH   3   4
HETATM    4  C11 UNL     1      17.392   5.174  10.143  1.00  0.00     0.327 C
HETATM    5  O8  UNL     1      17.637   4.581   9.068  1.00  0.00    -0.259 OA
BRANCH   4   6
HETATM    6  C12 UNL     1      17.574   4.553  11.474  1.00  0.00     0.265 C
HETATM    7  C13 UNL     1      17.939   3.118  11.290  1.00  0.00     0.165 C
HETATM    8  C14 UNL     1      17.358   2.211  12.304  1.00  0.00     0.184 C
HETATM    9  O10 UNL     1      17.571   0.984  12.171  1.00  0.00    -0.290 OA
HETATM   10  C15 UNL     1      16.574   2.733  13.407  1.00  0.00     0.114 A
HETATM   11  N1  UNL     1      16.311   1.996  14.477  1.00  0.00    -0.346 N
HETATM   12  C22 UNL     1      16.086   4.017  13.352  1.00  0.00     0.112 A
HETATM   13  C16 UNL     1      15.574   2.480  15.515  1.00  0.00     0.113 A
ATOM     14  H1  UNL     1      16.670   1.042  14.524  1.00  0.00     0.166 HD
HETATM   15  C19 UNL     1      15.078   3.771  15.473  1.00  0.00     0.104 A
HETATM   16  C20 UNL     1      15.346   4.548  14.362  1.00  0.00     0.009 A
HETATM   17  C21 UNL     1      14.819   5.934  14.306  1.00  0.00     0.054 C
HETATM   18  O13 UNL     1      16.386   4.750  12.214  1.00  0.00    -0.301 OA
BRANCH   6  19
HETATM   19  O9  UNL     1      18.607   5.275  12.115  1.00  0.00    -0.357 OA
ATOM     20  H9  UNL     1      18.468   6.190  11.901  1.00  0.00     0.213 HD
ENDBRANCH   6  19
BRANCH  13  21
HETATM   21  C17 UNL     1      15.312   1.635  16.669  1.00  0.00     0.174 C
HETATM   22  C18 UNL     1      13.909   1.280  17.022  1.00  0.00     0.098 C
HETATM   23  O11 UNL     1      16.269   1.208  17.360  1.00  0.00    -0.291 OA
ENDBRANCH  13  21
BRANCH  15  24
HETATM   24  O12 UNL     1      14.334   4.221  16.552  1.00  0.00    -0.358 OA
ATOM     25  H12 UNL     1      13.913   5.070  16.484  1.00  0.00     0.217 HD
ENDBRANCH  15  24
ENDBRANCH   4   6
ENDBRANCH   3   4
ENDBRANCH   2   3
BRANCH   1  26
HETATM   26  C8  UNL     1      13.786   7.568   8.368  1.00  0.00     0.287 C
HETATM   27  O6  UNL     1      13.022   6.718   7.850  1.00  0.00    -0.260 OA
BRANCH  26  28
HETATM   28  O5  UNL     1      13.672   8.883   7.958  1.00  0.00    -0.283 OA
BRANCH  28  29
HETATM   29  C7  UNL     1      12.656   9.354   7.106  1.00  0.00     0.308 C
HETATM   30  C6  UNL     1      13.269  10.524   6.320  1.00  0.00     0.231 C
HETATM   31  C4  UNL     1      12.244  10.858   5.321  1.00  0.00     0.097 C
HETATM   32  C3  UNL     1      11.002  10.898   5.744  1.00  0.00     0.113 C
HETATM   33  C23 UNL     1      10.689  10.615   7.191  1.00  0.00     0.223 C
HETATM   34  O14 UNL     1      11.534   9.725   7.778  1.00  0.00    -0.315 OA
BRANCH  30  35
HETATM   35  O4  UNL     1      14.475  10.134   5.744  1.00  0.00    -0.384 OA
ATOM     36  H4  UNL     1      14.591   9.192   5.738  1.00  0.00     0.210 HD
ENDBRANCH  30  35
BRANCH  31  37
HETATM   37  O3  UNL     1      12.573  11.111   4.025  1.00  0.00    -0.356 OA
HETATM   38  C5  UNL     1      13.121  12.314   3.540  1.00  0.00     0.209 C
ENDBRANCH  31  37
BRANCH  32  39
HETATM   39  C2  UNL     1       9.928  11.220   4.813  1.00  0.00     0.297 C
HETATM   40  O2  UNL     1       9.312  10.331   4.180  1.00  0.00    -0.259 OA
BRANCH  39  41
HETATM   41  O1  UNL     1       9.586  12.543   4.627  1.00  0.00    -0.323 OA
HETATM   42  C1  UNL     1       9.511  13.174   3.370  1.00  0.00     0.213 C
ENDBRANCH  39  41
ENDBRANCH  32  39
BRANCH  33  43
HETATM   43  O15 UNL     1       9.400  10.057   7.191  1.00  0.00    -0.360 OA
ATOM     44  H15 UNL     1       9.434   9.344   6.564  1.00  0.00     0.213 HD
ENDBRANCH  33  43
BRANCH  33  45
HETATM   45  C24 UNL     1      10.595  11.908   7.987  1.00  0.00     0.238 C
BRANCH  45  46
HETATM   46  O16 UNL     1       9.514  12.697   7.609  1.00  0.00    -0.395 OA
ATOM     47  H16 UNL     1       9.155  13.200   8.330  1.00  0.00     0.209 HD
ENDBRANCH  45  46
ENDBRANCH  33  45
ENDBRANCH  28  29
ENDBRANCH  26  28
ENDBRANCH   1  26
TORSDOF 16
ENDMDL