MODEL 4
REMARK VINA RESULT: -8.271500997      3.131      6.516
REMARK  14 active torsions:
REMARK  status: ('A' for Active; 'I' for Inactive)
REMARK    1  A    between atoms: C2_2  and  O2_4
REMARK    2  A    between atoms: O2_4  and  C3_5
REMARK    3  A    between atoms: C3_5  and  C4_6
REMARK    4  A    between atoms: C4_6  and  C5_7
REMARK    5  A    between atoms: C5_7  and  O3_8
REMARK    6  A    between atoms: O3_8  and  C6_9
REMARK    7  A    between atoms: C7_10  and  O4_11
REMARK    8  A    between atoms: O4_11  and  C8_12
REMARK    9  A    between atoms: C15_21  and  O7_22
REMARK   10  A    between atoms: C17_26  and  O9_27
REMARK   11  A    between atoms: C18_29  and  O10_30
REMARK   12  A    between atoms: C19_36  and  O13_37
REMARK   13  A    between atoms: O13_37  and  C20_38
REMARK   14  A    between atoms: C23_42  and  N2_43
ROOT
HETATM    1  O3  UNL     1      18.154   4.769  10.783  1.00  0.00    -0.373 OA
ENDROOT
BRANCH   1   2
HETATM    2  C5  UNL     1      18.255   3.541  10.357  1.00  0.00     0.233 C
BRANCH   2   3
HETATM    3  C4  UNL     1      17.710   2.353  11.118  1.00  0.00     0.203 C
HETATM    4  N1  UNL     1      16.364   1.999  10.819  1.00  0.00    -0.231 N
HETATM    5  O11 UNL     1      15.422   2.344  11.668  1.00  0.00    -0.110 OA
ATOM      6  H1  UNL     1      16.136   1.488   9.966  1.00  0.00     0.194 HD
HETATM    7  O12 UNL     1      15.693   2.407  12.925  1.00  0.00    -0.156 OA
HETATM    8  C19 UNL     1      16.891   1.792  13.223  1.00  0.00     0.453 C
HETATM    9  O15 UNL     1      17.871   2.438  12.493  1.00  0.00    -0.300 OA
BRANCH   3  10
HETATM   10  C3  UNL     1      18.650   1.153  10.732  1.00  0.00     0.244 C
BRANCH  10  11
HETATM   11  O2  UNL     1      17.952   0.044  10.318  1.00  0.00    -0.317 OA
BRANCH  11  12
HETATM   12  C2  UNL     1      17.635  -0.982  11.166  1.00  0.00     0.254 C
HETATM   13  C1  UNL     1      18.529  -2.177  11.354  1.00  0.00     0.126 C
HETATM   14  O1  UNL     1      16.553  -0.913  11.807  1.00  0.00    -0.266 OA
ENDBRANCH  11  12
ENDBRANCH  10  11
ENDBRANCH   3  10
BRANCH   8  15
HETATM   15  O13 UNL     1      17.242   1.787  14.554  1.00  0.00    -0.304 OA
BRANCH  15  16
HETATM   16  C20 UNL     1      16.209   1.433  15.389  1.00  0.00     0.295 C
HETATM   17  O14 UNL     1      16.620   1.333  16.738  1.00  0.00    -0.359 OA
HETATM   18  C21 UNL     1      15.407   1.272  17.438  1.00  0.00     0.173 C
HETATM   19  C22 UNL     1      14.417   2.138  16.702  1.00  0.00     0.064 C
HETATM   20  C23 UNL     1      15.245   2.592  15.504  1.00  0.00     0.240 C
BRANCH  20  21
HETATM   21  N2  UNL     1      16.025   3.757  15.946  1.00  0.00    -0.070 N
ATOM     22  H23 UNL     1      16.613   3.560  16.756  1.00  0.00     0.274 HD
ATOM     23  H22 UNL     1      16.773   4.007  15.300  1.00  0.00     0.274 HD
ATOM     24  H21 UNL     1      15.363   4.516  16.105  1.00  0.00     0.274 HD
ENDBRANCH  20  21
ENDBRANCH  15  16
ENDBRANCH   8  15
ENDBRANCH   2   3
ENDBRANCH   1   2
BRANCH   1  25
HETATM   25  C6  UNL     1      18.413   5.251  11.992  1.00  0.00     0.208 C
HETATM   26  C7  UNL     1      19.542   6.234  12.154  1.00  0.00     0.294 C
HETATM   27  O8  UNL     1      19.983   6.096  13.492  1.00  0.00    -0.356 OA
HETATM   28  C16 UNL     1      18.929   5.994  14.380  1.00  0.00     0.205 C
HETATM   29  C17 UNL     1      17.711   6.722  13.858  1.00  0.00     0.173 C
HETATM   30  C18 UNL     1      17.216   5.994  12.631  1.00  0.00     0.182 C
BRANCH  26  31
HETATM   31  O4  UNL     1      20.546   6.162  11.233  1.00  0.00    -0.328 OA
BRANCH  31  32
HETATM   32  C8  UNL     1      21.649   5.462  11.615  1.00  0.00     0.271 C
HETATM   33  C9  UNL     1      21.940   4.316  10.753  1.00  0.00     0.102 C
HETATM   34  C10 UNL     1      22.447   4.363   9.370  1.00  0.00     0.092 C
HETATM   35  C11 UNL     1      21.392   4.051   8.368  1.00  0.00     0.049 C
HETATM   36  O5  UNL     1      23.659   3.723   9.040  1.00  0.00    -0.373 OA
HETATM   37  C15 UNL     1      22.844   5.853   9.218  1.00  0.00     0.185 C
HETATM   38  C12 UNL     1      24.751   4.780   9.207  1.00  0.00     0.208 C
HETATM   39  C13 UNL     1      24.032   5.409  10.212  1.00  0.00    -0.003 C
HETATM   40  C14 UNL     1      24.013   5.842  11.389  1.00  0.00     0.145 C
HETATM   41  O6  UNL     1      22.741   6.427  11.917  1.00  0.00    -0.332 OA
BRANCH  37  42
HETATM   42  O7  UNL     1      23.398   6.153   8.020  1.00  0.00    -0.388 OA
ATOM     43  H7  UNL     1      24.120   6.768   8.073  1.00  0.00     0.210 HD
ENDBRANCH  37  42
ENDBRANCH  31  32
ENDBRANCH  26  31
BRANCH  29  44
HETATM   44  O9  UNL     1      16.675   6.714  14.799  1.00  0.00    -0.391 OA
ATOM     45  H9  UNL     1      16.280   7.574  14.881  1.00  0.00     0.210 HD
ENDBRANCH  29  44
BRANCH  30  46
HETATM   46  O10 UNL     1      16.336   5.013  13.087  1.00  0.00    -0.390 OA
ATOM     47  H10 UNL     1      16.541   4.871  14.004  1.00  0.00     0.210 HD
ENDBRANCH  30  46
ENDBRANCH   1  25
TORSDOF 14
ENDMDL