MODEL 2
REMARK VINA RESULT: -8.496386192      4.676      8.197
REMARK  13 active torsions:
REMARK  status: ('A' for Active; 'I' for Inactive)
REMARK    1  A    between atoms: O1_2  and  C2_3
REMARK    2  A    between atoms: C2_3  and  C3_5
REMARK    3  A    between atoms: C3_5  and  N1_6
REMARK    4  A    between atoms: C4_9  and  C5_10
REMARK    5  A    between atoms: C5_10  and  O3_12
REMARK    6  A    between atoms: C8_15  and  C9_16
REMARK    7  A    between atoms: N4_19  and  N5_20
REMARK    8  A    between atoms: N6_25  and  C12_26
REMARK    9  A    between atoms: C12_26  and  C13_27
REMARK       I    between atoms: C13_27  and  N7_29
REMARK   10  A    between atoms: N7_29  and  N8_31
REMARK       I    between atoms: N8_31  and  C14_33
REMARK   11  A    between atoms: C14_33  and  C15_35
REMARK   12  A    between atoms: C15_35  and  C16_36
REMARK   13  A    between atoms: C16_36  and  N9_37
ROOT
HETATM    1  C9  UNL     1      18.203   4.608  12.560  1.00  0.00     0.100 A
HETATM    2  C10 UNL     1      19.565   4.681  12.229  1.00  0.00     0.158 A
HETATM    3  N3  UNL     1      20.321   3.458  12.202  1.00  0.00    -0.080 NA
HETATM    4  N4  UNL     1      20.141   5.849  11.967  1.00  0.00    -0.221 N
HETATM    5  C11 UNL     1      19.423   7.005  12.017  1.00  0.00     0.204 A
HETATM    6  S1  UNL     1      20.203   8.409  11.679  1.00  0.00    -0.038 SA
HETATM    7  N6  UNL     1      18.129   6.967  12.327  1.00  0.00    -0.280 N
HETATM    8  C21 UNL     1      17.522   5.801  12.593  1.00  0.00     0.266 A
HETATM    9  O8  UNL     1      16.281   5.806  12.876  1.00  0.00    -0.267 OA
ENDROOT
BRANCH   7  10
HETATM   10  C12 UNL     1      17.364   8.180  12.368  1.00  0.00     0.239 C
BRANCH  10  11
HETATM   11  C13 UNL     1      16.469   8.315  11.188  1.00  0.00     0.254 C
HETATM   12  O4  UNL     1      16.920   8.486  10.032  1.00  0.00    -0.270 OA
HETATM   13  N7  UNL     1      15.074   8.260  11.322  1.00  0.00    -0.266 N
ATOM     14  H7  UNL     1      14.722   8.109  12.267  1.00  0.00     0.190 HD
BRANCH  13  15
HETATM   15  N8  UNL     1      14.115   8.386  10.334  1.00  0.00    -0.267 N
HETATM   16  C14 UNL     1      13.705   7.596   9.308  1.00  0.00     0.237 C
HETATM   17  O5  UNL     1      14.187   6.466   9.079  1.00  0.00    -0.272 OA
ATOM     18  H8  UNL     1      13.602   9.266  10.389  1.00  0.00     0.190 HD
BRANCH  16  19
HETATM   19  C15 UNL     1      12.592   8.097   8.378  1.00  0.00     0.125 C
BRANCH  19  20
HETATM   20  C16 UNL     1      13.122   9.129   7.408  1.00  0.00     0.142 C
BRANCH  20  21
HETATM   21  N9  UNL     1      12.596  10.429   7.724  1.00  0.00    -0.309 N
HETATM   22  C17 UNL     1      11.316  10.785   7.498  1.00  0.00     0.101 A
HETATM   23  C18 UNL     1      10.876  12.031   7.884  1.00  0.00     0.092 A
HETATM   24  C19 UNL     1      11.745  12.904   8.494  1.00  0.00     0.250 A
HETATM   25  O6  UNL     1      11.363  14.043   8.854  1.00  0.00    -0.268 OA
HETATM   26  N10 UNL     1      13.037  12.499   8.698  1.00  0.00    -0.275 N
HETATM   27  C20 UNL     1      13.472  11.303   8.335  1.00  0.00     0.329 A
ATOM     28  H10 UNL     1      13.689  13.143   9.145  1.00  0.00     0.173 HD
HETATM   29  O7  UNL     1      14.671  10.964   8.540  1.00  0.00    -0.246 OA
ENDBRANCH  20  21
ENDBRANCH  19  20
ENDBRANCH  16  19
ENDBRANCH  13  15
ENDBRANCH  10  11
ENDBRANCH   7  10
BRANCH   4  30
HETATM   30  N5  UNL     1      21.488   5.921  11.627  1.00  0.00    -0.335 N
ATOM     31  H52 UNL     1      22.076   5.105  11.796  1.00  0.00     0.177 HD
ATOM     32  H51 UNL     1      21.883   6.771  11.223  1.00  0.00     0.177 HD
ENDBRANCH   4  30
BRANCH   1  33
HETATM   33  C8  UNL     1      17.566   3.301  12.665  1.00  0.00     0.054 A
HETATM   34  N1  UNL     1      16.902   2.769  13.672  1.00  0.00    -0.285 N
HETATM   35  N2  UNL     1      16.614   1.628  13.253  1.00  0.00    -0.299 N
HETATM   36  C4  UNL     1      16.798   0.984  12.253  1.00  0.00     0.060 A
ATOM     37  H2  UNL     1      16.080   1.101  13.944  1.00  0.00     0.187 HD
HETATM   38  C7  UNL     1      17.605   2.345  11.710  1.00  0.00     0.121 A
BRANCH  34  39
HETATM   39  C3  UNL     1      16.653   3.146  15.049  1.00  0.00     0.259 C
BRANCH  39  40
HETATM   40  C2  UNL     1      16.613   1.835  15.833  1.00  0.00     0.278 C
HETATM   41  O2  UNL     1      17.643   1.333  16.308  1.00  0.00    -0.263 OA
BRANCH  40  42
HETATM   42  O1  UNL     1      15.383   1.239  15.992  1.00  0.00    -0.325 OA
HETATM   43  C1  UNL     1      14.442   1.607  17.005  1.00  0.00     0.213 C
ENDBRANCH  40  42
ENDBRANCH  39  40
ENDBRANCH  34  39
BRANCH  36  44
HETATM   44  C5  UNL     1      17.030   0.215  11.037  1.00  0.00     0.063 C
HETATM   45  C6  UNL     1      17.765  -0.937  10.623  1.00  0.00     0.078 C
BRANCH  44  46
HETATM   46  O3  UNL     1      16.334   0.768  10.015  1.00  0.00    -0.363 OA
ATOM     47  H3  UNL     1      16.303   0.158   9.287  1.00  0.00     0.217 HD
ENDBRANCH  44  46
ENDBRANCH  36  44
ENDBRANCH   1  33
TORSDOF 13
ENDMDL