MODEL 3
REMARK VINA RESULT: -6.581076051      3.651      5.232
REMARK  3 active torsions:
REMARK  status: ('A' for Active; 'I' for Inactive)
REMARK    1  A    between atoms: C7_8  and  C8_9
REMARK    2  A    between atoms: C9_10  and  C10_11
REMARK    3  A    between atoms: C10_11  and  C11_14
ROOT
HETATM    1  C8  UNL     1      50.695  79.648  78.493  1.00  0.00    -0.093 C
HETATM    2  C9  UNL     1      50.705  79.493  79.686  1.00  0.00    -0.019 C
ENDROOT
BRANCH   1   3
HETATM    3  C7  UNL     1      50.685  79.865  77.024  1.00  0.00     0.088 C
HETATM    4  C2  UNL     1      49.311  79.647  76.540  1.00  0.00     0.047 C
HETATM    5  C1  UNL     1      49.148  78.247  75.929  1.00  0.00     0.034 C
HETATM    6 CL1  UNL     1      48.131  79.684  77.905  1.00  0.00    -0.118 Cl
HETATM    7  C3  UNL     1      48.806  80.620  75.528  1.00  0.00     0.026 C
HETATM    8  C4  UNL     1      49.908  81.229  74.691  1.00  0.00     0.002 C
HETATM    9  C5  UNL     1      50.790  81.985  75.652  1.00  0.00     0.001 C
HETATM   10  C6  UNL     1      51.347  81.148  76.742  1.00  0.00     0.019 C
ENDBRANCH   1   3
BRANCH   2  11
HETATM   11  C10 UNL     1      50.729  79.329  81.120  1.00  0.00     0.402 C
HETATM   12  F1  UNL     1      51.232  78.059  81.400  1.00  0.00    -0.181 F
HETATM   13  F2  UNL     1      49.482  79.397  81.706  1.00  0.00    -0.181 F
BRANCH  11  14
HETATM   14  C11 UNL     1      51.666  80.365  81.744  1.00  0.00     0.467 C
HETATM   15  F3  UNL     1      51.258  81.617  81.316  1.00  0.00    -0.164 F
HETATM   16  F4  UNL     1      51.635  80.285  83.115  1.00  0.00    -0.164 F
HETATM   17  F5  UNL     1      52.939  80.134  81.274  1.00  0.00    -0.164 F
ENDBRANCH  11  14
ENDBRANCH   2  11
TORSDOF 3
ENDMDL