MODEL 2
REMARK VINA RESULT: -8.430601535      0.758      1.147
REMARK  2 active torsions:
REMARK  status: ('A' for Active; 'I' for Inactive)
REMARK    1  A    between atoms: C2_2  and  C3_4
REMARK    2  A    between atoms: C3_4  and  C4_5
ROOT
HETATM    1  C3  UNL     1      49.452  79.126  77.706  1.00  0.00     0.193 C
HETATM    2  N1  UNL     1      49.569  79.963  76.542  1.00  0.00    -0.366 N
ATOM      3  H1  UNL     1      49.200  79.764  75.611  1.00  0.00     0.161 HD
HETATM    4  C5  UNL     1      50.295  81.120  76.933  1.00  0.00     0.036 A
HETATM    5  C6  UNL     1      50.427  82.389  76.340  1.00  0.00     0.030 A
HETATM    6  C7  UNL     1      51.200  83.357  76.923  1.00  0.00     0.002 A
HETATM    7  C8  UNL     1      51.879  83.141  78.101  1.00  0.00     0.001 A
HETATM    8  C9  UNL     1      51.744  81.894  78.674  1.00  0.00     0.010 A
HETATM    9  C10 UNL     1      50.967  80.894  78.109  1.00  0.00    -0.021 A
HETATM   10  C11 UNL     1      50.660  79.500  78.512  1.00  0.00     0.022 C
HETATM   11  C12 UNL     1      50.457  79.415  79.991  1.00  0.00     0.023 C
HETATM   12  C13 UNL     1      51.843  78.645  78.138  1.00  0.00     0.023 C
ENDROOT
BRANCH   1  13
HETATM   13  C2  UNL     1      49.439  77.707  77.317  1.00  0.00     0.123 C
HETATM   14  C1  UNL     1      49.512  77.290  76.074  1.00  0.00     0.055 C
HETATM   15  F1  UNL     1      49.353  76.753  78.281  1.00  0.00    -0.209 F
ENDBRANCH   1  13
BRANCH   1  16
HETATM   16  C4  UNL     1      48.150  79.550  78.366  1.00  0.00     0.420 C
HETATM   17  F2  UNL     1      48.254  79.126  79.698  1.00  0.00    -0.168 F
HETATM   18  F3  UNL     1      47.108  78.830  77.830  1.00  0.00    -0.168 F
HETATM   19  F4  UNL     1      47.945  80.889  78.370  1.00  0.00    -0.168 F
ENDBRANCH   1  16
TORSDOF 2
ENDMDL