MODEL 4
REMARK VINA RESULT: -6.417675673      1.327      1.655
REMARK  1 active torsions:
REMARK  status: ('A' for Active; 'I' for Inactive)
REMARK    1  A    between atoms: C5_5  and  C7_7
ROOT
HETATM    1  C1  UNL     1      50.407  79.531  80.902  1.00  0.00     0.021 C
HETATM    2  C2  UNL     1      49.585  79.810  79.628  1.00  0.00     0.023 C
HETATM    3  C3  UNL     1      48.325  80.510  80.180  1.00  0.00     0.021 C
HETATM    4  C4  UNL     1      50.304  80.803  78.809  1.00  0.00     0.054 C
HETATM    5  C5  UNL     1      50.389  80.557  77.342  1.00  0.00     0.122 C
HETATM    6  C6  UNL     1      51.792  80.997  76.853  1.00  0.00     0.047 C
HETATM    7  N1  UNL     1      50.235  79.233  76.908  1.00  0.00    -0.392 N
ATOM      8  H1  UNL     1      50.807  78.870  76.145  1.00  0.00     0.155 HD
HETATM    9  C8  UNL     1      49.278  78.403  77.542  1.00  0.00     0.086 C
HETATM   10  C9  UNL     1      49.747  76.964  77.216  1.00  0.00     0.044 C
HETATM   11  C10 UNL     1      47.906  78.479  76.887  1.00  0.00     0.044 C
HETATM   12  C11 UNL     1      49.168  78.546  79.019  1.00  0.00     0.274 C
HETATM   13  F4  UNL     1      49.872  77.488  79.625  1.00  0.00    -0.203 F
HETATM   14  F5  UNL     1      47.838  78.225  79.354  1.00  0.00    -0.203 F
ENDROOT
BRANCH   5  15
HETATM   15  C7  UNL     1      49.496  81.548  76.567  1.00  0.00     0.411 C
HETATM   16  F1  UNL     1      49.493  81.244  75.237  1.00  0.00    -0.168 F
HETATM   17  F2  UNL     1      50.157  82.783  76.679  1.00  0.00    -0.168 F
HETATM   18  F3  UNL     1      48.279  81.719  77.130  1.00  0.00    -0.168 F
ENDBRANCH   5  15
TORSDOF 1
ENDMDL