MODEL 1
REMARK VINA RESULT: -8.305869358      0.000      0.000
REMARK  3 active torsions:
REMARK  status: ('A' for Active; 'I' for Inactive)
REMARK    1  A    between atoms: C5_5  and  C6_6
REMARK    2  A    between atoms: C8_11  and  C10_13
REMARK    3  A    between atoms: N1_17  and  O1_18
ROOT
HETATM    1  C1  UNL     1      47.901  78.355  78.061  1.00  0.00     0.038 C
HETATM    2  C2  UNL     1      48.747  79.556  78.510  1.00  0.00     0.050 C
HETATM    3  C3  UNL     1      47.763  80.655  78.831  1.00  0.00     0.038 C
HETATM    4  C4  UNL     1      49.450  79.218  79.770  1.00  0.00     0.011 C
HETATM    5  C5  UNL     1      50.492  79.959  80.111  1.00  0.00     0.026 C
HETATM    6  C7  UNL     1      50.897  81.061  79.233  1.00  0.00     0.079 C
HETATM    7  C8  UNL     1      50.805  80.640  77.786  1.00  0.00     0.137 C
HETATM    8  C9  UNL     1      52.117  79.895  77.479  1.00  0.00     0.045 C
HETATM    9  N1  UNL     1      49.669  79.846  77.482  1.00  0.00    -0.169 NA
ENDROOT
BRANCH   7  10
HETATM   10  C10 UNL     1      50.810  81.832  76.847  1.00  0.00     0.409 C
HETATM   11  F4  UNL     1      51.493  82.847  77.508  1.00  0.00    -0.169 F
HETATM   12  F5  UNL     1      49.502  82.282  76.633  1.00  0.00    -0.169 F
HETATM   13  F6  UNL     1      51.438  81.603  75.664  1.00  0.00    -0.169 F
ENDBRANCH   7  10
BRANCH   9  14
HETATM   14  O1  UNL     1      50.109  78.677  76.932  1.00  0.00    -0.311 OA
ATOM     15  H1  UNL     1      50.236  78.800  75.998  1.00  0.00     0.237 HD
ENDBRANCH   9  14
BRANCH   5  16
HETATM   16  C6  UNL     1      51.196  79.613  81.384  1.00  0.00     0.413 C
HETATM   17  F1  UNL     1      50.498  80.071  82.484  1.00  0.00    -0.166 F
HETATM   18  F2  UNL     1      51.283  78.237  81.507  1.00  0.00    -0.166 F
HETATM   19  F3  UNL     1      52.449  80.201  81.313  1.00  0.00    -0.166 F
ENDBRANCH   5  16
TORSDOF 3
ENDMDL