MODEL 4
REMARK VINA RESULT: -8.227252296      2.106      3.361
REMARK  2 active torsions:
REMARK  status: ('A' for Active; 'I' for Inactive)
REMARK    1  A    between atoms: C1_2  and  C2_5
REMARK    2  A    between atoms: N1_13  and  C9_14
ROOT
HETATM    1  C2  UNL     1      49.986  79.082  78.354  1.00  0.00     0.201 C
HETATM    2  C3  UNL     1      49.692  79.491  79.823  1.00  0.00     0.039 C
HETATM    3  C4  UNL     1      51.054  79.872  80.399  1.00  0.00     0.044 C
HETATM    4  C5  UNL     1      51.393  81.212  79.742  1.00  0.00    -0.024 A
HETATM    5  C6  UNL     1      52.038  82.255  80.317  1.00  0.00     0.017 A
HETATM    6  C7  UNL     1      52.240  83.371  79.538  1.00  0.00     0.052 A
HETATM    7  S1  UNL     1      51.529  82.922  78.055  1.00  0.00    -0.084 SA
HETATM    8  C8  UNL     1      51.000  81.356  78.445  1.00  0.00     0.086 A
HETATM    9  N1  UNL     1      50.301  80.320  77.706  1.00  0.00    -0.270 N
ENDROOT
BRANCH   1  10
HETATM   10  C1  UNL     1      48.801  78.327  77.917  1.00  0.00     0.407 C
HETATM   11  F1  UNL     1      48.979  77.491  76.859  1.00  0.00    -0.169 F
HETATM   12  F2  UNL     1      47.684  79.131  77.785  1.00  0.00    -0.169 F
HETATM   13  F3  UNL     1      48.477  77.477  78.998  1.00  0.00    -0.169 F
ENDBRANCH   1  10
BRANCH   9  14
HETATM   14  C9  UNL     1      49.965  80.615  76.342  1.00  0.00     0.488 C
HETATM   15  F4  UNL     1      49.412  79.601  75.630  1.00  0.00    -0.150 F
HETATM   16  F5  UNL     1      51.085  81.181  75.756  1.00  0.00    -0.150 F
HETATM   17  F6  UNL     1      49.008  81.653  76.279  1.00  0.00    -0.150 F
ENDBRANCH   9  14
TORSDOF 2
ENDMDL