MODEL 4
REMARK VINA RESULT: -7.300573550      2.451      4.338
REMARK  1 active torsions:
REMARK  status: ('A' for Active; 'I' for Inactive)
REMARK    1  A    between atoms: C3_6  and  C5_8
ROOT
HETATM    1  C1  UNL     1      51.087  79.835  81.542  1.00  0.00     0.045 C
HETATM    2  C2  UNL     1      51.195  79.891  80.055  1.00  0.00     0.212 C
HETATM    3  N1  UNL     1      50.092  79.112  79.479  1.00  0.00    -0.050 N
ATOM      4  H11 UNL     1      49.181  79.546  79.626  1.00  0.00     0.279 HD
ATOM      5  H12 UNL     1      49.912  78.245  79.986  1.00  0.00     0.279 HD
HETATM    6  C3  UNL     1      50.392  78.896  78.090  1.00  0.00     0.222 C
HETATM    7  C4  UNL     1      51.622  78.045  77.890  1.00  0.00     0.056 C
HETATM    8  C6  UNL     1      50.541  80.190  77.337  1.00  0.00     0.082 C
HETATM    9  C7  UNL     1      50.823  81.339  78.185  1.00  0.00    -0.072 C
HETATM   10  C8  UNL     1      51.134  81.229  79.471  1.00  0.00    -0.042 C
HETATM   11  C9  UNL     1      51.381  82.516  80.163  1.00  0.00     0.115 C
HETATM   12  C10 UNL     1      52.323  83.413  79.422  1.00  0.00     0.247 C
HETATM   13  F4  UNL     1      52.164  84.742  79.757  1.00  0.00    -0.206 F
HETATM   14  F5  UNL     1      53.632  83.098  79.802  1.00  0.00    -0.206 F
HETATM   15  C11 UNL     1      52.142  83.310  77.941  1.00  0.00     0.083 C
HETATM   16  C12 UNL     1      50.782  82.722  77.645  1.00  0.00     0.040 C
ENDROOT
BRANCH   6  17
HETATM   17  C5  UNL     1      49.223  78.136  77.456  1.00  0.00     0.420 C
HETATM   18  F1  UNL     1      49.445  78.043  76.097  1.00  0.00    -0.168 F
HETATM   19  F2  UNL     1      49.167  76.886  78.040  1.00  0.00    -0.168 F
HETATM   20  F3  UNL     1      48.023  78.768  77.725  1.00  0.00    -0.168 F
ENDBRANCH   6  17
TORSDOF 1
ENDMDL