MODEL 5
REMARK VINA RESULT: -8.605747472      3.202      4.888
REMARK  2 active torsions:
REMARK  status: ('A' for Active; 'I' for Inactive)
REMARK    1  A    between atoms: C8_8  and  C9_9
REMARK    2  A    between atoms: C8_8  and  C10_13
ROOT
HETATM    1  C1  UNL     1      49.542  77.286  77.271  1.00  0.00     0.021 C
HETATM    2  C2  UNL     1      49.333  78.776  77.207  1.00  0.00    -0.005 C
HETATM    3  C3  UNL     1      48.205  79.268  78.071  1.00  0.00     0.021 C
HETATM    4  C4  UNL     1      49.081  79.235  75.777  1.00  0.00     0.015 C
HETATM    5  C5  UNL     1      49.188  80.706  75.632  1.00  0.00     0.006 C
HETATM    6  C6  UNL     1      50.646  81.127  75.912  1.00  0.00     0.041 C
HETATM    7  C7  UNL     1      50.864  80.840  77.363  1.00  0.00    -0.015 C
HETATM    8  C8  UNL     1      51.333  81.684  78.242  1.00  0.00     0.139 C
HETATM    9  C11 UNL     1      50.590  79.422  77.706  1.00  0.00     0.018 C
HETATM   10  N1  UNL     1      51.388  78.698  78.384  1.00  0.00    -0.401 N
ATOM     11  H11 UNL     1      52.243  79.138  78.723  1.00  0.00     0.156 HD
ATOM     12  H12 UNL     1      51.200  77.723  78.620  1.00  0.00     0.156 HD
ENDROOT
BRANCH   8  13
HETATM   13  C9  UNL     1      51.698  83.052  77.709  1.00  0.00     0.422 C
HETATM   14  F1  UNL     1      52.541  83.003  76.660  1.00  0.00    -0.166 F
HETATM   15  F2  UNL     1      50.477  83.650  77.288  1.00  0.00    -0.166 F
HETATM   16  F3  UNL     1      52.150  83.908  78.683  1.00  0.00    -0.166 F
ENDBRANCH   8  13
BRANCH   8  17
HETATM   17  C10 UNL     1      51.457  81.546  79.691  1.00  0.00     0.422 C
HETATM   18  F4  UNL     1      50.190  81.020  80.159  1.00  0.00    -0.166 F
HETATM   19  F5  UNL     1      51.599  82.763  80.303  1.00  0.00    -0.166 F
HETATM   20  F6  UNL     1      52.330  80.625  80.179  1.00  0.00    -0.166 F
ENDBRANCH   8  17
TORSDOF 2
ENDMDL