MODEL 4
REMARK VINA RESULT: -8.507047722      1.677      3.155
REMARK  3 active torsions:
REMARK  status: ('A' for Active; 'I' for Inactive)
REMARK    1  A    between atoms: O1_1  and  C1_3
REMARK    2  A    between atoms: C1_3  and  C2_4
REMARK    3  A    between atoms: C2_4  and  C3_7
ROOT
HETATM    1  C1  UNL     1      50.551  79.235  77.892  1.00  0.00     0.132 C
HETATM    2  C4  UNL     1      50.958  80.341  76.993  1.00  0.00     0.044 C
HETATM    3  C5  UNL     1      50.424  81.680  77.093  1.00  0.00     0.003 C
HETATM    4  C6  UNL     1      51.518  82.728  76.813  1.00  0.00     0.000 C
HETATM    5  C7  UNL     1      51.751  83.597  78.047  1.00  0.00     0.000 C
HETATM    6  C8  UNL     1      52.436  82.853  79.144  1.00  0.00     0.000 C
HETATM    7  C9  UNL     1      51.554  82.538  80.322  1.00  0.00     0.000 C
HETATM    8  C10 UNL     1      51.740  81.123  80.792  1.00  0.00     0.000 C
HETATM    9  C11 UNL     1      50.626  80.195  80.273  1.00  0.00     0.003 C
HETATM   10  C12 UNL     1      51.094  79.254  79.271  1.00  0.00     0.044 C
ENDROOT
BRANCH   1  11
HETATM   11  O1  UNL     1      51.406  78.188  77.339  1.00  0.00    -0.383 OA
ATOM     12  H1  UNL     1      51.902  78.735  76.742  1.00  0.00     0.210 HD
ENDBRANCH   1  11
BRANCH   1  13
HETATM   13  C2  UNL     1      49.263  78.571  77.666  1.00  0.00     0.369 C
HETATM   14  F1  UNL     1      49.071  78.515  76.270  1.00  0.00    -0.193 F
HETATM   15  F2  UNL     1      49.395  77.209  78.020  1.00  0.00    -0.193 F
BRANCH  13  16
HETATM   16  C3  UNL     1      48.003  79.001  78.250  1.00  0.00     0.457 C
HETATM   17  F3  UNL     1      46.841  78.522  77.678  1.00  0.00    -0.165 F
HETATM   18  F4  UNL     1      47.910  80.335  78.591  1.00  0.00    -0.165 F
HETATM   19  F5  UNL     1      47.971  78.377  79.527  1.00  0.00    -0.165 F
ENDBRANCH  13  16
ENDBRANCH   1  13
TORSDOF 3
ENDMDL