MODEL 2
REMARK VINA RESULT: -7.343796673      0.174      1.104
REMARK  2 active torsions:
REMARK  status: ('A' for Active; 'I' for Inactive)
REMARK    1  A    between atoms: C2_2  and  C5_5
REMARK    2  A    between atoms: C9_10  and  C10_12
ROOT
HETATM    1  C5  UNL     1      50.183  79.740  78.892  1.00  0.00     0.274 C
HETATM    2  F1  UNL     1      50.605  78.679  78.077  1.00  0.00    -0.211 F
HETATM    3  C6  UNL     1      51.303  80.060  79.833  1.00  0.00     0.075 C
HETATM    4  C7  UNL     1      51.521  81.552  79.962  1.00  0.00     0.009 C
HETATM    5  C8  UNL     1      51.800  82.217  78.660  1.00  0.00     0.066 C
HETATM    6  C9  UNL     1      51.134  81.435  77.543  1.00  0.00     0.301 C
HETATM    7 CL1  UNL     1      52.312  80.259  76.938  1.00  0.00    -0.079 Cl
HETATM    8  N1  UNL     1      49.936  80.854  78.037  1.00  0.00    -0.006 N
ATOM      9  H11 UNL     1      49.355  81.552  78.502  1.00  0.00     0.283 HD
ATOM     10  H12 UNL     1      49.309  80.601  77.274  1.00  0.00     0.283 HD
ENDROOT
BRANCH   1  11
HETATM   11  C2  UNL     1      48.950  79.233  79.585  1.00  0.00     0.012 C
HETATM   12  C1  UNL     1      48.152  78.262  78.787  1.00  0.00     0.020 C
HETATM   13  C3  UNL     1      49.381  78.608  80.896  1.00  0.00     0.020 C
HETATM   14  C4  UNL     1      48.064  80.417  79.911  1.00  0.00     0.020 C
ENDBRANCH   1  11
BRANCH   6  15
HETATM   15  C10 UNL     1      50.877  82.423  76.418  1.00  0.00     0.434 C
HETATM   16  F2  UNL     1      49.766  83.206  76.686  1.00  0.00    -0.167 F
HETATM   17  F3  UNL     1      51.959  83.286  76.372  1.00  0.00    -0.167 F
HETATM   18  F4  UNL     1      50.800  81.811  75.191  1.00  0.00    -0.167 F
ENDBRANCH   6  15
TORSDOF 2
ENDMDL