MODEL 1
REMARK VINA RESULT: -7.205929358      0.000      0.000
REMARK  3 active torsions:
REMARK  status: ('A' for Active; 'I' for Inactive)
REMARK    1  A    between atoms: C6_6  and  C8_8
REMARK    2  A    between atoms: C11_15  and  C12_16
REMARK    3  A    between atoms: C12_16  and  N1_17
ROOT
HETATM    1  C1  UNL     1      52.089  82.277  76.197  1.00  0.00     0.016 C
HETATM    2  C2  UNL     1      50.903  81.996  77.089  1.00  0.00    -0.029 C
HETATM    3  C3  UNL     1      49.830  83.030  76.832  1.00  0.00     0.016 C
HETATM    4  C4  UNL     1      51.396  82.030  78.526  1.00  0.00     0.011 C
HETATM    5  C5  UNL     1      50.417  81.278  79.364  1.00  0.00     0.022 C
HETATM    6  C6  UNL     1      50.468  79.778  79.153  1.00  0.00     0.091 C
HETATM    7  C7  UNL     1      51.687  79.274  79.928  1.00  0.00     0.028 C
HETATM    8  C9  UNL     1      50.581  79.475  77.705  1.00  0.00     0.131 C
HETATM    9  C10 UNL     1      49.741  78.335  77.222  1.00  0.00     0.054 C
HETATM   10  F4  UNL     1      51.912  79.123  77.432  1.00  0.00    -0.241 F
HETATM   11  C11 UNL     1      50.313  80.669  76.864  1.00  0.00     0.122 C
ENDROOT
BRANCH   6  12
HETATM   12  C8  UNL     1      49.257  79.220  79.834  1.00  0.00     0.398 C
HETATM   13  F1  UNL     1      49.414  79.511  81.200  1.00  0.00    -0.170 F
HETATM   14  F2  UNL     1      49.162  77.851  79.766  1.00  0.00    -0.170 F
HETATM   15  F3  UNL     1      48.088  79.859  79.463  1.00  0.00    -0.170 F
ENDBRANCH   6  12
BRANCH  11  16
HETATM   16  C12 UNL     1      49.495  80.575  75.825  1.00  0.00    -0.069 C
BRANCH  16  17
HETATM   17  N1  UNL     1      49.053  80.495  74.620  1.00  0.00    -0.369 N
ATOM     18  H12 UNL     1      49.809  81.038  74.202  1.00  0.00     0.165 HD
ATOM     19  H11 UNL     1      48.474  80.263  73.813  1.00  0.00     0.165 HD
ENDBRANCH  16  17
ENDBRANCH  11  16
TORSDOF 3
ENDMDL