MODEL 2
REMARK VINA RESULT: -7.473378735      0.074      1.077
REMARK  2 active torsions:
REMARK  status: ('A' for Active; 'I' for Inactive)
REMARK    1  A    between atoms: C6_6  and  C7_7
REMARK    2  A    between atoms: C8_11  and  N1_12
ROOT
HETATM    1  C1  UNL     1     -33.588 -11.331  18.909  1.00  0.00     0.010 C
HETATM    2  C2  UNL     1     -32.899 -11.985  20.115  1.00  0.00    -0.016 C
HETATM    3  C3  UNL     1     -32.733 -13.419  19.821  1.00  0.00     0.009 C
HETATM    4  C4  UNL     1     -31.340 -13.887  19.557  1.00  0.00    -0.004 C
HETATM    5  C5  UNL     1     -31.300 -15.380  19.581  1.00  0.00     0.011 C
HETATM    6  C6  UNL     1     -30.431 -13.220  20.530  1.00  0.00     0.127 C
HETATM    7  C8  UNL     1     -30.392 -11.788  20.109  1.00  0.00     0.196 C
HETATM    8  C9  UNL     1     -31.722 -11.185  20.462  1.00  0.00     0.037 C
ENDROOT
BRANCH   6   9
HETATM    9  C7  UNL     1     -29.099 -13.869  20.696  1.00  0.00     0.393 C
HETATM   10  F1  UNL     1     -29.125 -15.082  20.028  1.00  0.00    -0.171 F
HETATM   11  F2  UNL     1     -28.177 -13.097  19.971  1.00  0.00    -0.171 F
HETATM   12  F3  UNL     1     -28.721 -14.022  21.996  1.00  0.00    -0.171 F
ENDBRANCH   6   9
BRANCH   7  13
HETATM   13  N1  UNL     1     -29.315 -11.028  20.653  1.00  0.00    -0.074 N
ATOM     14  H13 UNL     1     -29.545 -10.717  21.597  1.00  0.00     0.274 HD
ATOM     15  H12 UNL     1     -28.521 -11.637  20.855  1.00  0.00     0.274 HD
ATOM     16  H11 UNL     1     -29.015 -10.236  20.084  1.00  0.00     0.274 HD
ENDBRANCH   7  13
TORSDOF 2
ENDMDL