MODEL 5
REMARK VINA RESULT: -5.399625648      2.176      3.802
REMARK  2 active torsions:
REMARK  status: ('A' for Active; 'I' for Inactive)
REMARK    1  A    between atoms: C2_2  and  N1_4
REMARK    2  A    between atoms: C2_2  and  C10_11
ROOT
HETATM    1  N1  UNL     1     -30.641 -13.085  19.795  1.00  0.00    -0.388 N
HETATM    2  C4  UNL     1     -30.445 -12.583  21.088  1.00  0.00     0.080 C
HETATM    3  C5  UNL     1     -29.366 -11.534  20.863  1.00  0.00     0.027 C
HETATM    4  C6  UNL     1     -28.575 -12.150  19.711  1.00  0.00     0.027 C
HETATM    5  C7  UNL     1     -29.351 -13.430  19.384  1.00  0.00     0.080 C
HETATM    6  C8  UNL     1     -28.969 -14.403  20.513  1.00  0.00     0.027 C
HETATM    7  C9  UNL     1     -29.687 -13.758  21.712  1.00  0.00     0.027 C
ENDROOT
BRANCH   1   8
HETATM    8  C2  UNL     1     -31.683 -12.811  18.994  1.00  0.00     0.119 C
HETATM    9  C1  UNL     1     -31.193 -12.374  17.602  1.00  0.00     0.047 C
HETATM   10  C3  UNL     1     -32.718 -11.814  19.432  1.00  0.00     0.047 C
BRANCH   8  11
HETATM   11  C10 UNL     1     -32.461 -14.110  18.702  1.00  0.00     0.411 C
HETATM   12  F1  UNL     1     -31.693 -15.010  18.001  1.00  0.00    -0.168 F
HETATM   13  F2  UNL     1     -33.599 -13.841  17.964  1.00  0.00    -0.168 F
HETATM   14  F3  UNL     1     -32.860 -14.703  19.877  1.00  0.00    -0.168 F
ENDBRANCH   8  11
ENDBRANCH   1   8
TORSDOF 2
ENDMDL