MODEL 5
REMARK VINA RESULT: -6.313439063      3.414      4.390
REMARK  1 active torsions:
REMARK  status: ('A' for Active; 'I' for Inactive)
REMARK    1  A    between atoms: C5_5  and  C6_6
ROOT
HETATM    1  C1  UNL     1     -32.647 -15.100  19.937  1.00  0.00     0.012 C
HETATM    2  C2  UNL     1     -31.586 -14.091  20.202  1.00  0.00     0.008 C
HETATM    3  C3  UNL     1     -30.205 -14.608  19.776  1.00  0.00     0.009 C
HETATM    4  C4  UNL     1     -29.193 -13.721  20.441  1.00  0.00     0.034 C
HETATM    5  C5  UNL     1     -29.697 -12.332  20.693  1.00  0.00     0.185 C
HETATM    6  N1  UNL     1     -30.714 -11.887  19.824  1.00  0.00    -0.401 N
ATOM      7  H1  UNL     1     -30.634 -11.010  19.310  1.00  0.00     0.154 HD
HETATM    8  C7  UNL     1     -31.859 -12.725  19.700  1.00  0.00     0.022 C
HETATM    9  C8  UNL     1     -32.968 -12.113  20.562  1.00  0.00     0.038 C
HETATM   10  C9  UNL     1     -32.336 -12.661  18.277  1.00  0.00     0.038 C
ENDROOT
BRANCH   5  11
HETATM   11  C6  UNL     1     -28.499 -11.392  20.542  1.00  0.00     0.407 C
HETATM   12  F1  UNL     1     -28.387 -10.642  21.710  1.00  0.00    -0.169 F
HETATM   13  F2  UNL     1     -27.354 -12.151  20.436  1.00  0.00    -0.169 F
HETATM   14  F3  UNL     1     -28.669 -10.510  19.516  1.00  0.00    -0.169 F
ENDBRANCH   5  11
TORSDOF 1
ENDMDL