MODEL 1
REMARK VINA RESULT: -5.752981154      0.000      0.000
REMARK  1 active torsions:
REMARK  status: ('A' for Active; 'I' for Inactive)
REMARK    1  A    between atoms: C6_6  and  C7_8
ROOT
HETATM    1  C1  UNL     1     -32.093 -16.146  20.657  1.00  0.00     0.037 C
HETATM    2  C2  UNL     1     -31.668 -15.007  19.731  1.00  0.00     0.019 C
HETATM    3  C3  UNL     1     -31.976 -15.488  18.307  1.00  0.00     0.037 C
HETATM    4  C4  UNL     1     -30.164 -14.925  19.826  1.00  0.00     0.033 C
HETATM    5  C5  UNL     1     -29.711 -13.691  19.131  1.00  0.00     0.054 C
HETATM    6  C6  UNL     1     -30.412 -12.444  19.591  1.00  0.00     0.185 C
HETATM    7  F1  UNL     1     -30.184 -11.492  18.584  1.00  0.00    -0.234 F
HETATM    8  C8  UNL     1     -31.873 -12.586  19.766  1.00  0.00     0.060 C
HETATM    9  C9  UNL     1     -32.407 -11.623  20.842  1.00  0.00     0.041 C
HETATM   10  C10 UNL     1     -32.586 -12.111  18.488  1.00  0.00     0.041 C
HETATM   11  N1  UNL     1     -32.370 -13.861  20.073  1.00  0.00    -0.402 N
ATOM     12  H1  UNL     1     -33.264 -13.946  20.556  1.00  0.00     0.154 HD
ENDROOT
BRANCH   6  13
HETATM   13  C7  UNL     1     -29.684 -11.912  20.800  1.00  0.00     0.395 C
HETATM   14  F2  UNL     1     -28.564 -12.619  21.120  1.00  0.00    -0.211 F
HETATM   15  F3  UNL     1     -29.244 -10.628  20.444  1.00  0.00    -0.211 F
ENDBRANCH   6  13
TORSDOF 1
ENDMDL