MODEL 5
REMARK VINA RESULT: -6.371661552      2.623      3.852
REMARK  1 active torsions:
REMARK  status: ('A' for Active; 'I' for Inactive)
REMARK    1  A    between atoms: C1_2  and  C2_5
ROOT
HETATM    1  C2  UNL     1     -30.296 -12.656  20.276  1.00  0.00     0.116 C
HETATM    2  S1  UNL     1     -28.837 -11.555  20.381  1.00  0.00    -0.077 SA
HETATM    3  C3  UNL     1     -30.739 -12.660  18.865  1.00  0.00     0.030 C
HETATM    4  C4  UNL     1     -32.136 -13.086  18.607  1.00  0.00     0.002 C
HETATM    5  C5  UNL     1     -33.061 -11.885  18.633  1.00  0.00     0.000 C
HETATM    6  C6  UNL     1     -33.411 -11.673  20.110  1.00  0.00     0.000 C
HETATM    7  C7  UNL     1     -32.174 -11.051  20.736  1.00  0.00     0.002 C
HETATM    8  C8  UNL     1     -31.296 -12.140  21.259  1.00  0.00     0.030 C
ENDROOT
BRANCH   1   9
HETATM    9  C1  UNL     1     -29.830 -14.019  20.771  1.00  0.00     0.405 C
HETATM   10  F1  UNL     1     -28.631 -14.378  20.244  1.00  0.00    -0.169 F
HETATM   11  F2  UNL     1     -29.840 -14.086  22.130  1.00  0.00    -0.169 F
HETATM   12  F3  UNL     1     -30.777 -14.932  20.288  1.00  0.00    -0.169 F
ENDBRANCH   1   9
TORSDOF 1
ENDMDL