MODEL 2
REMARK VINA RESULT: -7.034520872      0.076      1.072
REMARK  2 active torsions:
REMARK  status: ('A' for Active; 'I' for Inactive)
REMARK    1  A    between atoms: C2_2  and  C3_3
REMARK    2  A    between atoms: C6_9  and  C7_10
ROOT
HETATM    1  C1  UNL     1     -32.001 -11.155  20.564  1.00  0.00     0.021 C
HETATM    2  C2  UNL     1     -30.971 -12.135  19.994  1.00  0.00    -0.013 C
HETATM    3  C4  UNL     1     -31.546 -12.693  18.733  1.00  0.00     0.015 C
HETATM    4  C5  UNL     1     -32.026 -14.106  18.848  1.00  0.00     0.014 C
HETATM    5  C6  UNL     1     -31.033 -15.045  19.447  1.00  0.00     0.093 C
HETATM    6  C8  UNL     1     -30.199 -14.460  20.537  1.00  0.00     0.014 C
HETATM    7  C9  UNL     1     -30.686 -13.145  21.051  1.00  0.00     0.015 C
ENDROOT
BRANCH   2   8
HETATM    8  C3  UNL     1     -29.748 -11.339  19.711  1.00  0.00     0.062 C
HETATM    9  N1  UNL     1     -29.093 -10.885  20.703  1.00  0.00    -0.410 N
ATOM     10  H12 UNL     1     -29.410 -11.069  21.655  1.00  0.00     0.155 HD
ATOM     11  H11 UNL     1     -28.254 -10.339  20.510  1.00  0.00     0.155 HD
ENDBRANCH   2   8
BRANCH   5  12
HETATM   12  C7  UNL     1     -31.815 -16.252  19.976  1.00  0.00     0.391 C
HETATM   13  F1  UNL     1     -31.208 -16.769  21.089  1.00  0.00    -0.171 F
HETATM   14  F2  UNL     1     -33.091 -15.782  20.265  1.00  0.00    -0.171 F
HETATM   15  F3  UNL     1     -31.935 -17.137  18.948  1.00  0.00    -0.171 F
ENDBRANCH   5  12
TORSDOF 2
ENDMDL