MODEL 1
REMARK VINA RESULT: -6.960580119      0.000      0.000
REMARK  2 active torsions:
REMARK  status: ('A' for Active; 'I' for Inactive)
REMARK    1  A    between atoms: C6_6  and  C7_7
REMARK    2  A    between atoms: C8_11  and  N1_12
ROOT
HETATM    1  C1  UNL     1     -33.459 -11.679  21.165  1.00  0.00     0.015 C
HETATM    2  C2  UNL     1     -32.766 -11.988  19.862  1.00  0.00    -0.046 C
HETATM    3  C3  UNL     1     -33.687 -11.444  18.757  1.00  0.00     0.015 C
HETATM    4  C4  UNL     1     -32.562 -13.428  19.600  1.00  0.00     0.009 C
HETATM    5  C5  UNL     1     -31.304 -14.024  20.126  1.00  0.00     0.016 C
HETATM    6  C6  UNL     1     -30.097 -13.126  19.928  1.00  0.00     0.124 C
HETATM    7  C8  UNL     1     -30.430 -11.850  20.612  1.00  0.00     0.196 C
HETATM    8  C9  UNL     1     -31.489 -11.180  19.747  1.00  0.00     0.042 C
ENDROOT
BRANCH   6   9
HETATM    9  C7  UNL     1     -28.855 -13.804  20.401  1.00  0.00     0.393 C
HETATM   10  F1  UNL     1     -27.699 -13.244  19.973  1.00  0.00    -0.171 F
HETATM   11  F2  UNL     1     -28.892 -15.113  19.923  1.00  0.00    -0.171 F
HETATM   12  F3  UNL     1     -28.912 -13.875  21.790  1.00  0.00    -0.171 F
ENDBRANCH   6   9
BRANCH   7  13
HETATM   13  N1  UNL     1     -29.338 -10.962  20.843  1.00  0.00    -0.074 N
ATOM     14  H13 UNL     1     -28.633 -11.082  20.115  1.00  0.00     0.274 HD
ATOM     15  H12 UNL     1     -29.628 -10.001  20.660  1.00  0.00     0.274 HD
ATOM     16  H11 UNL     1     -28.899 -11.023  21.762  1.00  0.00     0.274 HD
ENDBRANCH   7  13
TORSDOF 2
ENDMDL