MODEL 2
REMARK VINA RESULT: -6.473595518      0.216      1.051
REMARK  1 active torsions:
REMARK  status: ('A' for Active; 'I' for Inactive)
REMARK    1  A    between atoms: C7_7  and  C9_9
ROOT
HETATM    1  C1  UNL     1     -28.587 -13.255  20.012  1.00  0.00     0.037 C
HETATM    2  C2  UNL     1     -29.838 -13.833  20.691  1.00  0.00     0.019 C
HETATM    3  C3  UNL     1     -29.396 -14.136  22.136  1.00  0.00     0.037 C
HETATM    4  C4  UNL     1     -30.221 -15.118  20.081  1.00  0.00     0.030 C
HETATM    5  C5  UNL     1     -31.622 -15.285  19.639  1.00  0.00     0.005 C
HETATM    6  C6  UNL     1     -32.567 -14.197  20.031  1.00  0.00     0.039 C
HETATM    7  C7  UNL     1     -31.924 -12.839  19.953  1.00  0.00     0.121 C
HETATM    8  C8  UNL     1     -32.939 -11.850  20.559  1.00  0.00     0.047 C
HETATM    9  N1  UNL     1     -30.787 -12.806  20.766  1.00  0.00    -0.398 N
ATOM     10  H1  UNL     1     -30.649 -12.032  21.417  1.00  0.00     0.155 HD
ENDROOT
BRANCH   7  11
HETATM   11  C9  UNL     1     -31.734 -12.353  18.545  1.00  0.00     0.411 C
HETATM   12  F1  UNL     1     -32.855 -11.605  18.203  1.00  0.00    -0.168 F
HETATM   13  F2  UNL     1     -31.582 -13.330  17.619  1.00  0.00    -0.168 F
HETATM   14  F3  UNL     1     -30.629 -11.504  18.559  1.00  0.00    -0.168 F
ENDBRANCH   7  11
TORSDOF 1
ENDMDL