MODEL 3
REMARK VINA RESULT: -8.054633841      0.087      1.066
REMARK  1 active torsions:
REMARK  status: ('A' for Active; 'I' for Inactive)
REMARK    1  A    between atoms: C8_8  and  C9_9
ROOT
HETATM    1  C1  UNL     1     -28.676 -11.294  20.479  1.00  0.00     0.046 C
HETATM    2  C2  UNL     1     -29.717 -12.364  20.475  1.00  0.00     0.123 C
HETATM    3  C3  UNL     1     -29.116 -13.719  20.832  1.00  0.00     0.038 C
HETATM    4  C4  UNL     1     -29.696 -14.814  19.983  1.00  0.00     0.003 C
HETATM    5  C5  UNL     1     -31.186 -14.659  19.770  1.00  0.00     0.007 C
HETATM    6  C6  UNL     1     -31.555 -13.248  19.345  1.00  0.00     0.028 C
HETATM    7  C7  UNL     1     -30.256 -12.525  19.047  1.00  0.00     0.045 C
HETATM    8  C8  UNL     1     -32.037 -12.522  20.566  1.00  0.00     0.297 C
HETATM    9  N1  UNL     1     -30.877 -12.056  21.256  1.00  0.00    -0.053 N
ATOM     10  H11 UNL     1     -30.936 -11.065  21.490  1.00  0.00     0.278 HD
ATOM     11  H12 UNL     1     -30.815 -12.424  22.205  1.00  0.00     0.278 HD
ENDROOT
BRANCH   8  12
HETATM   12  C9  UNL     1     -33.031 -11.438  20.244  1.00  0.00     0.415 C
HETATM   13  F1  UNL     1     -34.140 -11.455  21.040  1.00  0.00    -0.169 F
HETATM   14  F2  UNL     1     -32.402 -10.216  20.409  1.00  0.00    -0.169 F
HETATM   15  F3  UNL     1     -33.438 -11.585  18.938  1.00  0.00    -0.169 F
ENDBRANCH   8  12
TORSDOF 1
ENDMDL