MODEL 4
REMARK VINA RESULT: -5.525169054      1.662      2.603
REMARK  1 active torsions:
REMARK  status: ('A' for Active; 'I' for Inactive)
REMARK    1  A    between atoms: C2_2  and  N1_5
ROOT
HETATM    1  N1  UNL     1     -32.159 -12.902  20.191  1.00  0.00    -0.286 N
HETATM    2  C4  UNL     1     -30.738 -12.861  20.115  1.00  0.00     0.223 C
HETATM    3  C5  UNL     1     -30.427 -14.350  20.210  1.00  0.00     0.283 C
HETATM    4  F2  UNL     1     -29.246 -14.624  19.553  1.00  0.00    -0.202 F
HETATM    5  F3  UNL     1     -30.309 -14.698  21.551  1.00  0.00    -0.202 F
HETATM    6  C6  UNL     1     -31.633 -14.965  19.571  1.00  0.00     0.110 C
HETATM    7  C7  UNL     1     -31.226 -15.445  18.208  1.00  0.00     0.041 C
HETATM    8  C8  UNL     1     -32.186 -16.076  20.446  1.00  0.00     0.041 C
HETATM    9  N2  UNL     1     -32.641 -13.925  19.428  1.00  0.00    -0.125 NA
ENDROOT
BRANCH   1  10
HETATM   10  C2  UNL     1     -32.842 -11.673  20.210  1.00  0.00     0.181 C
HETATM   11  C1  UNL     1     -33.775 -11.667  21.415  1.00  0.00     0.077 C
HETATM   12  C3  UNL     1     -33.550 -11.271  18.955  1.00  0.00     0.077 C
HETATM   13  F1  UNL     1     -31.892 -10.678  20.441  1.00  0.00    -0.219 F
ENDBRANCH   1  10
TORSDOF 1
ENDMDL