MODEL 5
REMARK VINA RESULT: -6.508977992      0.908      1.362
REMARK  3 active torsions:
REMARK  status: ('A' for Active; 'I' for Inactive)
REMARK    1  A    between atoms: C3_3  and  C4_4
REMARK    2  A    between atoms: C10_15  and  C11_16
REMARK    3  A    between atoms: N3_22  and  C17_23
ROOT
HETATM    1  C1  UNL     1     -10.516  19.920  -3.980  1.00  0.00     0.052 C
HETATM    2  C2  UNL     1     -10.602  18.961  -5.123  1.00  0.00    -0.010 A
HETATM    3  C3  UNL     1      -9.835  17.834  -5.123  1.00  0.00    -0.011 A
HETATM    4  C7  UNL     1      -9.954  16.960  -6.203  1.00  0.00     0.045 A
HETATM    5  C8  UNL     1     -10.814  17.207  -7.252  1.00  0.00     0.067 A
HETATM    6  C9  UNL     1     -11.563  18.365  -7.193  1.00  0.00     0.100 A
HETATM    7  N2  UNL     1     -12.299  18.352  -8.314  1.00  0.00    -0.341 N
ATOM      8  H2  UNL     1     -12.968  19.074  -8.581  1.00  0.00     0.167 HD
HETATM    9  C10 UNL     1     -12.026  17.238  -9.041  1.00  0.00     0.089 A
HETATM   10  N3  UNL     1     -11.107  16.518  -8.397  1.00  0.00    -0.329 N
HETATM   11  C22 UNL     1     -11.490  19.268  -6.152  1.00  0.00     0.152 A
HETATM   12  F1  UNL     1     -12.243  20.374  -6.153  1.00  0.00    -0.203 F
ENDROOT
BRANCH  10  13
HETATM   13  C17 UNL     1     -10.505  15.299  -8.752  1.00  0.00     0.094 C
HETATM   14  C18 UNL     1      -9.628  15.221  -9.940  1.00  0.00     0.053 C
HETATM   15  C19 UNL     1      -9.046  13.788  -9.932  1.00  0.00     0.234 C
HETATM   16  N4  UNL     1     -10.184  12.978 -10.392  1.00  0.00    -0.075 N
HETATM   17  C20 UNL     1     -11.104  12.900  -9.306  1.00  0.00     0.234 C
ATOM     18  H42 UNL     1     -10.606  13.331 -11.250  1.00  0.00     0.277 HD
ATOM     19  H41 UNL     1      -9.906  12.063 -10.749  1.00  0.00     0.277 HD
HETATM   20  C21 UNL     1     -11.522  14.149  -8.681  1.00  0.00     0.053 C
ENDBRANCH  10  13
BRANCH   9  21
HETATM   21  C11 UNL     1     -12.667  16.949 -10.294  1.00  0.00     0.053 C
HETATM   22  C12 UNL     1     -14.184  16.873 -10.064  1.00  0.00     0.012 C
HETATM   23  C13 UNL     1     -14.936  17.447 -11.239  1.00  0.00     0.001 C
HETATM   24  C14 UNL     1     -14.209  17.058 -12.501  1.00  0.00     0.000 C
HETATM   25  C15 UNL     1     -12.928  17.860 -12.609  1.00  0.00     0.001 C
HETATM   26  C16 UNL     1     -12.520  18.201 -11.193  1.00  0.00     0.012 C
ENDBRANCH   9  21
BRANCH   3  27
HETATM   27  C4  UNL     1      -8.904  17.544  -4.029  1.00  0.00     0.016 A
HETATM   28  C5  UNL     1      -9.200  16.868  -2.857  1.00  0.00     0.128 A
HETATM   29  N1  UNL     1      -8.065  16.822  -2.158  1.00  0.00    -0.272 N
HETATM   30  O1  UNL     1      -7.104  17.413  -2.807  1.00  0.00    -0.250 OA
ATOM     31  H1  UNL     1      -7.963  16.383  -1.243  1.00  0.00     0.194 HD
HETATM   32  C6  UNL     1      -7.572  17.876  -3.967  1.00  0.00     0.181 A
ENDBRANCH   3  27
TORSDOF 3
ENDMDL