MODEL 4
REMARK VINA RESULT: -5.320518719      4.497      7.632
REMARK  4 active torsions:
REMARK  status: ('A' for Active; 'I' for Inactive)
REMARK    1  A    between atoms: O1_1  and  C1_3
REMARK    2  A    between atoms: C2_4  and  C3_5
REMARK    3  A    between atoms: N1_6  and  C4_8
REMARK    4  A    between atoms: N2_17  and  C11_18
ROOT
HETATM    1  C1  UNL     1     -12.304  17.276  -8.657  1.00  0.00     0.186 A
HETATM    2  C2  UNL     1     -12.797  16.619  -9.758  1.00  0.00     0.145 A
HETATM    3  O2  UNL     1     -12.501  15.339  -9.560  1.00  0.00    -0.278 OA
HETATM    4  C10 UNL     1     -11.864  15.204  -8.407  1.00  0.00     0.229 A
HETATM    5  S1  UNL     1     -11.305  13.809  -7.749  1.00  0.00    -0.032 SA
HETATM    6  N2  UNL     1     -11.722  16.400  -7.812  1.00  0.00    -0.260 N
ENDROOT
BRANCH   2   7
HETATM    7  C3  UNL     1     -13.497  17.174 -10.913  1.00  0.00     0.125 C
HETATM    8  N1  UNL     1     -14.403  18.081 -10.765  1.00  0.00    -0.392 N
ATOM      9  H1  UNL     1     -14.643  18.423  -9.835  1.00  0.00     0.159 HD
BRANCH   8  10
HETATM   10  C4  UNL     1     -15.076  18.608 -11.935  1.00  0.00     0.081 C
HETATM   11  C5  UNL     1     -14.492  19.931 -12.369  1.00  0.00     0.025 C
HETATM   12  C6  UNL     1     -13.498  19.772 -13.499  1.00  0.00     0.002 C
HETATM   13  C7  UNL     1     -14.121  19.159 -14.722  1.00  0.00     0.000 C
HETATM   14  C8  UNL     1     -15.239  18.215 -14.342  1.00  0.00     0.002 C
HETATM   15  C9  UNL     1     -14.985  17.563 -13.014  1.00  0.00     0.025 C
ENDBRANCH   8  10
ENDBRANCH   2   7
BRANCH   1  16
HETATM   16  O1  UNL     1     -12.411  18.658  -8.474  1.00  0.00    -0.344 OA
ATOM     17  H1  UNL     1     -12.052  19.115  -7.722  1.00  0.00     0.219 HD
ENDBRANCH   1  16
BRANCH   6  18
HETATM   18  C11 UNL     1     -11.105  16.718  -6.572  1.00  0.00     0.044 A
HETATM   19  C12 UNL     1     -11.682  16.489  -5.359  1.00  0.00     0.031 A
HETATM   20  C13 UNL     1     -11.052  16.812  -4.174  1.00  0.00     0.021 A
HETATM   21  C14 UNL     1      -9.804  17.384  -4.228  1.00  0.00     0.011 A
HETATM   22 BR1  UNL     1      -8.912  17.839  -2.606  1.00  0.00    -0.051 Br
HETATM   23  C15 UNL     1      -9.189  17.632  -5.423  1.00  0.00     0.021 A
HETATM   24  C16 UNL     1      -9.836  17.301  -6.574  1.00  0.00     0.031 A
ENDBRANCH   6  18
TORSDOF 4
ENDMDL