MODEL 2
REMARK VINA RESULT: -5.681297940      2.694      4.808
REMARK  4 active torsions:
REMARK  status: ('A' for Active; 'I' for Inactive)
REMARK    1  A    between atoms: O1_2  and  C2_3
REMARK    2  A    between atoms: C8_9  and  O2_10
REMARK    3  A    between atoms: C18_23  and  N2_24
REMARK    4  A    between atoms: N2_24  and  N3_25
ROOT
HETATM    1  C2  UNL     1      -6.860  17.335  -9.231  1.00  0.00     0.102 A
HETATM    2  C3  UNL     1      -8.089  16.758  -9.251  1.00  0.00     0.055 A
HETATM    3  C4  UNL     1      -9.133  17.365  -8.588  1.00  0.00     0.023 A
HETATM    4  C5  UNL     1      -8.948  18.574  -7.883  1.00  0.00     0.009 A
HETATM    5  C6  UNL     1      -7.712  19.177  -7.855  1.00  0.00    -0.013 A
HETATM    6  C7  UNL     1      -7.448  20.459  -7.227  1.00  0.00     0.052 C
HETATM    7  C8  UNL     1      -6.692  18.512  -8.548  1.00  0.00     0.108 A
HETATM    8  C10 UNL     1      -9.998  19.212  -7.110  1.00  0.00     0.017 C
HETATM    9  C11 UNL     1      -9.753  20.023  -5.914  1.00  0.00     0.069 C
HETATM   10  N1  UNL     1     -11.191  19.559  -7.867  1.00  0.00    -0.358 N
ATOM     11  H1  UNL     1     -11.456  20.543  -7.905  1.00  0.00     0.166 HD
HETATM   12  C12 UNL     1     -12.027  18.615  -8.570  1.00  0.00     0.046 A
HETATM   13  C13 UNL     1     -13.300  19.105  -8.854  1.00  0.00     0.033 A
HETATM   14  C14 UNL     1     -14.192  18.295  -9.509  1.00  0.00     0.044 A
HETATM   15  C15 UNL     1     -13.873  16.996  -9.903  1.00  0.00     0.117 A
HETATM   16  F1  UNL     1     -14.784  16.207 -10.555  1.00  0.00    -0.206 F
HETATM   17  C16 UNL     1     -12.611  16.522  -9.618  1.00  0.00     0.059 A
HETATM   18  C17 UNL     1     -11.712  17.328  -8.963  1.00  0.00     0.037 A
HETATM   19  C18 UNL     1     -10.407  16.613  -8.802  1.00  0.00     0.154 C
ENDROOT
BRANCH  19  20
HETATM   20  N2  UNL     1     -10.347  15.428  -8.875  1.00  0.00    -0.327 NA
BRANCH  20  21
HETATM   21  N3  UNL     1     -10.226  14.143  -8.908  1.00  0.00    -0.263 N
HETATM   22  C19 UNL     1     -11.082  13.035  -8.406  1.00  0.00     0.157 C
HETATM   23  C20 UNL     1     -11.196  12.130  -9.606  1.00  0.00     0.024 C
HETATM   24  C21 UNL     1      -9.906  12.380 -10.355  1.00  0.00     0.024 C
HETATM   25  C22 UNL     1      -9.110  13.365  -9.508  1.00  0.00     0.157 C
ENDBRANCH  20  21
ENDBRANCH  19  20
BRANCH   1  26
HETATM   26  O1  UNL     1      -5.798  16.715  -9.906  1.00  0.00    -0.353 OA
HETATM   27  C1  UNL     1      -5.725  15.303  -9.979  1.00  0.00     0.210 C
ENDBRANCH   1  26
BRANCH   7  28
HETATM   28  O2  UNL     1      -5.442  19.110  -8.521  1.00  0.00    -0.353 OA
HETATM   29  C9  UNL     1      -4.402  18.696  -7.661  1.00  0.00     0.210 C
ENDBRANCH   7  28
TORSDOF 4
ENDMDL