MODEL 3
REMARK VINA RESULT: -6.092710029      3.438      8.142
REMARK  2 active torsions:
REMARK  status: ('A' for Active; 'I' for Inactive)
REMARK    1  A    between atoms: C2_2  and  C3_3
REMARK    2  A    between atoms: C11_14  and  C12_15
ROOT
HETATM    1  C3  UNL     1     -10.783  15.365  -8.815  1.00  0.00     0.126 C
HETATM    2  C4  UNL     1      -9.960  14.458  -9.744  1.00  0.00     0.070 C
HETATM    3  N1  UNL     1     -11.739  16.033  -9.609  1.00  0.00    -0.383 N
ATOM      4  H1  UNL     1     -12.069  15.632 -10.487  1.00  0.00     0.157 HD
HETATM    5  C5  UNL     1     -12.227  17.279  -9.145  1.00  0.00     0.033 C
HETATM    6  C6  UNL     1     -13.712  17.067  -8.799  1.00  0.00     0.031 C
HETATM    7  C7  UNL     1     -14.289  16.386 -10.032  1.00  0.00     0.006 C
HETATM    8  C8  UNL     1     -14.373  17.447 -11.076  1.00  0.00     0.043 C
HETATM    9  C9  UNL     1     -13.128  18.199 -11.328  1.00  0.00     0.120 C
HETATM   10  C10 UNL     1     -12.507  17.651 -12.624  1.00  0.00     0.212 C
HETATM   11  O1  UNL     1     -12.606  18.628 -13.620  1.00  0.00    -0.351 OA
HETATM   12  C11 UNL     1     -13.943  18.956 -13.817  1.00  0.00     0.330 C
HETATM   13  O2  UNL     1     -14.457  19.363 -12.593  1.00  0.00    -0.202 OA
HETATM   14  O3  UNL     1     -13.509  19.518 -11.687  1.00  0.00    -0.224 OA
HETATM   15  C18 UNL     1     -12.128  18.281 -10.266  1.00  0.00     0.074 C
HETATM   16  C19 UNL     1     -11.585  17.839  -7.932  1.00  0.00     0.057 C
HETATM   17  C20 UNL     1     -10.528  16.989  -7.305  1.00  0.00     0.173 C
HETATM   18  O4  UNL     1      -9.864  16.171  -8.177  1.00  0.00    -0.362 OA
ENDROOT
BRANCH  12  19
HETATM   19  C12 UNL     1     -14.081  20.050 -14.778  1.00  0.00     0.001 A
HETATM   20  C13 UNL     1     -13.650  19.903 -16.075  1.00  0.00     0.012 A
HETATM   21  C14 UNL     1     -13.776  20.938 -17.003  1.00  0.00     0.002 A
HETATM   22  C15 UNL     1     -14.342  22.135 -16.610  1.00  0.00     0.024 A
HETATM   23  C16 UNL     1     -14.778  22.298 -15.310  1.00  0.00     0.034 A
HETATM   24 CL1  UNL     1     -15.494  23.815 -14.823  1.00  0.00    -0.084 Cl
HETATM   25  C17 UNL     1     -14.640  21.247 -14.409  1.00  0.00     0.036 A
ENDBRANCH  12  19
BRANCH   1  26
HETATM   26  C2  UNL     1     -11.492  14.423  -7.862  1.00  0.00     0.056 C
HETATM   27  C1  UNL     1     -11.394  12.985  -8.321  1.00  0.00     0.010 C
ENDBRANCH   1  26
TORSDOF 2
ENDMDL