MODEL 3
REMARK VINA RESULT: -4.731155254      1.873      5.907
REMARK  4 active torsions:
REMARK  status: ('A' for Active; 'I' for Inactive)
REMARK    1  A    between atoms: O1_2  and  C2_3
REMARK    2  A    between atoms: C5_6  and  C6_7
REMARK    3  A    between atoms: C8_10  and  O3_11
REMARK    4  A    between atoms: C16_22  and  O5_23
ROOT
HETATM    1  C2  UNL     1     -12.464  16.421  -9.094  1.00  0.00     0.103 A
HETATM    2  C3  UNL     1     -11.616  15.344  -9.335  1.00  0.00     0.053 A
HETATM    3  C4  UNL     1     -10.247  15.475  -9.442  1.00  0.00    -0.002 A
HETATM    4  C5  UNL     1      -9.446  14.368  -9.683  1.00  0.00     0.055 A
HETATM    5  C8  UNL     1      -8.075  14.577  -9.779  1.00  0.00     0.093 A
HETATM    6  C9  UNL     1      -7.533  15.844  -9.640  1.00  0.00     0.035 A
HETATM    7  C10 UNL     1      -6.228  16.311  -9.692  1.00  0.00     0.049 A
HETATM    8  C11 UNL     1      -6.323  17.660  -9.481  1.00  0.00     0.051 A
HETATM    9  C12 UNL     1      -5.204  18.619  -9.442  1.00  0.00     0.077 C
HETATM   10  O4  UNL     1      -7.585  17.991  -9.314  1.00  0.00    -0.314 OA
HETATM   11  C13 UNL     1      -8.345  16.914  -9.404  1.00  0.00     0.101 A
HETATM   12  C14 UNL     1      -9.706  16.760  -9.300  1.00  0.00     0.030 A
HETATM   13  C15 UNL     1     -10.526  17.837  -9.063  1.00  0.00     0.061 A
HETATM   14 BR1  UNL     1      -9.732  19.558  -8.880  1.00  0.00    -0.047 Br
HETATM   15  C16 UNL     1     -11.904  17.667  -8.961  1.00  0.00     0.119 A
ENDROOT
BRANCH   4  16
HETATM   16  C6  UNL     1      -9.936  13.035  -9.837  1.00  0.00     0.159 C
HETATM   17  C7  UNL     1     -10.636  12.301  -8.739  1.00  0.00     0.097 C
HETATM   18  O2  UNL     1      -9.823  12.378 -10.888  1.00  0.00    -0.293 OA
ENDBRANCH   4  16
BRANCH   5  19
HETATM   19  O3  UNL     1      -7.246  13.519 -10.015  1.00  0.00    -0.359 OA
ATOM     20  H3  UNL     1      -6.510  13.361  -9.435  1.00  0.00     0.217 HD
ENDBRANCH   5  19
BRANCH   1  21
HETATM   21  O1  UNL     1     -13.798  16.235  -8.998  1.00  0.00    -0.353 OA
HETATM   22  C1  UNL     1     -14.750  16.385 -10.004  1.00  0.00     0.210 C
ENDBRANCH   1  21
BRANCH  15  23
HETATM   23  O5  UNL     1     -12.654  18.800  -8.720  1.00  0.00    -0.352 OA
HETATM   24  C17 UNL     1     -13.214  19.564  -9.774  1.00  0.00     0.210 C
ENDBRANCH  15  23
TORSDOF 4
ENDMDL