MODEL 5
REMARK VINA RESULT: -6.310471468      2.974      8.220
REMARK  5 active torsions:
REMARK  status: ('A' for Active; 'I' for Inactive)
REMARK    1  A    between atoms: O1_2  and  C2_3
REMARK    2  A    between atoms: C2_3  and  C3_4
REMARK    3  A    between atoms: C6_9  and  C7_10
REMARK    4  A    between atoms: C7_10  and  C8_15
REMARK    5  A    between atoms: N2_11  and  O2_13
ROOT
HETATM    1  C3  UNL     1     -11.072  16.682  -9.658  1.00  0.00     0.017 A
HETATM    2  C4  UNL     1     -12.299  17.079 -10.135  1.00  0.00     0.045 A
HETATM    3  C5  UNL     1     -12.508  18.301 -10.796  1.00  0.00     0.060 A
HETATM    4  N1  UNL     1     -13.740  18.627 -11.241  1.00  0.00    -0.352 N
ATOM      5  H1  UNL     1     -14.507  17.972 -11.088  1.00  0.00     0.166 HD
HETATM    6  C6  UNL     1     -13.994  19.783 -11.878  1.00  0.00     0.073 A
HETATM    7  C14 UNL     1     -12.945  20.644 -12.071  1.00  0.00     0.120 A
HETATM    8  N3  UNL     1     -11.687  20.354 -11.638  1.00  0.00    -0.362 N
ATOM      9  H3  UNL     1     -10.920  21.009 -11.792  1.00  0.00     0.165 HD
HETATM   10  C15 UNL     1     -11.476  19.182 -11.002  1.00  0.00     0.062 A
HETATM   11  C16 UNL     1     -10.244  18.811 -10.534  1.00  0.00     0.074 A
HETATM   12  C17 UNL     1     -10.044  17.597  -9.880  1.00  0.00     0.128 A
HETATM   13  F1  UNL     1      -8.807  17.350  -9.434  1.00  0.00    -0.205 F
ENDROOT
BRANCH   6  14
HETATM   14  C7  UNL     1     -15.318  20.148 -12.346  1.00  0.00     0.064 C
HETATM   15  N2  UNL     1     -15.976  19.234 -13.009  1.00  0.00    -0.271 N
ATOM     16  H2  UNL     1     -16.908  19.477 -13.344  1.00  0.00     0.194 HD
BRANCH  15  17
HETATM   17  O2  UNL     1     -15.519  17.995 -13.285  1.00  0.00    -0.290 OA
ATOM     18  H2  UNL     1     -15.058  17.746 -14.077  1.00  0.00     0.244 HD
ENDBRANCH  15  17
BRANCH  14  19
HETATM   19  C8  UNL     1     -15.924  21.492 -12.128  1.00  0.00     0.040 C
HETATM   20  C9  UNL     1     -17.069  21.690 -13.023  1.00  0.00     0.011 C
HETATM   21  C10 UNL     1     -18.424  21.703 -12.391  1.00  0.00     0.001 C
HETATM   22  C11 UNL     1     -18.356  22.565 -11.148  1.00  0.00     0.000 C
HETATM   23  C12 UNL     1     -17.511  21.741 -10.180  1.00  0.00     0.001 C
HETATM   24  C13 UNL     1     -16.118  21.744 -10.677  1.00  0.00     0.011 C
ENDBRANCH  14  19
ENDBRANCH   6  14
BRANCH   1  25
HETATM   25  C2  UNL     1     -10.846  15.417  -8.930  1.00  0.00     0.090 C
HETATM   26  C18 UNL     1      -9.775  14.567  -9.648  1.00  0.00     0.043 C
HETATM   27  C19 UNL     1      -9.417  13.469  -8.666  1.00  0.00     0.003 C
HETATM   28  C20 UNL     1     -10.593  12.509  -8.648  1.00  0.00     0.000 C
HETATM   29  C21 UNL     1     -11.810  13.113  -9.314  1.00  0.00     0.003 C
HETATM   30  C22 UNL     1     -12.068  14.516  -8.875  1.00  0.00     0.043 C
BRANCH  25  31
HETATM   31  O1  UNL     1     -10.320  15.619  -7.683  1.00  0.00    -0.380 OA
HETATM   32  C1  UNL     1     -11.064  16.192  -6.715  1.00  0.00     0.203 C
ENDBRANCH  25  31
ENDBRANCH   1  25
TORSDOF 5
ENDMDL