MODEL 3
REMARK VINA RESULT: -7.575073565      1.570      2.611
REMARK  2 active torsions:
REMARK  status: ('A' for Active; 'I' for Inactive)
REMARK    1  A    between atoms: C5_8  and  C6_9
REMARK    2  A    between atoms: C11_17  and  C12_18
ROOT
HETATM    1 CL1  UNL     1     -12.497  20.613  -6.484  1.00  0.00    -0.082 Cl
HETATM    2  C1  UNL     1     -12.037  18.932  -6.708  1.00  0.00     0.060 A
HETATM    3  C2  UNL     1     -11.622  18.261  -5.566  1.00  0.00     0.030 A
HETATM    4  C3  UNL     1     -11.236  16.954  -5.687  1.00  0.00     0.052 A
HETATM    5  C4  UNL     1     -11.276  16.370  -6.932  1.00  0.00     0.128 A
HETATM    6  N1  UNL     1     -10.956  15.116  -7.349  1.00  0.00    -0.329 N
ATOM      7  H1  UNL     1     -10.613  14.361  -6.755  1.00  0.00     0.168 HD
HETATM    8  C5  UNL     1     -11.166  15.036  -8.667  1.00  0.00     0.102 A
HETATM    9  N2  UNL     1     -11.606  16.228  -9.032  1.00  0.00    -0.280 N
ATOM     10  H2  UNL     1     -11.854  16.468  -9.992  1.00  0.00     0.189 HD
HETATM   11  N3  UNL     1     -11.692  17.064  -8.037  1.00  0.00    -0.239 N
HETATM   12  C11 UNL     1     -12.077  18.344  -7.954  1.00  0.00     0.088 A
ENDROOT
BRANCH  12  13
HETATM   13  C12 UNL     1     -12.532  19.106  -9.097  1.00  0.00     0.240 C
HETATM   14  C13 UNL     1     -11.687  20.286  -9.501  1.00  0.00     0.042 C
HETATM   15  C14 UNL     1     -12.498  20.735 -10.740  1.00  0.00     0.041 C
HETATM   16  C15 UNL     1     -12.852  19.376 -11.363  1.00  0.00     0.127 C
HETATM   17  C16 UNL     1     -12.002  19.065 -12.553  1.00  0.00     0.041 C
HETATM   18  C21 UNL     1     -14.314  19.387 -11.668  1.00  0.00     0.047 C
HETATM   19  N5  UNL     1     -12.575  18.375 -10.349  1.00  0.00    -0.057 N
HETATM   20  C17 UNL     1     -12.753  18.629 -13.761  1.00  0.00     0.036 C
HETATM   21  C18 UNL     1     -13.935  17.756 -13.505  1.00  0.00     0.191 C
HETATM   22  N4  UNL     1     -15.062  18.193 -14.309  1.00  0.00    -0.070 N
HETATM   23  C20 UNL     1     -14.701  18.063 -12.266  1.00  0.00     0.044 C
HETATM   24  C19 UNL     1     -15.912  18.137 -13.160  1.00  0.00     0.239 C
ATOM     25  H42 UNL     1     -14.996  19.055 -14.851  1.00  0.00     0.277 HD
ATOM     26  H41 UNL     1     -15.315  17.680 -15.154  1.00  0.00     0.277 HD
ATOM     27  H52 UNL     1     -11.737  17.823 -10.534  1.00  0.00     0.279 HD
ATOM     28  H51 UNL     1     -13.233  17.595 -10.349  1.00  0.00     0.279 HD
ENDBRANCH  12  13
BRANCH   8  29
HETATM   29  C6  UNL     1     -10.924  13.809  -9.470  1.00  0.00     0.055 C
HETATM   30  C7  UNL     1      -9.526  13.715  -9.978  1.00  0.00     0.012 C
HETATM   31  C8  UNL     1      -9.376  12.245 -10.301  1.00  0.00     0.001 C
HETATM   32  C9  UNL     1     -10.458  11.517  -9.530  1.00  0.00     0.001 C
HETATM   33  C10 UNL     1     -11.052  12.562  -8.601  1.00  0.00     0.012 C
ENDBRANCH   8  29
TORSDOF 2
ENDMDL