MODEL 1
REMARK VINA RESULT: -5.555457896      0.000      0.000
REMARK  5 active torsions:
REMARK  status: ('A' for Active; 'I' for Inactive)
REMARK    1  A    between atoms: C2_2  and  C4_4
REMARK    2  A    between atoms: C7_8  and  N1_9
REMARK    3  A    between atoms: C12_15  and  C13_16
REMARK       I    between atoms: N2_19  and  C14_20
REMARK    4  A    between atoms: C14_20  and  O4_22
REMARK    5  A    between atoms: O4_22  and  C15_23
ROOT
HETATM    1  N1  UNL     1     -12.143  18.255 -10.570  1.00  0.00    -0.337 N
ATOM      2  H1  UNL     1     -12.085  18.417 -11.576  1.00  0.00     0.168 HD
HETATM    3  C8  UNL     1     -12.546  19.198  -9.816  1.00  0.00     0.089 C
HETATM    4  C9  UNL     1     -12.631  18.968  -8.358  1.00  0.00     0.077 C
HETATM    5  C10 UNL     1     -13.101  20.143  -7.572  1.00  0.00     0.010 C
HETATM    6  C11 UNL     1     -13.900  21.139  -8.377  1.00  0.00     0.037 C
HETATM    7  C12 UNL     1     -12.993  21.585  -9.524  1.00  0.00     0.197 C
HETATM    8  N2  UNL     1     -12.897  20.439 -10.417  1.00  0.00    -0.268 N
HETATM    9  C14 UNL     1     -13.143  20.572 -11.811  1.00  0.00     0.369 C
HETATM   10  O3  UNL     1     -13.446  21.713 -12.241  1.00  0.00    -0.238 OA
ENDROOT
BRANCH   1  11
HETATM   11  C7  UNL     1     -11.765  16.957 -10.046  1.00  0.00     0.115 A
HETATM   12  C6  UNL     1     -12.602  15.985  -9.564  1.00  0.00     0.151 A
HETATM   13  C5  UNL     1     -12.029  14.842  -9.121  1.00  0.00     0.060 A
HETATM   14  F1  UNL     1     -13.985  16.152  -9.524  1.00  0.00    -0.203 F
HETATM   15  C4  UNL     1     -10.667  14.761  -9.196  1.00  0.00    -0.009 A
HETATM   16  S1  UNL     1     -10.224  16.256  -9.871  1.00  0.00    -0.073 SA
BRANCH  15  17
HETATM   17  C2  UNL     1      -9.823  13.588  -8.764  1.00  0.00     0.018 C
HETATM   18  C1  UNL     1     -10.636  12.497  -8.160  1.00  0.00     0.015 C
HETATM   19  C3  UNL     1      -9.151  13.055 -10.007  1.00  0.00     0.015 C
ENDBRANCH  15  17
ENDBRANCH   1  11
BRANCH   7  20
HETATM   20  C13 UNL     1     -11.651  21.959  -9.032  1.00  0.00     0.197 C
HETATM   21  O1  UNL     1     -11.550  22.719  -8.043  1.00  0.00    -0.646 OA
HETATM   22  O2  UNL     1     -10.511  21.482  -9.645  1.00  0.00    -0.646 OA
ENDBRANCH   7  20
BRANCH   9  23
HETATM   23  O4  UNL     1     -13.070  19.541 -12.705  1.00  0.00    -0.293 OA
BRANCH  23  24
HETATM   24  C15 UNL     1     -14.197  18.955 -13.335  1.00  0.00     0.061 C
HETATM   25  C16 UNL     1     -15.482  19.257 -12.603  1.00  0.00     0.046 C
HETATM   26  C17 UNL     1     -13.992  17.458 -13.338  1.00  0.00     0.046 C
HETATM   27  C18 UNL     1     -14.350  19.419 -14.760  1.00  0.00     0.046 C
ENDBRANCH  23  24
ENDBRANCH   9  23
TORSDOF 5
ENDMDL