MODEL 1
REMARK VINA RESULT: -7.114046499      0.000      0.000
REMARK  3 active torsions:
REMARK  status: ('A' for Active; 'I' for Inactive)
REMARK    1  A    between atoms: C7_7  and  N1_8
REMARK    2  A    between atoms: N1_8  and  C8_10
REMARK    3  A    between atoms: N3_18  and  C13_19
ROOT
HETATM    1  C8  UNL     1     -13.415  18.675 -10.233  1.00  0.00     0.125 A
HETATM    2  N2  UNL     1     -12.145  18.922  -9.873  1.00  0.00    -0.325 N
ATOM      3  H2  UNL     1     -11.857  19.897  -9.782  1.00  0.00     0.169 HD
HETATM    4  C9  UNL     1     -11.232  17.976  -9.627  1.00  0.00     0.140 A
HETATM    5  C10 UNL     1     -11.587  16.646  -9.741  1.00  0.00     0.085 A
HETATM    6  C11 UNL     1     -12.878  16.342 -10.107  1.00  0.00     0.061 A
HETATM    7  C12 UNL     1     -13.781  17.350 -10.350  1.00  0.00     0.080 A
HETATM    8 CL1  UNL     1     -15.437  16.936 -10.819  1.00  0.00    -0.080 Cl
HETATM    9  N3  UNL     1     -10.518  15.883  -9.447  1.00  0.00    -0.291 N
HETATM   10  C19 UNL     1      -9.527  16.766  -9.159  1.00  0.00     0.331 A
HETATM   11  O1  UNL     1      -8.337  16.449  -8.828  1.00  0.00    -0.246 OA
HETATM   12  N4  UNL     1      -9.931  18.025  -9.260  1.00  0.00    -0.288 N
HETATM   13  C20 UNL     1      -9.137  19.221  -9.023  1.00  0.00     0.163 C
ENDROOT
BRANCH   1  14
HETATM   14  N1  UNL     1     -14.371  19.685 -10.485  1.00  0.00    -0.370 N
ATOM     15  H1  UNL     1     -15.318  19.534 -10.137  1.00  0.00     0.161 HD
BRANCH  14  16
HETATM   16  C7  UNL     1     -14.113  20.917 -11.198  1.00  0.00     0.086 C
HETATM   17  C2  UNL     1     -15.389  21.711 -11.407  1.00  0.00     0.004 C
HETATM   18  C1  UNL     1     -15.892  22.367 -10.165  1.00  0.00     0.012 C
HETATM   19  C3  UNL     1     -16.423  20.828 -12.017  1.00  0.00     0.006 C
HETATM   20  C4  UNL     1     -15.921  19.734 -12.890  1.00  0.00     0.001 C
HETATM   21  C5  UNL     1     -14.555  19.896 -13.444  1.00  0.00     0.002 C
HETATM   22  C6  UNL     1     -13.587  20.622 -12.573  1.00  0.00     0.025 C
ENDBRANCH  14  16
ENDBRANCH   1  14
BRANCH   9  23
HETATM   23  C13 UNL     1     -10.416  14.449  -9.434  1.00  0.00     0.095 C
HETATM   24  C14 UNL     1     -10.590  13.832  -8.074  1.00  0.00     0.026 C
HETATM   25  C15 UNL     1     -10.643  12.338  -8.249  1.00  0.00     0.002 C
HETATM   26  C16 UNL     1     -10.595  11.897  -9.681  1.00  0.00     0.000 C
HETATM   27  C17 UNL     1      -9.455  12.468 -10.461  1.00  0.00     0.002 C
HETATM   28  C18 UNL     1      -9.149  13.913 -10.046  1.00  0.00     0.026 C
ENDBRANCH   9  23
TORSDOF 3
ENDMDL