MODEL 5
REMARK VINA RESULT: -6.468713845      1.452      1.679
REMARK  3 active torsions:
REMARK  status: ('A' for Active; 'I' for Inactive)
REMARK    1  A    between atoms: O1_2  and  C2_3
REMARK    2  A    between atoms: C6_7  and  C7_8
REMARK    3  A    between atoms: C8_11  and  C9_12
ROOT
HETATM    1  C7  UNL     1     -12.474  18.620  -9.549  1.00  0.00     0.065 A
HETATM    2  N1  UNL     1     -13.028  18.908 -10.737  1.00  0.00    -0.356 N
ATOM      3  H1  UNL     1     -12.706  18.380 -11.548  1.00  0.00     0.166 HD
HETATM    4  C8  UNL     1     -13.976  19.839 -10.936  1.00  0.00     0.036 A
HETATM    5  C15 UNL     1     -14.430  20.566  -9.854  1.00  0.00     0.093 A
HETATM    6  C16 UNL     1     -15.444  21.572  -9.987  1.00  0.00     0.103 C
HETATM    7  N2  UNL     1     -16.270  22.371 -10.074  1.00  0.00    -0.191 NA
HETATM    8  C17 UNL     1     -13.867  20.284  -8.607  1.00  0.00     0.092 A
HETATM    9  N3  UNL     1     -14.337  21.036  -7.501  1.00  0.00    -0.099 NA
HETATM   10  C18 UNL     1     -12.888  19.313  -8.442  1.00  0.00     0.098 A
HETATM   11  C19 UNL     1     -12.332  19.080  -7.140  1.00  0.00     0.103 C
HETATM   12  N4  UNL     1     -11.874  18.914  -6.073  1.00  0.00    -0.191 NA
ENDROOT
BRANCH   4  13
HETATM   13  C9  UNL     1     -14.514  20.052 -12.302  1.00  0.00     0.037 C
HETATM   14  C10 UNL     1     -15.809  19.238 -12.416  1.00  0.00     0.011 C
HETATM   15  C11 UNL     1     -15.393  17.787 -12.539  1.00  0.00     0.001 C
HETATM   16  C12 UNL     1     -15.047  17.566 -14.002  1.00  0.00     0.000 C
HETATM   17  C13 UNL     1     -14.408  18.814 -14.501  1.00  0.00     0.001 C
HETATM   18  C14 UNL     1     -13.637  19.579 -13.414  1.00  0.00     0.011 C
ENDBRANCH   4  13
BRANCH   1  19
HETATM   19  C6  UNL     1     -11.428  17.589  -9.437  1.00  0.00    -0.005 A
HETATM   20  C5  UNL     1     -10.086  17.874  -9.376  1.00  0.00     0.023 A
HETATM   21  C3  UNL     1      -9.190  16.822  -9.288  1.00  0.00    -0.026 A
HETATM   22  C2  UNL     1      -9.645  15.532  -9.264  1.00  0.00     0.095 A
HETATM   23  C4  UNL     1      -7.732  17.116  -9.218  1.00  0.00     0.051 C
HETATM   24  C21 UNL     1     -10.987  15.272  -9.325  1.00  0.00     0.068 A
HETATM   25  C20 UNL     1     -11.883  16.291  -9.411  1.00  0.00     0.040 A
HETATM   26 CL1  UNL     1     -11.583  13.609  -9.292  1.00  0.00    -0.081 Cl
BRANCH  22  27
HETATM   27  O1  UNL     1      -8.794  14.438  -9.177  1.00  0.00    -0.354 OA
HETATM   28  C1  UNL     1      -8.228  13.804 -10.293  1.00  0.00     0.210 C
ENDBRANCH  22  27
ENDBRANCH   1  19
TORSDOF 3
ENDMDL