MODEL 2
REMARK VINA RESULT: -7.151436080      1.461      4.113
REMARK  1 active torsions:
REMARK  status: ('A' for Active; 'I' for Inactive)
REMARK    1  A    between atoms: C6_6  and  C7_7
ROOT
HETATM    1  C1  UNL     1      31.686  64.017  43.613  1.00  0.00     0.013 C
HETATM    2  C2  UNL     1      30.561  64.302  43.942  1.00  0.00    -0.105 C
HETATM    3  C3  UNL     1      29.176  64.661  44.334  1.00  0.00     0.109 C
HETATM    4  C4  UNL     1      28.982  66.132  44.250  1.00  0.00    -0.009 C
HETATM    5  C5  UNL     1      29.235  66.870  45.308  1.00  0.00    -0.021 C
HETATM    6  C6  UNL     1      29.701  66.281  46.566  1.00  0.00     0.030 C
HETATM    7  C9  UNL     1      29.243  64.898  46.778  1.00  0.00    -0.021 C
HETATM    8  C10 UNL     1      29.000  64.148  45.719  1.00  0.00    -0.009 C
ENDROOT
BRANCH   6   9
HETATM    9  C7  UNL     1      29.385  67.186  47.737  1.00  0.00     0.008 C
HETATM   10  C8  UNL     1      29.154  68.604  47.283  1.00  0.00     0.006 C
ENDBRANCH   6   9
TORSDOF 1
ENDMDL