MODEL 1
REMARK VINA RESULT: -6.606147775      0.000      0.000
REMARK  2 active torsions:
REMARK  status: ('A' for Active; 'I' for Inactive)
REMARK    1  A    between atoms: C2_2  and  C3_3
REMARK    2  A    between atoms: C4_4  and  C5_5
ROOT
HETATM    1  C5  UNL     1      31.587  67.269  44.171  1.00  0.00     0.017 A
HETATM    2  C6  UNL     1      30.964  67.449  42.954  1.00  0.00     0.020 A
HETATM    3  C7  UNL     1      31.408  66.878  41.790  1.00  0.00     0.001 A
HETATM    4  C8  UNL     1      32.530  66.085  41.830  1.00  0.00     0.000 A
HETATM    5  C9  UNL     1      33.202  65.869  43.038  1.00  0.00     0.001 A
HETATM    6  C10 UNL     1      32.711  66.471  44.188  1.00  0.00     0.020 A
ENDROOT
BRANCH   1   7
HETATM    7  C4  UNL     1      31.094  67.883  45.369  1.00  0.00    -0.067 C
HETATM    8  C3  UNL     1      30.659  68.391  46.377  1.00  0.00    -0.101 C
BRANCH   8   9
HETATM    9  C2  UNL     1      30.115  69.003  47.603  1.00  0.00     0.090 C
HETATM   10  C1  UNL     1      29.021  68.108  48.097  1.00  0.00     0.018 C
ENDBRANCH   8   9
ENDBRANCH   1   7
TORSDOF 2
ENDMDL