MODEL 3
REMARK VINA RESULT: -7.281377909      3.333      4.774
REMARK  1 active torsions:
REMARK  status: ('A' for Active; 'I' for Inactive)
REMARK    1  A    between atoms: C3_3  and  C4_4
ROOT
HETATM    1  C4  UNL     1      29.343  66.331  46.136  1.00  0.00    -0.026 A
HETATM    2  C5  UNL     1      29.303  65.215  46.941  1.00  0.00     0.012 A
HETATM    3  C6  UNL     1      28.961  63.959  46.437  1.00  0.00     0.001 A
HETATM    4  C7  UNL     1      28.651  63.802  45.102  1.00  0.00     0.000 A
HETATM    5  C8  UNL     1      28.698  64.934  44.312  1.00  0.00     0.001 A
HETATM    6  C9  UNL     1      29.034  66.183  44.801  1.00  0.00     0.012 A
ENDROOT
BRANCH   1   7
HETATM    7  C3  UNL     1      29.699  67.648  46.662  1.00  0.00    -0.026 A
HETATM    8  C2  UNL     1      30.833  68.550  46.518  1.00  0.00     0.012 A
HETATM    9  C1  UNL     1      30.293  69.450  47.322  1.00  0.00     0.002 A
HETATM   10  C10 UNL     1      29.152  68.538  47.465  1.00  0.00     0.012 A
ENDBRANCH   1   7
TORSDOF 1
ENDMDL