MODEL 2
REMARK VINA RESULT: -7.471662849      0.047      3.976
REMARK  0 active torsions:
REMARK  status: ('A' for Active; 'I' for Inactive)
ROOT
HETATM    1  C1  UNL     1      33.546  65.965  43.007  1.00  0.00     0.001 A
HETATM    2  C2  UNL     1      33.507  64.626  43.329  1.00  0.00     0.001 A
HETATM    3  C3  UNL     1      32.329  64.048  43.758  1.00  0.00     0.012 A
HETATM    4  C4  UNL     1      31.158  64.775  43.880  1.00  0.00    -0.026 A
HETATM    5  C5  UNL     1      29.972  64.201  44.310  1.00  0.00     0.012 A
HETATM    6  C6  UNL     1      28.804  64.925  44.433  1.00  0.00     0.001 A
HETATM    7  C7  UNL     1      28.851  66.266  44.108  1.00  0.00     0.001 A
HETATM    8  C8  UNL     1      30.028  66.835  43.681  1.00  0.00     0.012 A
HETATM    9  C9  UNL     1      31.200  66.116  43.558  1.00  0.00    -0.026 A
HETATM   10  C10 UNL     1      32.386  66.700  43.125  1.00  0.00     0.012 A
ENDROOT
TORSDOF 0
ENDMDL