MODEL 4
REMARK VINA RESULT: -7.423986785      2.531      4.787
REMARK  1 active torsions:
REMARK  status: ('A' for Active; 'I' for Inactive)
REMARK    1  A    between atoms: C4_4  and  C5_5
ROOT
HETATM    1  C5  UNL     1      31.988  67.343  44.440  1.00  0.00    -0.036 A
HETATM    2  C6  UNL     1      31.358  67.560  43.254  1.00  0.00     0.011 A
HETATM    3  C7  UNL     1      31.561  66.640  42.227  1.00  0.00     0.001 A
HETATM    4  C8  UNL     1      32.374  65.527  42.382  1.00  0.00     0.000 A
HETATM    5  C9  UNL     1      32.989  65.350  43.598  1.00  0.00     0.001 A
HETATM    6  C10 UNL     1      32.809  66.243  44.632  1.00  0.00     0.011 A
ENDROOT
BRANCH   1   7
HETATM    7  C4  UNL     1      31.823  68.275  45.555  1.00  0.00     0.019 C
HETATM    8  C3  UNL     1      30.730  68.330  46.277  1.00  0.00    -0.054 A
HETATM    9  C2  UNL     1      29.436  67.655  46.324  1.00  0.00     0.004 A
HETATM   10  C11 UNL     1      30.302  69.161  47.453  1.00  0.00     0.065 A
HETATM   11  C1  UNL     1      29.048  68.380  47.359  1.00  0.00    -0.022 A
ENDBRANCH   1   7
TORSDOF 1
ENDMDL