MODEL 1
REMARK VINA RESULT: -7.675716213      0.000      0.000
REMARK  1 active torsions:
REMARK  status: ('A' for Active; 'I' for Inactive)
REMARK    1  A    between atoms: C4_4  and  C5_5
ROOT
HETATM    1  C5  UNL     1      30.734  64.605  44.825  1.00  0.00    -0.030 A
HETATM    2  C6  UNL     1      30.606  64.793  46.183  1.00  0.00     0.012 A
HETATM    3  C7  UNL     1      29.413  64.519  46.847  1.00  0.00     0.001 A
HETATM    4  C8  UNL     1      28.317  64.047  46.157  1.00  0.00     0.000 A
HETATM    5  C9  UNL     1      28.454  63.862  44.798  1.00  0.00     0.001 A
HETATM    6  C10 UNL     1      29.636  64.133  44.142  1.00  0.00     0.012 A
ENDROOT
BRANCH   1   7
HETATM    7  C4  UNL     1      32.004  64.896  44.113  1.00  0.00    -0.044 A
HETATM    8  C3  UNL     1      33.300  64.223  44.330  1.00  0.00     0.066 A
HETATM    9  C2  UNL     1      34.222  64.870  43.389  1.00  0.00    -0.022 A
HETATM   10  C1  UNL     1      33.555  65.783  42.725  1.00  0.00    -0.003 A
HETATM   11  C11 UNL     1      32.174  65.805  43.171  1.00  0.00     0.008 A
ENDBRANCH   1   7
TORSDOF 1
ENDMDL