MODEL 5
REMARK VINA RESULT: -6.791123606      2.227      4.634
REMARK  1 active torsions:
REMARK  status: ('A' for Active; 'I' for Inactive)
REMARK    1  A    between atoms: C4_4  and  C5_5
ROOT
HETATM    1  C1  UNL     1      28.384  64.089  46.151  1.00  0.00     0.000 A
HETATM    2  C2  UNL     1      29.493  64.593  46.797  1.00  0.00     0.001 A
HETATM    3  C3  UNL     1      30.682  64.871  46.145  1.00  0.00     0.012 A
HETATM    4  C4  UNL     1      30.794  64.646  44.787  1.00  0.00    -0.025 A
HETATM    5  C9  UNL     1      29.688  64.143  44.136  1.00  0.00     0.012 A
HETATM    6  C10 UNL     1      28.503  63.866  44.795  1.00  0.00     0.001 A
ENDROOT
BRANCH   4   7
HETATM    7  C5  UNL     1      32.034  64.930  44.073  1.00  0.00    -0.009 A
HETATM    8  C6  UNL     1      33.265  64.306  44.159  1.00  0.00     0.030 A
HETATM    9  C7  UNL     1      34.162  64.895  43.305  1.00  0.00     0.088 A
HETATM   10  N1  UNL     1      33.496  65.886  42.685  1.00  0.00    -0.374 N
HETATM   11  C8  UNL     1      32.214  65.926  43.131  1.00  0.00     0.100 A
ATOM     12  H1  UNL     1      33.894  66.513  41.985  1.00  0.00     0.164 HD
ENDBRANCH   4   7
TORSDOF 1
ENDMDL