MODEL 3
REMARK VINA RESULT: -8.020803347      1.228      4.824
REMARK  1 active torsions:
REMARK  status: ('A' for Active; 'I' for Inactive)
REMARK    1  A    between atoms: C4_4  and  C5_5
ROOT
HETATM    1  C1  UNL     1      34.306  65.197  42.972  1.00  0.00     0.000 A
HETATM    2  C2  UNL     1      33.180  65.852  42.563  1.00  0.00     0.001 A
HETATM    3  C3  UNL     1      31.948  65.701  43.202  1.00  0.00     0.012 A
HETATM    4  C4  UNL     1      31.818  64.861  44.303  1.00  0.00    -0.026 A
HETATM    5  C11 UNL     1      32.967  64.210  44.704  1.00  0.00     0.012 A
HETATM    6  C12 UNL     1      34.195  64.366  44.057  1.00  0.00     0.001 A
ENDROOT
BRANCH   4   7
HETATM    7  C5  UNL     1      30.527  64.640  44.939  1.00  0.00    -0.026 A
HETATM    8  C6  UNL     1      30.391  64.794  46.296  1.00  0.00     0.012 A
HETATM    9  C7  UNL     1      29.190  64.491  46.940  1.00  0.00     0.001 A
HETATM   10  C8  UNL     1      28.106  64.025  46.192  1.00  0.00     0.000 A
HETATM   11  C9  UNL     1      28.227  63.867  44.827  1.00  0.00     0.001 A
HETATM   12  C10 UNL     1      29.444  64.180  44.218  1.00  0.00     0.012 A
ENDBRANCH   4   7
TORSDOF 1
ENDMDL