MODEL 3
REMARK VINA RESULT: -8.099596008      0.954      4.036
REMARK  1 active torsions:
REMARK  status: ('A' for Active; 'I' for Inactive)
REMARK    1  A    between atoms: C7_7  and  C8_8
ROOT
HETATM    1  C1  UNL     1      31.045  67.585  44.310  1.00  0.00     0.049 C
HETATM    2  C2  UNL     1      30.380  66.263  44.337  1.00  0.00    -0.051 A
HETATM    3  C3  UNL     1      29.048  66.170  44.760  1.00  0.00     0.007 A
HETATM    4  C4  UNL     1      28.363  64.977  44.812  1.00  0.00     0.001 A
HETATM    5  C5  UNL     1      29.014  63.822  44.432  1.00  0.00     0.001 A
HETATM    6  C6  UNL     1      30.321  63.872  44.012  1.00  0.00     0.013 A
HETATM    7  C7  UNL     1      30.976  65.090  43.972  1.00  0.00    -0.020 A
ENDROOT
BRANCH   7   8
HETATM    8  C8  UNL     1      32.375  65.086  43.513  1.00  0.00    -0.025 A
HETATM    9  C9  UNL     1      33.055  65.404  42.428  1.00  0.00     0.012 A
HETATM   10  C10 UNL     1      34.296  65.009  43.074  1.00  0.00     0.002 A
HETATM   11  C11 UNL     1      33.637  64.691  44.154  1.00  0.00     0.012 A
ENDBRANCH   7   8
TORSDOF 1
ENDMDL