MODEL 4
REMARK VINA RESULT: -7.046029188      1.260      1.657
REMARK  1 active torsions:
REMARK  status: ('A' for Active; 'I' for Inactive)
REMARK    1  A    between atoms: C4_4  and  C5_5
ROOT
HETATM    1  C1  UNL     1      34.026  65.180  42.986  1.00  0.00     0.000 A
HETATM    2  C2  UNL     1      32.987  65.888  42.415  1.00  0.00     0.001 A
HETATM    3  C3  UNL     1      31.749  65.777  43.013  1.00  0.00     0.012 A
HETATM    4  C4  UNL     1      31.535  64.997  44.130  1.00  0.00    -0.025 A
HETATM    5  C9  UNL     1      32.570  64.285  44.708  1.00  0.00     0.012 A
HETATM    6  C10 UNL     1      33.818  64.397  44.107  1.00  0.00     0.001 A
ENDROOT
BRANCH   4   7
HETATM    7  C5  UNL     1      30.184  64.896  44.722  1.00  0.00    -0.009 A
HETATM    8  C6  UNL     1      29.222  63.968  44.324  1.00  0.00     0.030 A
HETATM    9  C7  UNL     1      28.092  64.171  45.093  1.00  0.00     0.088 A
HETATM   10  N1  UNL     1      28.384  65.191  45.924  1.00  0.00    -0.374 N
HETATM   11  C8  UNL     1      29.635  65.644  45.719  1.00  0.00     0.100 A
ATOM     12  H1  UNL     1      27.740  65.571  46.618  1.00  0.00     0.164 HD
ENDBRANCH   4   7
TORSDOF 1
ENDMDL