MODEL 4
REMARK VINA RESULT: -7.210682732      3.162      6.503
REMARK  18 active torsions:
REMARK  status: ('A' for Active; 'I' for Inactive)
REMARK    1  A    between atoms: C2_2  and  O2_4
REMARK    2  A    between atoms: O2_4  and  C3_5
REMARK    3  A    between atoms: C7_12  and  C8_13
REMARK    4  A    between atoms: C9_16  and  O8_17
REMARK    5  A    between atoms: C10_19  and  O9_20
REMARK    6  A    between atoms: O9_20  and  C11_21
REMARK    7  A    between atoms: C13_24  and  C14_25
REMARK    8  A    between atoms: C14_25  and  O11_27
REMARK    9  A    between atoms: C14_25  and  C16_29
REMARK   10  A    between atoms: C16_29  and  C17_30
REMARK   11  A    between atoms: C17_30  and  C19_32
REMARK   12  A    between atoms: C19_32  and  C20_34
REMARK   13  A    between atoms: C21_38  and  O16_39
REMARK   14  A    between atoms: C21_38  and  C22_41
REMARK   15  A    between atoms: C22_41  and  O17_42
REMARK   16  A    between atoms: C23_44  and  O18_45
REMARK   17  A    between atoms: O18_45  and  C24_46
REMARK   18  A    between atoms: C26_49  and  O20_50
ROOT
HETATM    1  C3  UNL     1     -30.124  56.373 -25.615  1.00  0.00     0.304 C
HETATM    2  O3  UNL     1     -30.994  57.454 -25.707  1.00  0.00    -0.316 OA
HETATM    3  C4  UNL     1     -31.573  57.573 -24.406  1.00  0.00     0.234 C
HETATM    4  O4  UNL     1     -32.802  58.223 -24.501  1.00  0.00    -0.328 OA
HETATM    5  C5  UNL     1     -32.827  59.479 -25.044  1.00  0.00     0.172 C
HETATM    6  C6  UNL     1     -31.441  60.061 -24.769  1.00  0.00     0.216 C
HETATM    7  O5  UNL     1     -30.998  59.622 -23.525  1.00  0.00    -0.366 OA
HETATM    8  C7  UNL     1     -30.567  58.252 -23.580  1.00  0.00     0.287 C
HETATM    9  C9  UNL     1     -33.123  59.403 -26.505  1.00  0.00     0.192 C
HETATM   10  C10 UNL     1     -34.610  59.482 -26.852  1.00  0.00     0.196 C
HETATM   11  C13 UNL     1     -35.357  59.125 -25.611  1.00  0.00     0.191 C
HETATM   12  O15 UNL     1     -35.139  60.027 -24.614  1.00  0.00    -0.340 OA
HETATM   13  C21 UNL     1     -33.837  60.267 -24.250  1.00  0.00     0.221 C
HETATM   14  C23 UNL     1     -31.908  56.141 -24.159  1.00  0.00     0.231 C
HETATM   15  C26 UNL     1     -30.959  55.287 -24.919  1.00  0.00     0.209 C
ENDROOT
BRANCH   9  16
HETATM   16  O8  UNL     1     -32.418  60.439 -27.135  1.00  0.00    -0.390 OA
ATOM     17  H8  UNL     1     -31.505  60.357 -26.887  1.00  0.00     0.210 HD
ENDBRANCH   9  16
BRANCH  13  18
HETATM   18  O16 UNL     1     -33.725  59.815 -22.911  1.00  0.00    -0.361 OA
ATOM     19  H16 UNL     1     -34.469  59.243 -22.762  1.00  0.00     0.213 HD
ENDBRANCH  13  18
BRANCH  13  20
HETATM   20  C22 UNL     1     -33.647  61.741 -24.199  1.00  0.00     0.235 C
BRANCH  20  21
HETATM   21  O17 UNL     1     -34.074  62.430 -25.326  1.00  0.00    -0.395 OA
ATOM     22  H17 UNL     1     -35.015  62.449 -25.456  1.00  0.00     0.209 HD
ENDBRANCH  20  21
ENDBRANCH  13  20
BRANCH  10  23
HETATM   23  O9  UNL     1     -34.937  58.527 -27.846  1.00  0.00    -0.311 OA
BRANCH  23  24
HETATM   24  C11 UNL     1     -34.858  58.769 -29.203  1.00  0.00     0.255 C
HETATM   25  C12 UNL     1     -35.476  57.770 -30.112  1.00  0.00     0.126 C
HETATM   26  O10 UNL     1     -34.280  59.798 -29.592  1.00  0.00    -0.266 OA
ENDBRANCH  23  24
ENDBRANCH  10  23
BRANCH   8  27
HETATM   27  C8  UNL     1     -30.324  57.846 -22.209  1.00  0.00     0.208 C
HETATM   28  O6  UNL     1     -29.393  57.040 -21.894  1.00  0.00    -0.646 OA
HETATM   29  O7  UNL     1     -31.070  58.280 -21.138  1.00  0.00    -0.646 OA
ENDBRANCH   8  27
BRANCH  14  30
HETATM   30  O18 UNL     1     -32.187  55.767 -22.853  1.00  0.00    -0.308 OA
BRANCH  30  31
HETATM   31  C24 UNL     1     -33.465  55.704 -22.325  1.00  0.00     0.255 C
HETATM   32  C25 UNL     1     -34.687  55.546 -23.178  1.00  0.00     0.126 C
HETATM   33  O19 UNL     1     -33.573  55.785 -21.074  1.00  0.00    -0.266 OA
ENDBRANCH  30  31
ENDBRANCH  14  30
BRANCH  11  34
HETATM   34  C14 UNL     1     -36.886  59.100 -25.809  1.00  0.00     0.084 C
HETATM   35  C15 UNL     1     -37.393  58.761 -24.395  1.00  0.00     0.049 C
BRANCH  34  36
HETATM   36  O11 UNL     1     -37.301  58.071 -26.613  1.00  0.00    -0.387 OA
ATOM     37  H11 UNL     1     -37.904  57.482 -26.176  1.00  0.00     0.210 HD
ENDBRANCH  34  36
BRANCH  34  38
HETATM   38  C16 UNL     1     -37.319  60.423 -26.306  1.00  0.00     0.052 C
BRANCH  38  39
HETATM   39  C17 UNL     1     -37.996  60.504 -27.623  1.00  0.00     0.066 C
HETATM   40  C18 UNL     1     -39.440  60.907 -27.578  1.00  0.00     0.018 C
BRANCH  39  41
HETATM   41  C19 UNL     1     -37.263  61.468 -28.523  1.00  0.00     0.228 C
HETATM   42  O12 UNL     1     -36.486  62.310 -27.989  1.00  0.00    -0.285 OA
BRANCH  41  43
HETATM   43  C20 UNL     1     -37.408  61.478 -29.965  1.00  0.00     0.247 C
HETATM   44  O13 UNL     1     -37.665  60.460 -30.655  1.00  0.00    -0.642 OA
HETATM   45  O14 UNL     1     -37.260  62.668 -30.665  1.00  0.00    -0.642 OA
ENDBRANCH  41  43
ENDBRANCH  39  41
ENDBRANCH  38  39
ENDBRANCH  34  38
ENDBRANCH  11  34
BRANCH   1  46
HETATM   46  O2  UNL     1     -29.884  55.936 -26.941  1.00  0.00    -0.287 OA
BRANCH  46  47
HETATM   47  C2  UNL     1     -29.029  54.864 -27.182  1.00  0.00     0.257 C
HETATM   48  C1  UNL     1     -29.353  53.927 -28.274  1.00  0.00     0.126 C
HETATM   49  O1  UNL     1     -28.024  54.767 -26.440  1.00  0.00    -0.266 OA
ENDBRANCH  46  47
ENDBRANCH   1  46
BRANCH  15  50
HETATM   50  O20 UNL     1     -30.223  54.380 -24.227  1.00  0.00    -0.388 OA
ATOM     51  H20 UNL     1     -30.700  53.594 -23.987  1.00  0.00     0.210 HD
ENDBRANCH  15  50
TORSDOF 18
ENDMDL