MODEL 1
REMARK VINA RESULT: -9.539857368      0.000      0.000
REMARK  17 active torsions:
REMARK  status: ('A' for Active; 'I' for Inactive)
REMARK       I    between atoms: C2_2  and  N1_4
REMARK    1  A    between atoms: N1_4  and  C3_5
REMARK    2  A    between atoms: N1_4  and  C7_13
REMARK    3  A    between atoms: C3_5  and  C4_6
REMARK    4  A    between atoms: C4_6  and  C5_7
REMARK    5  A    between atoms: C5_7  and  C6_8
REMARK    6  A    between atoms: C6_8  and  N2_9
REMARK    7  A    between atoms: C9_17  and  C10_18
REMARK    8  A    between atoms: C11_21  and  O4_22
REMARK    9  A    between atoms: O4_22  and  C12_23
REMARK   10  A    between atoms: C14_26  and  C15_27
REMARK   11  A    between atoms: C15_27  and  C16_28
REMARK   12  A    between atoms: C17_29  and  O5_30
REMARK   13  A    between atoms: C22_40  and  N6_41
REMARK   14  A    between atoms: N6_41  and  C23_43
REMARK   15  A    between atoms: C23_43  and  C24_44
REMARK   16  A    between atoms: C24_44  and  O8_45
REMARK   17  A    between atoms: C26_51  and  N9_52
ROOT
HETATM    1  C12 UNL     1     -32.437  55.356 -24.219  1.00  0.00     0.137 A
HETATM    2  C13 UNL     1     -31.715  55.572 -25.411  1.00  0.00     0.074 A
HETATM    3  S1  UNL     1     -31.583  56.547 -26.792  1.00  0.00    -0.083 SA
HETATM    4  C14 UNL     1     -30.242  55.793 -27.542  1.00  0.00     0.035 A
HETATM    5  C22 UNL     1     -29.936  54.785 -26.672  1.00  0.00     0.076 A
HETATM    6  C25 UNL     1     -30.707  54.673 -25.561  1.00  0.00     0.106 A
HETATM    7  N7  UNL     1     -30.775  53.862 -24.451  1.00  0.00    -0.219 N
HETATM    8  N8  UNL     1     -30.222  52.817 -23.856  1.00  0.00    -0.122 N
ATOM      9  H8  UNL     1     -29.425  52.296 -24.220  1.00  0.00     0.206 HD
HETATM   10  C26 UNL     1     -30.850  52.544 -22.721  1.00  0.00     0.713 A
HETATM   11  N11 UNL     1     -31.826  53.446 -22.604  1.00  0.00    -0.169 N
ATOM     12  H11 UNL     1     -32.491  53.503 -21.833  1.00  0.00     0.186 HD
HETATM   13  C27 UNL     1     -31.791  54.261 -23.661  1.00  0.00     0.178 A
ENDROOT
BRANCH   1  14
HETATM   14  O4  UNL     1     -33.481  56.121 -23.868  1.00  0.00    -0.315 OA
BRANCH  14  15
HETATM   15  C11 UNL     1     -33.865  56.672 -22.616  1.00  0.00     0.287 C
HETATM   16  C9  UNL     1     -35.306  57.017 -22.623  1.00  0.00     0.083 C
HETATM   17  C8  UNL     1     -35.656  58.272 -22.839  1.00  0.00     0.124 C
HETATM   18  N3  UNL     1     -34.741  59.336 -22.937  1.00  0.00    -0.201 N
HETATM   19  C7  UNL     1     -33.475  59.190 -22.809  1.00  0.00     0.685 C
ATOM     20  H3  UNL     1     -35.104  60.272 -23.119  1.00  0.00     0.183 HD
HETATM   21  N12 UNL     1     -33.017  57.882 -22.511  1.00  0.00    -0.194 N
ATOM     22  H12 UNL     1     -32.050  57.767 -22.209  1.00  0.00     0.180 HD
BRANCH  16  23
HETATM   23  C10 UNL     1     -36.357  56.025 -22.525  1.00  0.00     0.211 C
HETATM   24  O2  UNL     1     -37.214  56.027 -21.600  1.00  0.00    -0.644 OA
HETATM   25  O3  UNL     1     -36.442  55.028 -23.465  1.00  0.00    -0.644 OA
ENDBRANCH  16  23
BRANCH  19  26
HETATM   26  N1  UNL     1     -32.622  60.310 -22.933  1.00  0.00    -0.151 N
HETATM   27  C2  UNL     1     -32.456  61.215 -21.874  1.00  0.00     0.234 C
HETATM   28  C1  UNL     1     -33.089  61.138 -20.555  1.00  0.00     0.118 C
HETATM   29  O1  UNL     1     -31.675  62.210 -22.082  1.00  0.00    -0.273 OA
BRANCH  26  30
HETATM   30  C3  UNL     1     -31.937  60.509 -24.207  1.00  0.00     0.151 C
BRANCH  30  31
HETATM   31  C4  UNL     1     -30.986  59.439 -24.576  1.00  0.00     0.022 C
BRANCH  31  32
HETATM   32  C5  UNL     1     -29.807  59.200 -23.714  1.00  0.00     0.029 C
BRANCH  32  33
HETATM   33  C6  UNL     1     -29.278  57.781 -23.839  1.00  0.00     0.229 C
BRANCH  33  34
HETATM   34  N2  UNL     1     -28.445  57.606 -24.983  1.00  0.00    -0.079 N
ATOM     35  H23 UNL     1     -27.852  58.422 -25.133  1.00  0.00     0.274 HD
ATOM     36  H22 UNL     1     -27.722  56.909 -24.807  1.00  0.00     0.274 HD
ATOM     37  H21 UNL     1     -28.976  57.379 -25.824  1.00  0.00     0.274 HD
ENDBRANCH  33  34
ENDBRANCH  32  33
ENDBRANCH  31  32
ENDBRANCH  30  31
ENDBRANCH  26  30
ENDBRANCH  19  26
ENDBRANCH  14  15
ENDBRANCH   1  14
BRANCH   4  38
HETATM   38  C15 UNL     1     -29.632  56.135 -28.701  1.00  0.00     0.042 C
BRANCH  38  39
HETATM   39  C16 UNL     1     -30.021  55.482 -29.922  1.00  0.00     0.085 A
HETATM   40  C17 UNL     1     -31.276  55.558 -30.479  1.00  0.00     0.162 A
HETATM   41  N4  UNL     1     -31.589  54.919 -31.632  1.00  0.00    -0.283 N
HETATM   42  C18 UNL     1     -32.907  55.002 -32.219  1.00  0.00     0.163 C
HETATM   43  C19 UNL     1     -30.627  54.194 -32.234  1.00  0.00     0.332 A
HETATM   44  O6  UNL     1     -30.926  53.600 -33.308  1.00  0.00    -0.246 OA
HETATM   45  N5  UNL     1     -29.373  54.072 -31.746  1.00  0.00    -0.270 N
HETATM   46  C20 UNL     1     -28.406  53.272 -32.463  1.00  0.00     0.164 C
HETATM   47  C21 UNL     1     -29.081  54.720 -30.592  1.00  0.00     0.265 A
HETATM   48  O7  UNL     1     -27.905  54.603 -30.144  1.00  0.00    -0.267 OA
BRANCH  40  49
HETATM   49  O5  UNL     1     -32.228  56.310 -29.831  1.00  0.00    -0.345 OA
ATOM     50  H5  UNL     1     -33.117  56.290 -30.164  1.00  0.00     0.219 HD
ENDBRANCH  40  49
ENDBRANCH  38  39
ENDBRANCH   4  38
BRANCH   5  51
HETATM   51  N6  UNL     1     -28.815  53.908 -27.009  1.00  0.00    -0.385 N
ATOM     52  H6  UNL     1     -27.867  54.192 -26.761  1.00  0.00     0.159 HD
BRANCH  51  53
HETATM   53  C23 UNL     1     -29.024  52.654 -27.683  1.00  0.00     0.146 C
BRANCH  53  54
HETATM   54  C24 UNL     1     -29.153  51.550 -26.660  1.00  0.00     0.183 C
BRANCH  54  55
HETATM   55  O8  UNL     1     -28.108  51.586 -25.768  1.00  0.00    -0.399 OA
ATOM     56  H8  UNL     1     -27.323  51.210 -26.151  1.00  0.00     0.209 HD
ENDBRANCH  54  55
ENDBRANCH  53  54
ENDBRANCH  51  53
ENDBRANCH   5  51
BRANCH  10  57
HETATM   57  N9  UNL     1     -30.496  51.476 -21.846  1.00  0.00    -0.137 N
HETATM   58  N10 UNL     1     -31.353  50.660 -21.386  1.00  0.00    -0.331 N
ATOM     59 2H10 UNL     1     -32.326  50.787 -21.663  1.00  0.00     0.177 HD
ATOM     60 1H10 UNL     1     -31.100  49.896 -20.760  1.00  0.00     0.177 HD
ATOM     61  H9  UNL     1     -29.518  51.363 -21.579  1.00  0.00     0.205 HD
ENDBRANCH  10  57
TORSDOF 17
ENDMDL