MODEL 3
REMARK VINA RESULT: -6.893988941      2.111      6.190
REMARK  21 active torsions:
REMARK  status: ('A' for Active; 'I' for Inactive)
REMARK    1  A    between atoms: C2_2  and  O2_4
REMARK    2  A    between atoms: O2_4  and  C3_5
REMARK    3  A    between atoms: C4_6  and  O3_7
REMARK    4  A    between atoms: O3_7  and  C5_8
REMARK    5  A    between atoms: C7_11  and  O5_12
REMARK    6  A    between atoms: O5_12  and  C8_13
REMARK    7  A    between atoms: C10_17  and  O8_18
REMARK    8  A    between atoms: C16_27  and  O11_28
REMARK    9  A    between atoms: C18_31  and  C19_32
REMARK   10  A    between atoms: C19_32  and  C20_34
REMARK   11  A    between atoms: C20_34  and  O13_35
REMARK   12  A    between atoms: C23_39  and  O14_40
REMARK   13  A    between atoms: C23_39  and  O15_42
REMARK   14  A    between atoms: O15_42  and  C24_43
REMARK   15  A    between atoms: C24_43  and  C25_44
REMARK   16  A    between atoms: C25_44  and  C26_45
REMARK   17  A    between atoms: C25_44  and  C27_48
REMARK   18  A    between atoms: C25_44  and  C28_51
REMARK   19  A    between atoms: C26_45  and  O16_46
REMARK   20  A    between atoms: C27_48  and  O17_49
REMARK   21  A    between atoms: C28_51  and  O18_52
ROOT
HETATM    1  C3  UNL     1     -34.879  60.807 -22.321  1.00  0.00     0.175 C
HETATM    2  C4  UNL     1     -34.343  61.190 -23.654  1.00  0.00     0.225 C
HETATM    3  C7  UNL     1     -32.920  61.255 -23.876  1.00  0.00     0.209 C
HETATM    4  O7  UNL     1     -32.358  62.253 -22.993  1.00  0.00    -0.322 OA
HETATM    5  C10 UNL     1     -31.021  62.246 -23.372  1.00  0.00     0.261 C
HETATM    6  C11 UNL     1     -30.678  60.824 -23.719  1.00  0.00     0.072 C
HETATM    7  C12 UNL     1     -32.021  60.092 -23.755  1.00  0.00     0.076 C
HETATM    8  C13 UNL     1     -32.217  59.040 -22.754  1.00  0.00     0.088 C
HETATM    9  C14 UNL     1     -30.894  58.813 -21.957  1.00  0.00     0.198 C
HETATM   10  O9  UNL     1     -31.406  57.826 -21.037  1.00  0.00    -0.318 OA
HETATM   11  C15 UNL     1     -32.656  58.291 -20.566  1.00  0.00     0.295 C
HETATM   12  O10 UNL     1     -33.184  57.817 -19.542  1.00  0.00    -0.262 OA
HETATM   13  C16 UNL     1     -33.013  59.328 -21.546  1.00  0.00     0.167 C
HETATM   14  C17 UNL     1     -34.460  59.601 -21.642  1.00  0.00     0.075 C
HETATM   15  C18 UNL     1     -35.249  58.348 -21.818  1.00  0.00     0.068 C
HETATM   16  C21 UNL     1     -34.819  57.507 -23.003  1.00  0.00     0.018 C
HETATM   17  C22 UNL     1     -33.497  56.823 -22.855  1.00  0.00     0.070 C
HETATM   18  C23 UNL     1     -32.428  57.704 -23.398  1.00  0.00     0.175 C
ENDROOT
BRANCH  18  19
HETATM   19  O14 UNL     1     -32.956  57.965 -24.683  1.00  0.00    -0.364 OA
ATOM     20  H14 UNL     1     -33.875  57.727 -24.645  1.00  0.00     0.213 HD
ENDBRANCH  18  19
BRANCH  18  21
HETATM   21  O15 UNL     1     -31.228  57.094 -23.619  1.00  0.00    -0.353 OA
BRANCH  21  22
HETATM   22  C24 UNL     1     -31.146  56.126 -24.539  1.00  0.00     0.187 C
BRANCH  22  23
HETATM   23  C25 UNL     1     -29.986  56.205 -25.495  1.00  0.00     0.045 C
BRANCH  23  24
HETATM   24  C26 UNL     1     -29.052  55.023 -25.387  1.00  0.00     0.180 C
BRANCH  24  25
HETATM   25  O16 UNL     1     -27.910  55.330 -26.126  1.00  0.00    -0.400 OA
ATOM     26  H16 UNL     1     -27.550  54.510 -26.442  1.00  0.00     0.209 HD
ENDBRANCH  24  25
ENDBRANCH  23  24
BRANCH  23  27
HETATM   27  C27 UNL     1     -30.358  56.412 -26.934  1.00  0.00     0.180 C
BRANCH  27  28
HETATM   28  O17 UNL     1     -31.677  56.763 -27.104  1.00  0.00    -0.400 OA
ATOM     29  H17 UNL     1     -32.142  56.186 -27.699  1.00  0.00     0.209 HD
ENDBRANCH  27  28
ENDBRANCH  23  27
BRANCH  23  30
HETATM   30  C28 UNL     1     -29.114  57.437 -25.137  1.00  0.00     0.180 C
BRANCH  30  31
HETATM   31  O18 UNL     1     -28.405  57.225 -23.981  1.00  0.00    -0.400 OA
ATOM     32  H18 UNL     1     -28.979  56.983 -23.264  1.00  0.00     0.209 HD
ENDBRANCH  30  31
ENDBRANCH  23  30
ENDBRANCH  22  23
ENDBRANCH  21  22
ENDBRANCH  18  21
BRANCH  13  33
HETATM   33  O11 UNL     1     -32.355  60.415 -20.860  1.00  0.00    -0.378 OA
ATOM     34  H11 UNL     1     -31.761  60.817 -21.484  1.00  0.00     0.211 HD
ENDBRANCH  13  33
BRANCH   3  35
HETATM   35  O5  UNL     1     -32.591  61.925 -25.067  1.00  0.00    -0.280 OA
BRANCH  35  36
HETATM   36  C8  UNL     1     -33.039  61.812 -26.317  1.00  0.00     0.257 C
HETATM   37  C9  UNL     1     -33.080  60.552 -27.105  1.00  0.00     0.126 C
HETATM   38  O6  UNL     1     -33.444  62.845 -26.841  1.00  0.00    -0.266 OA
ENDBRANCH  35  36
ENDBRANCH   3  35
BRANCH  15  39
HETATM   39  C19 UNL     1     -36.718  58.514 -21.998  1.00  0.00     0.154 C
HETATM   40  O12 UNL     1     -37.406  58.853 -21.018  1.00  0.00    -0.295 OA
BRANCH  39  41
HETATM   41  C20 UNL     1     -37.467  58.316 -23.251  1.00  0.00     0.242 C
BRANCH  41  42
HETATM   42  O13 UNL     1     -37.622  59.526 -23.931  1.00  0.00    -0.394 OA
ATOM     43  H13 UNL     1     -38.019  59.384 -24.782  1.00  0.00     0.209 HD
ENDBRANCH  41  42
ENDBRANCH  39  41
ENDBRANCH  15  39
BRANCH   2  44
HETATM   44  O3  UNL     1     -34.846  62.502 -23.913  1.00  0.00    -0.308 OA
BRANCH  44  45
HETATM   45  C5  UNL     1     -36.083  62.833 -24.358  1.00  0.00     0.255 C
HETATM   46  C6  UNL     1     -36.816  64.033 -23.851  1.00  0.00     0.126 C
HETATM   47  O4  UNL     1     -36.661  62.142 -25.217  1.00  0.00    -0.266 OA
ENDBRANCH  44  45
ENDBRANCH   2  44
BRANCH   5  48
HETATM   48  O8  UNL     1     -30.193  62.765 -22.379  1.00  0.00    -0.371 OA
ATOM     49  H8  UNL     1     -29.279  62.553 -22.530  1.00  0.00     0.212 HD
ENDBRANCH   5  48
BRANCH   1  50
HETATM   50  O2  UNL     1     -34.571  61.944 -21.460  1.00  0.00    -0.313 OA
BRANCH  50  51
HETATM   51  C2  UNL     1     -35.177  62.192 -20.271  1.00  0.00     0.255 C
HETATM   52  C1  UNL     1     -36.576  62.660 -20.115  1.00  0.00     0.126 C
HETATM   53  O1  UNL     1     -34.506  62.014 -19.241  1.00  0.00    -0.266 OA
ENDBRANCH  50  51
ENDBRANCH   1  50
TORSDOF 21
ENDMDL