MODEL 2
REMARK VINA RESULT: -9.596967027      3.262      5.618
REMARK  18 active torsions:
REMARK  status: ('A' for Active; 'I' for Inactive)
REMARK    1  A    between atoms: N1_1  and  C1_5
REMARK    2  A    between atoms: C1_5  and  C2_6
REMARK    3  A    between atoms: C1_5  and  C12_38
REMARK       I    between atoms: C2_6  and  N2_8
REMARK    4  A    between atoms: N2_8  and  S1_10
REMARK    5  A    between atoms: S1_10  and  O4_13
REMARK    6  A    between atoms: O4_13  and  C3_14
REMARK    7  A    between atoms: C3_14  and  N3_15
REMARK    8  A    between atoms: C4_18  and  N5_19
REMARK    9  A    between atoms: N5_19  and  C5_21
REMARK   10  A    between atoms: C5_21  and  O5_22
REMARK   11  A    between atoms: C5_21  and  C6_24
REMARK   12  A    between atoms: C8_27  and  O7_28
REMARK   13  A    between atoms: C10_31  and  O8_32
REMARK   14  A    between atoms: C11_34  and  N6_35
REMARK       I    between atoms: C12_38  and  N7_40
REMARK   15  A    between atoms: C17_46  and  N8_47
REMARK   16  A    between atoms: C18_50  and  C19_51
REMARK   17  A    between atoms: C19_51  and  O14_52
REMARK   18  A    between atoms: C19_51  and  O15_54
ROOT
HETATM    1  S1  UNL     1     -29.135  52.147 -26.646  1.00  0.00     0.369 S
HETATM    2  O2  UNL     1     -30.295  51.215 -26.165  1.00  0.00    -0.175 OA
HETATM    3  O3  UNL     1     -27.921  51.700 -25.863  1.00  0.00    -0.175 OA
ENDROOT
BRANCH   1   4
HETATM    4  N2  UNL     1     -29.595  53.732 -26.163  1.00  0.00    -0.229 N
HETATM    5  C2  UNL     1     -28.673  54.748 -25.815  1.00  0.00     0.272 C
HETATM    6  O1  UNL     1     -27.449  54.512 -25.854  1.00  0.00    -0.270 OA
ATOM      7  H2  UNL     1     -30.590  53.952 -26.126  1.00  0.00     0.183 HD
BRANCH   5   8
HETATM    8  C1  UNL     1     -29.195  56.089 -25.399  1.00  0.00     0.366 C
BRANCH   8   9
HETATM    9  N1  UNL     1     -28.001  56.891 -24.963  1.00  0.00    -0.058 N
ATOM     10  H13 UNL     1     -28.034  57.163 -23.980  1.00  0.00     0.275 HD
ATOM     11  H12 UNL     1     -27.142  56.342 -24.913  1.00  0.00     0.275 HD
ATOM     12  H11 UNL     1     -27.939  57.684 -25.601  1.00  0.00     0.275 HD
ENDBRANCH   8   9
BRANCH   8  13
HETATM   13  C12 UNL     1     -30.160  56.084 -24.308  1.00  0.00     0.261 C
HETATM   14  O11 UNL     1     -30.084  55.107 -23.484  1.00  0.00    -0.270 OA
HETATM   15  N7  UNL     1     -31.139  57.098 -24.131  1.00  0.00    -0.324 N
HETATM   16  C13 UNL     1     -31.243  58.144 -25.083  1.00  0.00     0.154 C
HETATM   17  C18 UNL     1     -31.915  57.027 -22.913  1.00  0.00     0.172 C
HETATM   18  S2  UNL     1     -32.796  58.324 -26.002  1.00  0.00    -0.143 SA
HETATM   19  C15 UNL     1     -31.389  59.516 -24.479  1.00  0.00     0.030 C
HETATM   20  C14 UNL     1     -32.424  60.016 -25.479  1.00  0.00     0.083 C
HETATM   21  C16 UNL     1     -31.917  59.560 -23.092  1.00  0.00     0.042 C
HETATM   22  C17 UNL     1     -31.692  58.363 -22.231  1.00  0.00     0.184 C
BRANCH  22  23
HETATM   23  N8  UNL     1     -32.591  58.424 -21.086  1.00  0.00    -0.148 N
HETATM   24  O12 UNL     1     -32.348  57.807 -20.033  1.00  0.00    -0.536 OA
HETATM   25  O13 UNL     1     -33.733  59.195 -21.224  1.00  0.00    -0.536 OA
ENDBRANCH  22  23
BRANCH  17  26
HETATM   26  C19 UNL     1     -33.345  56.661 -23.021  1.00  0.00     0.278 C
BRANCH  26  27
HETATM   27  O14 UNL     1     -33.919  56.215 -21.812  1.00  0.00    -0.369 OA
ATOM     28  H14 UNL     1     -34.862  56.322 -21.768  1.00  0.00     0.212 HD
ENDBRANCH  26  27
BRANCH  26  29
HETATM   29  O15 UNL     1     -33.724  55.896 -24.103  1.00  0.00    -0.369 OA
ATOM     30  H15 UNL     1     -33.651  54.952 -24.018  1.00  0.00     0.212 HD
ENDBRANCH  26  29
ENDBRANCH  17  26
ENDBRANCH   8  13
ENDBRANCH   5   8
ENDBRANCH   1   4
BRANCH   1  31
HETATM   31  O4  UNL     1     -28.918  51.955 -28.230  1.00  0.00    -0.209 OA
BRANCH  31  32
HETATM   32  C3  UNL     1     -29.689  52.335 -29.226  1.00  0.00     0.276 C
BRANCH  32  33
HETATM   33  N3  UNL     1     -29.066  52.778 -30.451  1.00  0.00    -0.218 N
HETATM   34  N4  UNL     1     -27.960  52.175 -30.913  1.00  0.00    -0.273 N
HETATM   35  C4  UNL     1     -27.538  52.761 -32.051  1.00  0.00     0.156 A
ATOM     36  H4  UNL     1     -27.502  51.381 -30.465  1.00  0.00     0.189 HD
HETATM   37  C10 UNL     1     -28.455  53.789 -32.285  1.00  0.00     0.164 A
HETATM   38  C11 UNL     1     -29.410  53.774 -31.259  1.00  0.00     0.233 A
BRANCH  35  39
HETATM   39  N5  UNL     1     -26.508  52.425 -32.751  1.00  0.00    -0.343 N
ATOM     40  H5  UNL     1     -25.712  53.061 -32.801  1.00  0.00     0.164 HD
BRANCH  39  41
HETATM   41  C5  UNL     1     -26.452  51.178 -33.461  1.00  0.00     0.255 C
BRANCH  41  42
HETATM   42  O5  UNL     1     -25.228  51.094 -34.148  1.00  0.00    -0.372 OA
ATOM     43  H5  UNL     1     -25.391  50.806 -35.039  1.00  0.00     0.212 HD
ENDBRANCH  41  42
BRANCH  41  44
HETATM   44  C6  UNL     1     -27.516  51.112 -34.516  1.00  0.00     0.017 A
HETATM   45  C7  UNL     1     -27.613  51.931 -35.610  1.00  0.00     0.156 A
HETATM   46  O6  UNL     1     -28.661  51.573 -36.304  1.00  0.00    -0.300 OA
HETATM   47  C8  UNL     1     -29.270  50.554 -35.726  1.00  0.00     0.183 A
HETATM   48  C9  UNL     1     -28.575  50.230 -34.587  1.00  0.00     0.077 A
BRANCH  47  49
HETATM   49  O7  UNL     1     -30.430  49.920 -36.208  1.00  0.00    -0.341 OA
ATOM     50  H7  UNL     1     -31.203  49.726 -35.691  1.00  0.00     0.220 HD
ENDBRANCH  47  49
ENDBRANCH  41  44
ENDBRANCH  39  41
ENDBRANCH  35  39
BRANCH  37  51
HETATM   51  O8  UNL     1     -28.402  54.644 -33.344  1.00  0.00    -0.354 OA
ATOM     52  H8  UNL     1     -28.445  54.376 -34.255  1.00  0.00     0.218 HD
ENDBRANCH  37  51
BRANCH  38  53
HETATM   53  N6  UNL     1     -30.516  54.657 -31.207  1.00  0.00    -0.093 N
HETATM   54  O9  UNL     1     -30.400  55.899 -31.330  1.00  0.00    -0.530 OA
HETATM   55  O10 UNL     1     -31.806  54.206 -31.015  1.00  0.00    -0.530 OA
ENDBRANCH  38  53
ENDBRANCH  32  33
ENDBRANCH  31  32
ENDBRANCH   1  31
TORSDOF 18
ENDMDL