MODEL 4
REMARK VINA RESULT: -7.537326633      2.530      5.042
REMARK  15 active torsions:
REMARK  status: ('A' for Active; 'I' for Inactive)
REMARK    1  A    between atoms: S1_2  and  C2_3
REMARK    2  A    between atoms: N2_6  and  N3_7
REMARK    3  A    between atoms: C3_10  and  S2_11
REMARK    4  A    between atoms: S2_11  and  C4_12
REMARK    5  A    between atoms: C4_12  and  C5_13
REMARK    6  A    between atoms: C6_16  and  C7_17
REMARK    7  A    between atoms: C8_20  and  S3_21
REMARK    8  A    between atoms: S3_21  and  C9_22
REMARK    9  A    between atoms: C10_23  and  C11_24
REMARK   10  A    between atoms: S4_33  and  N8_35
REMARK   11  A    between atoms: N8_35  and  N9_37
REMARK   12  A    between atoms: N9_37  and  N10_39
REMARK   13  A    between atoms: C15_42  and  C16_43
REMARK   14  A    between atoms: C16_43  and  O5_44
REMARK   15  A    between atoms: C17_46  and  C18_47
REMARK       I    between atoms: C18_47  and  N11_49
ROOT
HETATM    1  C5  UNL     1     -29.242  56.161 -24.694  1.00  0.00    -0.002 C
HETATM    2  N4  UNL     1     -30.176  55.410 -24.332  1.00  0.00    -0.357 N
ATOM      3  H4  UNL     1     -30.117  54.441 -24.646  1.00  0.00     0.165 HD
HETATM    4  C6  UNL     1     -31.315  55.740 -23.533  1.00  0.00     0.111 C
HETATM    5  C8  UNL     1     -31.421  56.990 -23.124  1.00  0.00     0.024 C
HETATM    6  C17 UNL     1     -30.430  58.046 -23.657  1.00  0.00     0.125 C
HETATM    7  C21 UNL     1     -29.208  57.556 -24.219  1.00  0.00     0.072 C
ENDROOT
BRANCH   5   8
HETATM    8  S3  UNL     1     -32.657  57.612 -22.166  1.00  0.00    -0.120 SA
BRANCH   8   9
HETATM    9  C9  UNL     1     -33.945  58.613 -22.103  1.00  0.00     0.113 C
HETATM   10  C10 UNL     1     -34.982  58.622 -23.234  1.00  0.00     0.056 C
HETATM   11  C12 UNL     1     -35.856  59.588 -23.477  1.00  0.00     0.021 C
HETATM   12  C13 UNL     1     -36.780  59.421 -24.622  1.00  0.00     0.069 C
HETATM   13  N6  UNL     1     -35.968  60.789 -22.675  1.00  0.00    -0.340 N
HETATM   14  C14 UNL     1     -35.864  60.965 -21.410  1.00  0.00     0.193 C
ATOM     15  H6  UNL     1     -36.163  61.638 -23.207  1.00  0.00     0.167 HD
HETATM   16  N7  UNL     1     -36.032  62.280 -20.954  1.00  0.00    -0.071 NA
HETATM   17  S4  UNL     1     -35.542  59.771 -20.188  1.00  0.00     0.108 S
HETATM   18  O4  UNL     1     -34.740  60.335 -19.052  1.00  0.00    -0.240 OA
HETATM   19  C15 UNL     1     -34.860  58.288 -20.828  1.00  0.00     0.138 C
BRANCH  10  20
HETATM   20  C11 UNL     1     -34.985  57.449 -24.076  1.00  0.00     0.208 C
HETATM   21  O2  UNL     1     -34.359  57.285 -25.143  1.00  0.00    -0.644 OA
HETATM   22  O3  UNL     1     -35.767  56.340 -23.695  1.00  0.00    -0.644 OA
ENDBRANCH  10  20
BRANCH  17  23
HETATM   23  N8  UNL     1     -36.958  59.390 -19.576  1.00  0.00    -0.239 N
ATOM     24  H8  UNL     1     -37.487  60.041 -18.995  1.00  0.00     0.198 HD
BRANCH  23  25
HETATM   25  N9  UNL     1     -37.439  58.116 -19.878  1.00  0.00    -0.242 N
ATOM     26  H9  UNL     1     -37.663  57.840 -20.835  1.00  0.00     0.208 HD
BRANCH  25  27
HETATM   27  N10 UNL     1     -37.599  57.227 -18.791  1.00  0.00    -0.330 N
ATOM     28 2H10 UNL     1     -36.869  57.127 -18.086  1.00  0.00     0.178 HD
ATOM     29 1H10 UNL     1     -38.473  56.702 -18.756  1.00  0.00     0.178 HD
ENDBRANCH  25  27
ENDBRANCH  23  25
ENDBRANCH  17  23
BRANCH  19  30
HETATM   30  C16 UNL     1     -33.953  57.567 -19.851  1.00  0.00     0.184 C
BRANCH  30  31
HETATM   31  O5  UNL     1     -34.568  57.557 -18.624  1.00  0.00    -0.400 OA
ATOM     32  H5  UNL     1     -33.946  57.872 -17.979  1.00  0.00     0.209 HD
ENDBRANCH  30  31
ENDBRANCH  19  30
ENDBRANCH   8   9
ENDBRANCH   5   8
BRANCH   4  33
HETATM   33  C7  UNL     1     -32.246  54.665 -23.282  1.00  0.00     0.282 C
HETATM   34  N5  UNL     1     -32.022  53.822 -22.130  1.00  0.00    -0.056 NA
HETATM   35  O1  UNL     1     -33.215  54.388 -23.947  1.00  0.00    -0.269 OA
ENDBRANCH   4  33
BRANCH   6  36
HETATM   36  C18 UNL     1     -31.183  58.941 -24.588  1.00  0.00     0.228 C
HETATM   37  O6  UNL     1     -31.548  58.423 -25.693  1.00  0.00    -0.273 OA
HETATM   38  N11 UNL     1     -31.502  60.290 -24.318  1.00  0.00    -0.360 N
HETATM   39  C19 UNL     1     -32.214  61.097 -25.277  1.00  0.00     0.152 C
HETATM   40  C20 UNL     1     -31.138  60.907 -23.065  1.00  0.00     0.152 C
ENDBRANCH   6  36
BRANCH   1  41
HETATM   41  C4  UNL     1     -28.113  55.642 -25.551  1.00  0.00     0.135 C
BRANCH  41  42
HETATM   42  S2  UNL     1     -28.719  54.253 -26.537  1.00  0.00    -0.077 SA
BRANCH  42  43
HETATM   43  C3  UNL     1     -29.058  54.687 -28.223  1.00  0.00     0.227 A
HETATM   44  N2  UNL     1     -29.959  55.572 -28.655  1.00  0.00    -0.170 N
HETATM   45  N1  UNL     1     -29.865  55.570 -29.996  1.00  0.00    -0.250 N
HETATM   46  C2  UNL     1     -28.921  54.698 -30.386  1.00  0.00     0.205 A
ATOM     47  H1  UNL     1     -30.427  56.146 -30.624  1.00  0.00     0.192 HD
HETATM   48  O7  UNL     1     -28.451  54.179 -29.289  1.00  0.00    -0.260 OA
BRANCH  44  49
HETATM   49  N3  UNL     1     -30.847  56.368 -27.932  1.00  0.00    -0.321 N
ATOM     50  H32 UNL     1     -30.659  57.101 -27.248  1.00  0.00     0.179 HD
ATOM     51  H31 UNL     1     -31.862  56.307 -28.006  1.00  0.00     0.179 HD
ENDBRANCH  44  49
BRANCH  46  52
HETATM   52  S1  UNL     1     -28.395  54.306 -32.051  1.00  0.00    -0.089 SA
HETATM   53  C1  UNL     1     -26.640  53.847 -32.041  1.00  0.00     0.099 C
ENDBRANCH  46  52
ENDBRANCH  42  43
ENDBRANCH  41  42
ENDBRANCH   1  41
TORSDOF 15
ENDMDL