MODEL 1
REMARK VINA RESULT: -8.652942765      0.000      0.000
REMARK  13 active torsions:
REMARK  status: ('A' for Active; 'I' for Inactive)
REMARK    1  A    between atoms: O1_2  and  S1_3
REMARK    2  A    between atoms: S1_3  and  C2_6
REMARK    3  A    between atoms: C2_6  and  C3_7
REMARK    4  A    between atoms: C3_7  and  C4_13
REMARK    5  A    between atoms: N1_8  and  N2_10
REMARK    6  A    between atoms: C5_15  and  N3_16
REMARK       I    between atoms: N3_16  and  C6_18
REMARK    7  A    between atoms: C6_18  and  C7_20
REMARK    8  A    between atoms: C8_23  and  N5_24
REMARK    9  A    between atoms: C9_28  and  C10_29
REMARK   10  A    between atoms: C10_29  and  O7_30
REMARK   11  A    between atoms: O7_30  and  N6_31
REMARK   12  A    between atoms: C12_35  and  N7_36
REMARK   13  A    between atoms: C14_41  and  C15_42
ROOT
HETATM    1  C4  UNL     1     -33.007  59.295 -24.023  1.00  0.00     0.338 C
HETATM    2  S2  UNL     1     -32.147  60.009 -22.560  1.00  0.00    -0.100 SA
HETATM    3  C5  UNL     1     -30.538  60.085 -23.462  1.00  0.00     0.187 C
HETATM    4  C11 UNL     1     -30.708  58.948 -24.406  1.00  0.00     0.313 A
HETATM    5  C12 UNL     1     -31.240  57.641 -23.975  1.00  0.00     0.375 A
HETATM    6  N11 UNL     1     -32.013  58.598 -24.701  1.00  0.00     0.145 N
ENDROOT
BRANCH   3   7
HETATM    7  N3  UNL     1     -30.575  61.328 -24.192  1.00  0.00    -0.340 N
HETATM    8  C6  UNL     1     -30.408  62.593 -23.587  1.00  0.00     0.270 C
HETATM    9  O6  UNL     1     -30.217  62.612 -22.354  1.00  0.00    -0.266 OA
ATOM     10  H3  UNL     1     -30.731  61.292 -25.200  1.00  0.00     0.164 HD
BRANCH   8  11
HETATM   11  C7  UNL     1     -30.449  63.868 -24.351  1.00  0.00     0.118 A
HETATM   12  N4  UNL     1     -29.503  64.764 -24.257  1.00  0.00    -0.332 N
HETATM   13  C8  UNL     1     -29.606  65.882 -24.974  1.00  0.00     0.143 A
ATOM     14  H4  UNL     1     -28.700  64.611 -23.645  1.00  0.00     0.168 HD
HETATM   15  S3  UNL     1     -31.073  65.675 -25.811  1.00  0.00    -0.054 SA
HETATM   16  C9  UNL     1     -31.496  64.141 -25.193  1.00  0.00     0.044 A
BRANCH  13  17
HETATM   17  N5  UNL     1     -28.760  66.888 -25.005  1.00  0.00    -0.380 N
ATOM     18  H52 UNL     1     -27.904  67.000 -25.548  1.00  0.00     0.158 HD
ATOM     19  H51 UNL     1     -28.817  67.758 -24.475  1.00  0.00     0.158 HD
ENDBRANCH  13  17
BRANCH  16  20
HETATM   20  C10 UNL     1     -32.705  63.288 -25.484  1.00  0.00     0.256 C
BRANCH  20  21
HETATM   21  O7  UNL     1     -32.292  62.397 -26.512  1.00  0.00    -0.216 OA
BRANCH  21  22
HETATM   22  N6  UNL     1     -33.235  62.024 -27.454  1.00  0.00     0.005 N
HETATM   23  O8  UNL     1     -33.078  61.039 -28.203  1.00  0.00    -0.511 OA
HETATM   24  O9  UNL     1     -34.383  62.753 -27.576  1.00  0.00    -0.511 OA
ENDBRANCH  21  22
ENDBRANCH  20  21
ENDBRANCH  16  20
ENDBRANCH   8  11
ENDBRANCH   3   7
BRANCH   1  25
HETATM   25  C3  UNL     1     -34.156  58.515 -23.558  1.00  0.00     0.069 C
HETATM   26  N1  UNL     1     -35.223  58.444 -24.322  1.00  0.00    -0.245 N
ATOM     27  H1  UNL     1     -36.031  57.904 -24.012  1.00  0.00     0.192 HD
BRANCH  25  28
HETATM   28  C2  UNL     1     -34.204  57.790 -22.270  1.00  0.00     0.228 C
BRANCH  28  29
HETATM   29  S1  UNL     1     -34.488  56.072 -22.589  1.00  0.00     0.270 S
HETATM   30  O2  UNL     1     -33.939  55.758 -23.950  1.00  0.00    -0.198 OA
HETATM   31  O3  UNL     1     -33.734  55.296 -21.534  1.00  0.00    -0.198 OA
BRANCH  29  32
HETATM   32  O1  UNL     1     -36.106  55.678 -22.523  1.00  0.00    -0.281 OA
HETATM   33  C1  UNL     1     -36.683  56.372 -21.447  1.00  0.00     0.225 C
ENDBRANCH  29  32
ENDBRANCH  28  29
ENDBRANCH  25  28
BRANCH  26  34
HETATM   34  N2  UNL     1     -35.262  59.102 -25.558  1.00  0.00    -0.039 N
HETATM   35  O4  UNL     1     -34.914  58.569 -26.626  1.00  0.00    -0.516 OA
HETATM   36  O5  UNL     1     -35.707  60.401 -25.604  1.00  0.00    -0.516 OA
ENDBRANCH  26  34
ENDBRANCH   1  25
BRANCH   5  37
HETATM   37  N7  UNL     1     -30.684  56.468 -24.494  1.00  0.00    -0.191 N
HETATM   38  C13 UNL     1     -30.625  55.273 -24.129  1.00  0.00     0.681 A
HETATM   39  N8  UNL     1     -29.956  54.427 -24.974  1.00  0.00    -0.185 N
HETATM   40  N10 UNL     1     -31.125  54.698 -23.027  1.00  0.00    -0.179 N
HETATM   41  C14 UNL     1     -29.804  53.126 -24.730  1.00  0.00     0.128 A
ATOM     42  H8  UNL     1     -29.556  54.811 -25.830  1.00  0.00     0.184 HD
HETATM   43  C16 UNL     1     -30.332  52.577 -23.588  1.00  0.00     0.082 A
HETATM   44  C17 UNL     1     -31.005  53.388 -22.724  1.00  0.00     0.134 A
HETATM   45  N9  UNL     1     -31.546  52.821 -21.548  1.00  0.00    -0.082 NA
ATOM     46  H10 UNL     1     -31.632  55.292 -22.371  1.00  0.00     0.185 HD
ATOM     47  H7  UNL     1     -30.212  56.624 -25.385  1.00  0.00     0.180 HD
BRANCH  41  48
HETATM   48  C15 UNL     1     -29.074  52.259 -25.672  1.00  0.00     0.227 C
HETATM   49  O10 UNL     1     -27.831  52.406 -25.795  1.00  0.00    -0.643 OA
HETATM   50  O11 UNL     1     -29.725  51.298 -26.415  1.00  0.00    -0.643 OA
ENDBRANCH  41  48
ENDBRANCH   5  37
TORSDOF 13
ENDMDL