MODEL 5
REMARK VINA RESULT: -8.174004406      1.912      2.347
REMARK  18 active torsions:
REMARK  status: ('A' for Active; 'I' for Inactive)
REMARK    1  A    between atoms: C2_2  and  O1_3
REMARK    2  A    between atoms: O1_3  and  N1_4
REMARK    3  A    between atoms: N1_4  and  C3_6
REMARK    4  A    between atoms: C3_6  and  C4_7
REMARK    5  A    between atoms: C3_6  and  C21_47
REMARK    6  A    between atoms: C4_7  and  O2_8
REMARK    7  A    between atoms: C4_7  and  N2_10
REMARK    8  A    between atoms: N2_10  and  C5_12
REMARK    9  A    between atoms: C8_17  and  S1_18
REMARK   10  A    between atoms: C10_23  and  C11_24
REMARK   11  A    between atoms: C12_27  and  O7_28
REMARK   12  A    between atoms: O7_28  and  C13_29
REMARK   13  A    between atoms: C13_29  and  C14_30
REMARK   14  A    between atoms: C14_30  and  O8_31
REMARK   15  A    between atoms: C15_34  and  N5_35
REMARK   16  A    between atoms: C16_39  and  O10_40
REMARK   17  A    between atoms: O10_40  and  C17_41
REMARK   18  A    between atoms: C22_50  and  N7_51
ROOT
HETATM    1  C5  UNL     1     -33.201  61.643 -24.098  1.00  0.00     0.139 C
HETATM    2  C6  UNL     1     -33.827  61.766 -22.721  1.00  0.00     0.105 C
HETATM    3  C7  UNL     1     -32.830  61.719 -21.599  1.00  0.00     0.034 C
HETATM    4  N3  UNL     1     -34.786  60.696 -22.506  1.00  0.00    -0.360 N
ATOM      5  H3  UNL     1     -35.659  60.920 -22.028  1.00  0.00     0.162 HD
HETATM    6  C8  UNL     1     -34.587  59.442 -22.899  1.00  0.00     0.203 C
HETATM    7  N4  UNL     1     -33.342  59.269 -23.579  1.00  0.00    -0.299 N
HETATM    8  C10 UNL     1     -32.812  57.928 -23.561  1.00  0.00     0.149 C
HETATM    9  C12 UNL     1     -32.444  57.374 -24.755  1.00  0.00     0.113 C
HETATM   10  C19 UNL     1     -32.556  58.050 -26.022  1.00  0.00     0.086 C
HETATM   11  S2  UNL     1     -32.614  59.845 -26.071  1.00  0.00    -0.110 SA
HETATM   12  C20 UNL     1     -32.637  60.301 -24.323  1.00  0.00     0.183 C
ENDROOT
BRANCH   1  13
HETATM   13  N2  UNL     1     -32.200  62.729 -24.240  1.00  0.00    -0.359 N
ATOM     14  H2  UNL     1     -31.459  62.817 -23.545  1.00  0.00     0.162 HD
BRANCH  13  15
HETATM   15  C4  UNL     1     -32.248  63.628 -25.296  1.00  0.00     0.169 C
BRANCH  15  16
HETATM   16  C3  UNL     1     -31.308  64.598 -25.703  1.00  0.00     0.149 C
BRANCH  16  17
HETATM   17  N1  UNL     1     -30.026  64.224 -25.841  1.00  0.00    -0.259 N
ATOM     18  H1  UNL     1     -29.813  63.519 -26.548  1.00  0.00     0.194 HD
BRANCH  17  19
HETATM   19  O1  UNL     1     -29.008  64.706 -25.123  1.00  0.00    -0.280 OA
BRANCH  19  20
HETATM   20  C2  UNL     1     -28.814  64.294 -23.790  1.00  0.00     0.196 C
HETATM   21  C1  UNL     1     -28.874  65.436 -22.802  1.00  0.00     0.036 C
ENDBRANCH  19  20
ENDBRANCH  17  19
ENDBRANCH  16  17
BRANCH  16  22
HETATM   22  C21 UNL     1     -31.549  66.032 -26.028  1.00  0.00     0.147 A
HETATM   23  N6  UNL     1     -32.765  66.418 -26.364  1.00  0.00    -0.320 N
HETATM   24  C22 UNL     1     -32.998  67.659 -26.709  1.00  0.00     0.160 A
ATOM     25  H6  UNL     1     -33.529  65.743 -26.355  1.00  0.00     0.169 HD
HETATM   26  S3  UNL     1     -31.456  68.353 -26.567  1.00  0.00     0.024 SA
HETATM   27  N8  UNL     1     -30.599  66.950 -26.060  1.00  0.00    -0.307 N
ATOM     28  H8  UNL     1     -29.608  66.851 -25.841  1.00  0.00     0.176 HD
BRANCH  24  29
HETATM   29  N7  UNL     1     -34.145  68.196 -27.067  1.00  0.00    -0.379 N
ATOM     30  H72 UNL     1     -34.879  67.839 -27.677  1.00  0.00     0.158 HD
ATOM     31  H71 UNL     1     -34.525  69.102 -26.792  1.00  0.00     0.158 HD
ENDBRANCH  24  29
ENDBRANCH  16  22
ENDBRANCH  15  16
BRANCH  15  32
HETATM   32  O2  UNL     1     -33.326  63.604 -26.057  1.00  0.00    -0.344 OA
ATOM     33  H2  UNL     1     -34.090  63.260 -25.607  1.00  0.00     0.219 HD
ENDBRANCH  15  32
ENDBRANCH  13  15
ENDBRANCH   1  13
BRANCH   6  34
HETATM   34  S1  UNL     1     -35.700  58.169 -22.664  1.00  0.00     0.203 S
HETATM   35  C9  UNL     1     -36.117  57.327 -24.200  1.00  0.00     0.170 C
HETATM   36  O3  UNL     1     -37.040  58.982 -22.531  1.00  0.00    -0.220 OA
HETATM   37  O4  UNL     1     -35.998  57.402 -21.483  1.00  0.00    -0.220 OA
ENDBRANCH   6  34
BRANCH   8  38
HETATM   38  C11 UNL     1     -32.771  57.252 -22.303  1.00  0.00     0.230 C
HETATM   39  O5  UNL     1     -32.286  57.759 -21.286  1.00  0.00    -0.643 OA
HETATM   40  O6  UNL     1     -33.253  55.992 -22.084  1.00  0.00    -0.643 OA
ENDBRANCH   8  38
BRANCH   9  41
HETATM   41  O7  UNL     1     -31.944  56.084 -24.658  1.00  0.00    -0.306 OA
BRANCH  41  42
HETATM   42  C13 UNL     1     -30.642  55.653 -24.573  1.00  0.00     0.224 C
HETATM   43  O9  UNL     1     -30.063  55.273 -25.819  1.00  0.00    -0.315 OA
HETATM   44  C15 UNL     1     -30.220  53.917 -25.613  1.00  0.00     0.356 C
HETATM   45  C16 UNL     1     -30.385  54.245 -24.131  1.00  0.00     0.253 C
BRANCH  42  46
HETATM   46  C14 UNL     1     -29.611  56.565 -23.911  1.00  0.00     0.236 C
BRANCH  46  47
HETATM   47  O8  UNL     1     -29.658  56.434 -22.524  1.00  0.00    -0.395 OA
ATOM     48  H8  UNL     1     -30.003  55.583 -22.280  1.00  0.00     0.209 HD
ENDBRANCH  46  47
ENDBRANCH  42  46
BRANCH  44  49
HETATM   49  N5  UNL     1     -29.041  53.123 -25.908  1.00  0.00    -0.050 N
ATOM     50  H53 UNL     1     -29.281  52.133 -25.953  1.00  0.00     0.277 HD
ATOM     51  H52 UNL     1     -28.743  53.274 -26.872  1.00  0.00     0.277 HD
ATOM     52  H51 UNL     1     -28.261  53.271 -25.268  1.00  0.00     0.277 HD
ENDBRANCH  44  49
BRANCH  45  53
HETATM   53  O10 UNL     1     -31.384  53.555 -23.458  1.00  0.00    -0.306 OA
BRANCH  53  54
HETATM   54  C17 UNL     1     -31.123  52.830 -22.310  1.00  0.00     0.255 C
HETATM   55  C18 UNL     1     -29.992  51.875 -22.300  1.00  0.00     0.126 C
HETATM   56  O11 UNL     1     -31.823  52.967 -21.278  1.00  0.00    -0.266 OA
ENDBRANCH  53  54
ENDBRANCH  45  53
ENDBRANCH  41  42
ENDBRANCH   9  41
TORSDOF 18
ENDMDL