MODEL 2
REMARK VINA RESULT: -9.521862313      1.496      2.344
REMARK  16 active torsions:
REMARK  status: ('A' for Active; 'I' for Inactive)
REMARK    1  A    between atoms: C2_2  and  N1_3
REMARK    2  A    between atoms: C4_6  and  N2_7
REMARK    3  A    between atoms: N2_7  and  C5_8
REMARK    4  A    between atoms: C7_12  and  C8_13
REMARK    5  A    between atoms: C8_13  and  C9_14
REMARK    6  A    between atoms: C9_14  and  O2_16
REMARK    7  A    between atoms: O2_16  and  C11_17
REMARK    8  A    between atoms: C11_17  and  C12_19
REMARK    9  A    between atoms: N4_24  and  N5_25
REMARK   10  A    between atoms: N5_25  and  C15_26
REMARK   11  A    between atoms: C15_26  and  O6_27
REMARK   12  A    between atoms: C17_33  and  N7_34
REMARK   13  A    between atoms: N7_34  and  N8_36
REMARK   14  A    between atoms: N8_36  and  C18_37
REMARK   15  A    between atoms: C18_37  and  O8_38
REMARK   16  A    between atoms: C18_37  and  C19_40
ROOT
HETATM    1  C5  UNL     1     -31.583  60.954 -24.299  1.00  0.00     0.215 C
HETATM    2  N3  UNL     1     -30.574  59.966 -24.047  1.00  0.00    -0.352 N
ATOM      3  H3  UNL     1     -29.749  60.267 -23.529  1.00  0.00     0.163 HD
HETATM    4  C6  UNL     1     -30.622  58.591 -24.459  1.00  0.00     0.119 A
HETATM    5  C7  UNL     1     -29.541  57.769 -23.850  1.00  0.00     0.108 A
HETATM    6  N6  UNL     1     -30.196  56.698 -23.134  1.00  0.00    -0.372 N
ATOM      7  H6  UNL     1     -29.704  55.990 -22.589  1.00  0.00     0.161 HD
HETATM    8  C17 UNL     1     -31.441  56.745 -23.263  1.00  0.00     0.096 A
HETATM    9  C20 UNL     1     -31.859  57.865 -24.103  1.00  0.00     0.088 A
HETATM   10  C21 UNL     1     -32.888  58.643 -23.317  1.00  0.00     0.098 C
HETATM   11  S1  UNL     1     -33.268  60.226 -24.178  1.00  0.00    -0.078 SA
ENDROOT
BRANCH   5  12
HETATM   12  C8  UNL     1     -28.525  57.133 -24.735  1.00  0.00     0.059 C
BRANCH  12  13
HETATM   13  C9  UNL     1     -28.881  56.009 -25.605  1.00  0.00     0.130 C
HETATM   14  C10 UNL     1     -27.881  54.954 -25.874  1.00  0.00     0.040 C
BRANCH  13  15
HETATM   15  O2  UNL     1     -29.469  56.472 -26.824  1.00  0.00    -0.315 OA
BRANCH  15  16
HETATM   16  C11 UNL     1     -30.271  55.676 -27.606  1.00  0.00     0.280 C
HETATM   17  O3  UNL     1     -31.279  55.129 -27.056  1.00  0.00    -0.264 OA
BRANCH  16  18
HETATM   18  C12 UNL     1     -29.953  55.479 -29.027  1.00  0.00     0.259 C
HETATM   19  C13 UNL     1     -31.135  55.699 -29.877  1.00  0.00     0.241 C
HETATM   20  O4  UNL     1     -32.165  56.351 -29.648  1.00  0.00    -0.286 OA
HETATM   21  C14 UNL     1     -30.863  54.971 -31.116  1.00  0.00     0.313 C
HETATM   22  O5  UNL     1     -31.351  55.121 -32.260  1.00  0.00    -0.262 OA
HETATM   23  N4  UNL     1     -29.879  53.986 -30.789  1.00  0.00    -0.185 N
HETATM   24  C16 UNL     1     -29.557  54.107 -29.388  1.00  0.00     0.264 C
HETATM   25  O7  UNL     1     -29.056  53.177 -28.736  1.00  0.00    -0.270 OA
BRANCH  23  26
HETATM   26  N5  UNL     1     -29.311  53.051 -31.674  1.00  0.00    -0.102 NA
BRANCH  26  27
HETATM   27  C15 UNL     1     -28.052  53.541 -32.207  1.00  0.00     0.299 C
BRANCH  27  28
HETATM   28  O6  UNL     1     -28.318  54.546 -33.109  1.00  0.00    -0.384 OA
ATOM     29  H6  UNL     1     -27.568  55.127 -33.147  1.00  0.00     0.211 HD
ENDBRANCH  27  28
ENDBRANCH  26  27
ENDBRANCH  23  26
ENDBRANCH  16  18
ENDBRANCH  15  16
ENDBRANCH  13  15
ENDBRANCH  12  13
ENDBRANCH   5  12
BRANCH   8  30
HETATM   30  N7  UNL     1     -32.357  55.807 -22.662  1.00  0.00    -0.290 N
ATOM     31  H7  UNL     1     -32.484  55.813 -21.649  1.00  0.00     0.183 HD
BRANCH  30  32
HETATM   32  N8  UNL     1     -33.067  54.900 -23.424  1.00  0.00    -0.096 NA
BRANCH  32  33
HETATM   33  C18 UNL     1     -32.255  53.696 -23.577  1.00  0.00     0.333 C
BRANCH  33  34
HETATM   34  O8  UNL     1     -31.317  53.899 -24.571  1.00  0.00    -0.369 OA
ATOM     35  H8  UNL     1     -31.053  53.060 -24.930  1.00  0.00     0.212 HD
ENDBRANCH  33  34
BRANCH  33  36
HETATM   36  C19 UNL     1     -31.602  53.496 -22.241  1.00  0.00     0.221 C
HETATM   37  O9  UNL     1     -30.350  53.597 -22.203  1.00  0.00    -0.645 OA
HETATM   38  O10 UNL     1     -32.349  53.214 -21.107  1.00  0.00    -0.645 OA
ENDBRANCH  33  36
ENDBRANCH  32  33
ENDBRANCH  30  32
ENDBRANCH   8  30
BRANCH   1  39
HETATM   39  N2  UNL     1     -31.442  62.096 -24.555  1.00  0.00    -0.373 NA
BRANCH  39  40
HETATM   40  C4  UNL     1     -31.236  63.355 -24.886  1.00  0.00     0.200 A
HETATM   41  C3  UNL     1     -30.038  64.079 -24.719  1.00  0.00     0.294 A
HETATM   42  N1  UNL     1     -29.894  65.351 -25.079  1.00  0.00    -0.264 N
HETATM   43  O1  UNL     1     -29.101  63.439 -24.202  1.00  0.00    -0.264 OA
HETATM   44  C25 UNL     1     -30.941  65.988 -25.632  1.00  0.00     0.331 A
HETATM   45  N9  UNL     1     -32.124  65.388 -25.834  1.00  0.00    -0.304 N
HETATM   46  O11 UNL     1     -30.793  67.178 -25.963  1.00  0.00    -0.246 OA
HETATM   47  C22 UNL     1     -32.272  64.108 -25.474  1.00  0.00     0.058 A
HETATM   48  C24 UNL     1     -33.189  66.165 -26.439  1.00  0.00     0.161 C
HETATM   49  C23 UNL     1     -33.579  63.451 -25.698  1.00  0.00     0.072 C
BRANCH  42  50
HETATM   50  C2  UNL     1     -28.632  66.048 -24.882  1.00  0.00     0.133 C
HETATM   51  C1  UNL     1     -28.510  66.658 -23.514  1.00  0.00     0.027 C
ENDBRANCH  42  50
ENDBRANCH  39  40
ENDBRANCH   1  39
TORSDOF 16
ENDMDL