MODEL 5
REMARK VINA RESULT: -9.257671706      4.267     10.801
REMARK  18 active torsions:
REMARK  status: ('A' for Active; 'I' for Inactive)
REMARK    1  A    between atoms: C2_2  and  O2_4
REMARK    2  A    between atoms: O2_4  and  C3_5
REMARK    3  A    between atoms: C5_7  and  O3_8
REMARK    4  A    between atoms: O3_8  and  C6_9
REMARK    5  A    between atoms: C6_9  and  C7_11
REMARK    6  A    between atoms: C7_11  and  O5_12
REMARK    7  A    between atoms: C7_11  and  O6_14
REMARK    8  A    between atoms: C9_19  and  C10_20
REMARK    9  A    between atoms: C10_20  and  O9_21
REMARK   10  A    between atoms: C10_20  and  C11_23
REMARK   11  A    between atoms: C11_23  and  O10_24
REMARK   12  A    between atoms: C11_23  and  C12_26
REMARK   13  A    between atoms: C12_26  and  O11_27
REMARK   14  A    between atoms: C12_26  and  C20_47
REMARK   15  A    between atoms: O11_27  and  S1_28
REMARK   16  A    between atoms: S1_28  and  O14_31
REMARK   17  A    between atoms: O14_31  and  C13_32
REMARK   18  A    between atoms: C17_40  and  S2_41
ROOT
HETATM    1  C11 UNL     1     -31.269  60.706 -22.648  1.00  0.00     0.190 C
ENDROOT
BRANCH   1   2
HETATM    2  C10 UNL     1     -30.466  61.580 -23.570  1.00  0.00     0.182 C
BRANCH   2   3
HETATM    3  C9  UNL     1     -31.189  62.834 -23.975  1.00  0.00     0.193 C
HETATM    4  C3  UNL     1     -30.199  63.824 -24.537  1.00  0.00     0.167 C
HETATM    5  C4  UNL     1     -30.688  64.445 -25.843  1.00  0.00     0.078 C
HETATM    6  C5  UNL     1     -32.099  64.964 -25.526  1.00  0.00     0.234 C
HETATM    7  C8  UNL     1     -32.912  63.715 -25.372  1.00  0.00     0.289 C
HETATM    8  O7  UNL     1     -34.139  63.662 -25.645  1.00  0.00    -0.262 OA
HETATM    9  O8  UNL     1     -32.209  62.616 -24.903  1.00  0.00    -0.309 OA
BRANCH   4  10
HETATM   10  O2  UNL     1     -29.980  64.896 -23.636  1.00  0.00    -0.314 OA
BRANCH  10  11
HETATM   11  C2  UNL     1     -28.747  65.502 -23.439  1.00  0.00     0.255 C
HETATM   12  C1  UNL     1     -28.419  66.850 -23.969  1.00  0.00     0.126 C
HETATM   13  O1  UNL     1     -27.865  64.898 -22.789  1.00  0.00    -0.266 OA
ENDBRANCH  10  11
ENDBRANCH   4  10
BRANCH   6  14
HETATM   14  O3  UNL     1     -32.553  65.762 -26.575  1.00  0.00    -0.302 OA
BRANCH  14  15
HETATM   15  C6  UNL     1     -32.993  67.053 -26.452  1.00  0.00     0.315 C
HETATM   16  O4  UNL     1     -34.225  67.273 -26.329  1.00  0.00    -0.260 OA
BRANCH  15  17
HETATM   17  C7  UNL     1     -32.070  68.232 -26.459  1.00  0.00     0.356 C
BRANCH  17  18
HETATM   18  O5  UNL     1     -32.746  69.387 -26.818  1.00  0.00    -0.363 OA
ATOM     19  H5  UNL     1     -32.498  70.113 -26.259  1.00  0.00     0.213 HD
ENDBRANCH  17  18
BRANCH  17  20
HETATM   20  O6  UNL     1     -30.927  68.002 -27.187  1.00  0.00    -0.363 OA
ATOM     21  H6  UNL     1     -30.833  68.602 -27.917  1.00  0.00     0.213 HD
ENDBRANCH  17  20
ENDBRANCH  15  17
ENDBRANCH  14  15
ENDBRANCH   6  14
ENDBRANCH   2   3
BRANCH   2  22
HETATM   22  O9  UNL     1     -29.286  61.964 -22.936  1.00  0.00    -0.390 OA
ATOM     23  H9  UNL     1     -28.675  61.240 -23.009  1.00  0.00     0.210 HD
ENDBRANCH   2  22
ENDBRANCH   1   2
BRANCH   1  24
HETATM   24  O10 UNL     1     -32.538  61.165 -22.408  1.00  0.00    -0.390 OA
ATOM     25  H10 UNL     1     -32.863  60.965 -21.538  1.00  0.00     0.210 HD
ENDBRANCH   1  24
BRANCH   1  26
HETATM   26  C12 UNL     1     -31.344  59.279 -23.132  1.00  0.00     0.276 C
BRANCH  26  27
HETATM   27  O11 UNL     1     -32.600  58.980 -23.677  1.00  0.00    -0.234 OA
BRANCH  27  28
HETATM   28  S1  UNL     1     -32.467  58.333 -25.218  1.00  0.00     0.409 S
HETATM   29  O12 UNL     1     -31.043  58.491 -25.664  1.00  0.00    -0.168 OA
HETATM   30  O13 UNL     1     -33.313  59.138 -26.184  1.00  0.00    -0.168 OA
BRANCH  28  31
HETATM   31  O14 UNL     1     -32.981  56.736 -25.257  1.00  0.00    -0.192 OA
BRANCH  31  32
HETATM   32  C13 UNL     1     -32.755  55.799 -24.272  1.00  0.00     0.176 A
HETATM   33  N1  UNL     1     -33.357  55.757 -23.062  1.00  0.00    -0.343 N
HETATM   34  C14 UNL     1     -32.909  54.723 -22.351  1.00  0.00     0.128 A
ATOM     35  H1  UNL     1     -34.057  56.424 -22.739  1.00  0.00     0.167 HD
HETATM   36  C15 UNL     1     -31.974  54.047 -23.109  1.00  0.00     0.109 A
HETATM   37  O15 UNL     1     -31.235  52.981 -22.905  1.00  0.00    -0.272 OA
HETATM   38  C19 UNL     1     -31.879  54.718 -24.307  1.00  0.00     0.053 A
HETATM   39  C16 UNL     1     -30.406  52.547 -23.829  1.00  0.00     0.312 A
HETATM   40  O16 UNL     1     -29.718  51.526 -23.596  1.00  0.00    -0.258 OA
HETATM   41  C17 UNL     1     -30.268  53.168 -25.031  1.00  0.00     0.157 A
HETATM   42  C18 UNL     1     -31.011  54.287 -25.307  1.00  0.00     0.051 A
BRANCH  41  43
HETATM   43  S2  UNL     1     -29.145  52.540 -26.222  1.00  0.00     0.143 S
HETATM   44  O17 UNL     1     -27.770  52.403 -25.650  1.00  0.00    -0.591 OA
HETATM   45  O18 UNL     1     -29.072  53.470 -27.401  1.00  0.00    -0.591 OA
HETATM   46  O19 UNL     1     -29.634  51.037 -26.792  1.00  0.00    -0.591 OA
ENDBRANCH  41  43
ENDBRANCH  31  32
ENDBRANCH  28  31
ENDBRANCH  27  28
ENDBRANCH  26  27
BRANCH  26  47
HETATM   47  C20 UNL     1     -31.001  58.311 -22.055  1.00  0.00     0.207 C
HETATM   48  O20 UNL     1     -31.529  58.502 -20.930  1.00  0.00    -0.646 OA
HETATM   49  O21 UNL     1     -30.144  57.275 -22.334  1.00  0.00    -0.646 OA
ENDBRANCH  26  47
ENDBRANCH   1  26
TORSDOF 18
ENDMDL