MODEL 1
REMARK VINA RESULT: -9.702776911      0.000      0.000
REMARK  11 active torsions:
REMARK  status: ('A' for Active; 'I' for Inactive)
REMARK    1  A    between atoms: N3_9  and  C3_10
REMARK    2  A    between atoms: N4_17  and  C7_18
REMARK    3  A    between atoms: C8_19  and  C9_20
REMARK    4  A    between atoms: C9_20  and  N5_21
REMARK       I    between atoms: N5_21  and  C10_23
REMARK    5  A    between atoms: C10_23  and  C11_25
REMARK    6  A    between atoms: C13_27  and  O5_28
REMARK    7  A    between atoms: O5_28  and  S2_29
REMARK    8  A    between atoms: C14_33  and  O9_34
REMARK    9  A    between atoms: O9_34  and  S3_35
REMARK   10  A    between atoms: C15_40  and  O13_41
REMARK   11  A    between atoms: C16_45  and  C17_46
ROOT
HETATM    1  C3  UNL     1     -32.811  56.476 -22.448  1.00  0.00     0.171 C
HETATM    2  C4  UNL     1     -32.780  57.500 -23.488  1.00  0.00     0.172 C
HETATM    3  S1  UNL     1     -31.119  58.101 -23.946  1.00  0.00     0.157 S
HETATM    4  O2  UNL     1     -31.282  58.999 -25.111  1.00  0.00    -0.227 OA
HETATM    5  O3  UNL     1     -30.449  58.720 -22.776  1.00  0.00    -0.227 OA
HETATM    6  C5  UNL     1     -30.142  56.608 -24.473  1.00  0.00     0.238 C
HETATM    7  C6  UNL     1     -30.885  55.561 -23.929  1.00  0.00    -0.076 C
HETATM    8  N4  UNL     1     -31.544  54.508 -23.416  1.00  0.00    -0.200 NA
HETATM    9  C15 UNL     1     -32.768  55.017 -22.734  1.00  0.00     0.234 C
ENDROOT
BRANCH   8  10
HETATM   10  C7  UNL     1     -30.780  53.675 -22.521  1.00  0.00     0.077 C
HETATM   11  C8  UNL     1     -30.562  52.294 -22.896  1.00  0.00     0.030 C
BRANCH  11  12
HETATM   12  C9  UNL     1     -29.727  51.899 -24.037  1.00  0.00     0.092 C
BRANCH  12  13
HETATM   13  N5  UNL     1     -29.824  52.426 -25.329  1.00  0.00    -0.333 N
HETATM   14  C10 UNL     1     -28.945  53.207 -26.084  1.00  0.00     0.262 C
HETATM   15  O4  UNL     1     -27.803  53.560 -25.690  1.00  0.00    -0.267 OA
ATOM     16  H5  UNL     1     -30.696  52.199 -25.807  1.00  0.00     0.168 HD
BRANCH  14  17
HETATM   17  C11 UNL     1     -29.312  53.688 -27.446  1.00  0.00     0.078 A
HETATM   18  C12 UNL     1     -29.358  52.979 -28.610  1.00  0.00     0.066 A
HETATM   19  C13 UNL     1     -29.720  53.632 -29.720  1.00  0.00     0.135 A
HETATM   20  C14 UNL     1     -30.015  54.965 -29.595  1.00  0.00     0.168 A
HETATM   21  S4  UNL     1     -29.776  55.254 -27.930  1.00  0.00    -0.056 SA
BRANCH  19  22
HETATM   22  O5  UNL     1     -29.812  53.022 -31.001  1.00  0.00    -0.211 OA
BRANCH  22  23
HETATM   23  S2  UNL     1     -28.480  53.234 -32.024  1.00  0.00     0.257 S
HETATM   24  O6  UNL     1     -27.256  53.459 -31.182  1.00  0.00    -0.572 OA
HETATM   25  O7  UNL     1     -28.301  51.961 -32.809  1.00  0.00    -0.572 OA
HETATM   26  O8  UNL     1     -28.730  54.531 -33.068  1.00  0.00    -0.572 OA
ENDBRANCH  22  23
ENDBRANCH  19  22
BRANCH  20  27
HETATM   27  O9  UNL     1     -30.419  55.861 -30.610  1.00  0.00    -0.204 OA
BRANCH  27  28
HETATM   28  S3  UNL     1     -31.991  55.691 -31.204  1.00  0.00     0.257 S
HETATM   29  O10 UNL     1     -31.960  55.293 -32.657  1.00  0.00    -0.572 OA
HETATM   30  O11 UNL     1     -32.719  54.598 -30.468  1.00  0.00    -0.572 OA
HETATM   31  O12 UNL     1     -32.805  57.132 -31.033  1.00  0.00    -0.572 OA
ENDBRANCH  27  28
ENDBRANCH  20  27
ENDBRANCH  14  17
ENDBRANCH  12  13
ENDBRANCH  11  12
ENDBRANCH   8  10
BRANCH   9  32
HETATM   32  O13 UNL     1     -33.786  54.776 -23.686  1.00  0.00    -0.378 OA
ATOM     33  H13 UNL     1     -34.179  53.946 -23.445  1.00  0.00     0.211 HD
ENDBRANCH   9  32
BRANCH   1  34
HETATM   34  N3  UNL     1     -34.036  56.606 -21.617  1.00  0.00    -0.232 N
HETATM   35  C2  UNL     1     -34.020  56.995 -20.348  1.00  0.00     0.343 A
HETATM   36  N2  UNL     1     -35.155  57.098 -19.653  1.00  0.00    -0.292 N
HETATM   37  O1  UNL     1     -32.955  57.268 -19.792  1.00  0.00    -0.245 OA
HETATM   38  C1  UNL     1     -36.395  56.814 -20.192  1.00  0.00     0.134 A
ATOM     39  H2  UNL     1     -35.104  57.400 -18.680  1.00  0.00     0.172 HD
HETATM   40  N1  UNL     1     -37.425  56.929 -19.491  1.00  0.00    -0.383 N
HETATM   41  C16 UNL     1     -36.397  56.417 -21.491  1.00  0.00     0.130 A
ATOM     42  H12 UNL     1     -37.423  57.227 -18.516  1.00  0.00     0.157 HD
ATOM     43  H11 UNL     1     -38.340  56.719 -19.890  1.00  0.00     0.157 HD
HETATM   44  N6  UNL     1     -35.220  56.332 -22.144  1.00  0.00    -0.288 N
ATOM     45  H6  UNL     1     -35.243  56.032 -23.119  1.00  0.00     0.187 HD
BRANCH  41  46
HETATM   46  C17 UNL     1     -37.584  56.073 -22.246  1.00  0.00     0.293 C
HETATM   47  O14 UNL     1     -38.688  56.612 -22.053  1.00  0.00    -0.300 OA
ENDBRANCH  41  46
ENDBRANCH   1  34
TORSDOF 11
ENDMDL