MODEL 1
REMARK VINA RESULT: -7.467277397      0.000      0.000
REMARK  6 active torsions:
REMARK  status: ('A' for Active; 'I' for Inactive)
REMARK    1  A    between atoms: O1_2  and  C2_3
REMARK    2  A    between atoms: C2_3  and  C3_5
REMARK    3  A    between atoms: C3_5  and  S1_6
REMARK    4  A    between atoms: S1_6  and  C4_7
REMARK    5  A    between atoms: C4_7  and  N1_9
REMARK    6  A    between atoms: N1_9  and  C5_11
ROOT
HETATM    1  C3  UNL     1     -13.613  17.676  -9.856  1.00  0.00     0.151 C
HETATM    2  C11 UNL     1     -14.794  17.673 -10.766  1.00  0.00     0.047 C
HETATM    3  C12 UNL     1     -14.675  18.137 -12.134  1.00  0.00    -0.007 C
HETATM    4  C13 UNL     1     -14.744  19.658 -12.326  1.00  0.00     0.005 C
HETATM    5  C14 UNL     1     -14.565  19.756 -13.833  1.00  0.00     0.001 C
HETATM    6  C15 UNL     1     -13.717  18.564 -14.222  1.00  0.00     0.006 C
HETATM    7  C16 UNL     1     -13.479  17.803 -12.935  1.00  0.00    -0.001 C
HETATM    8  C17 UNL     1     -12.188  18.294 -12.347  1.00  0.00     0.081 C
HETATM    9  S3  UNL     1     -12.023  17.536 -10.719  1.00  0.00    -0.137 SA
ENDROOT
BRANCH   1  10
HETATM   10  C2  UNL     1     -13.646  18.927  -9.059  1.00  0.00     0.288 C
HETATM   11  O2  UNL     1     -12.839  19.858  -9.423  1.00  0.00    -0.263 OA
BRANCH  10  12
HETATM   12  O1  UNL     1     -14.426  19.219  -7.987  1.00  0.00    -0.325 OA
HETATM   13  C1  UNL     1     -14.448  20.517  -7.430  1.00  0.00     0.213 C
ENDBRANCH  10  12
ENDBRANCH   1  10
BRANCH   1  14
HETATM   14  S1  UNL     1     -13.683  16.290  -8.688  1.00  0.00    -0.069 SA
BRANCH  14  15
HETATM   15  C4  UNL     1     -12.127  16.123  -7.830  1.00  0.00     0.141 C
HETATM   16  S2  UNL     1     -11.468  17.452  -7.159  1.00  0.00    -0.052 SA
BRANCH  15  17
HETATM   17  N1  UNL     1     -11.491  14.855  -7.753  1.00  0.00    -0.342 N
ATOM     18  H1  UNL     1     -11.578  14.378  -6.855  1.00  0.00     0.167 HD
BRANCH  17  19
HETATM   19  C5  UNL     1     -10.764  14.163  -8.728  1.00  0.00     0.036 A
HETATM   20  C6  UNL     1      -9.745  14.683  -9.479  1.00  0.00     0.029 A
HETATM   21  C7  UNL     1      -9.044  13.907 -10.416  1.00  0.00     0.005 A
HETATM   22  C8  UNL     1      -9.349  12.585 -10.626  1.00  0.00     0.042 A
HETATM   23  C9  UNL     1     -10.370  12.047  -9.883  1.00  0.00     0.118 A
HETATM   24  F1  UNL     1     -10.660  10.740 -10.103  1.00  0.00    -0.206 F
HETATM   25  C10 UNL     1     -11.053  12.802  -8.969  1.00  0.00     0.071 A
ENDBRANCH  17  19
ENDBRANCH  15  17
ENDBRANCH  14  15
ENDBRANCH   1  14
TORSDOF 6
ENDMDL