MODEL 1
REMARK VINA RESULT: -6.688594829      0.000      0.000
REMARK  5 active torsions:
REMARK  status: ('A' for Active; 'I' for Inactive)
REMARK    1  A    between atoms: C4_5  and  N1_6
REMARK    2  A    between atoms: N1_6  and  C6_8
REMARK    3  A    between atoms: C14_17  and  C15_18
REMARK    4  A    between atoms: C18_21  and  O1_22
REMARK    5  A    between atoms: C19_24  and  O2_25
ROOT
HETATM    1  C1  UNL     1      -8.252  19.019  -8.538  1.00  0.00     0.037 C
HETATM    2  C2  UNL     1      -9.216  17.906  -8.340  1.00  0.00    -0.015 C
HETATM    3  C3  UNL     1     -10.505  18.084  -8.280  1.00  0.00    -0.006 C
HETATM    4  S1  UNL     1     -11.307  19.687  -8.424  1.00  0.00    -0.075 SA
HETATM    5  C4  UNL     1     -12.832  19.030  -9.116  1.00  0.00     0.090 C
HETATM    6  C12 UNL     1     -12.836  17.751  -8.856  1.00  0.00     0.069 C
HETATM    7  C13 UNL     1     -13.926  16.842  -9.264  1.00  0.00     0.099 C
HETATM    8  N2  UNL     1     -14.791  16.148  -9.589  1.00  0.00    -0.192 NA
HETATM    9  C14 UNL     1     -11.690  17.233  -8.100  1.00  0.00     0.105 C
ENDROOT
BRANCH   5  10
HETATM   10  N1  UNL     1     -13.841  19.790  -9.821  1.00  0.00    -0.374 N
HETATM   11  C5  UNL     1     -14.329  21.012  -9.219  1.00  0.00     0.150 C
BRANCH  10  12
HETATM   12  C6  UNL     1     -14.366  19.381 -11.075  1.00  0.00     0.084 C
HETATM   13  C7  UNL     1     -13.239  19.255 -12.073  1.00  0.00     0.025 C
HETATM   14  C8  UNL     1     -13.701  18.391 -13.232  1.00  0.00     0.002 C
HETATM   15  C9  UNL     1     -15.184  18.655 -13.422  1.00  0.00     0.000 C
HETATM   16  C10 UNL     1     -15.411  20.125 -13.160  1.00  0.00     0.002 C
HETATM   17  C11 UNL     1     -15.368  20.350 -11.662  1.00  0.00     0.025 C
ENDBRANCH  10  12
ENDBRANCH   5  10
BRANCH   9  18
HETATM   18  C15 UNL     1     -11.445  15.805  -8.331  1.00  0.00    -0.041 A
HETATM   19  C16 UNL     1     -12.069  14.846  -7.576  1.00  0.00     0.011 A
HETATM   20  C17 UNL     1     -11.804  13.510  -7.834  1.00  0.00     0.040 A
HETATM   21  C18 UNL     1     -10.914  13.131  -8.845  1.00  0.00     0.099 A
HETATM   22  C19 UNL     1     -10.293  14.101  -9.597  1.00  0.00     0.101 A
HETATM   23  C21 UNL     1     -10.566  15.425  -9.331  1.00  0.00     0.047 A
BRANCH  21  24
HETATM   24  O1  UNL     1     -10.694  11.781  -9.049  1.00  0.00    -0.358 OA
ATOM     25  H1  UNL     1      -9.945  11.523  -9.571  1.00  0.00     0.217 HD
ENDBRANCH  21  24
BRANCH  22  26
HETATM   26  O2  UNL     1      -9.419  13.701 -10.589  1.00  0.00    -0.353 OA
HETATM   27  C20 UNL     1      -8.059  14.039 -10.637  1.00  0.00     0.210 C
ENDBRANCH  22  26
ENDBRANCH   9  18
TORSDOF 5
ENDMDL