MODEL 4
REMARK VINA RESULT: -5.313377679      1.468      1.875
REMARK  3 active torsions:
REMARK  status: ('A' for Active; 'I' for Inactive)
REMARK    1  A    between atoms: C4_6  and  C5_7
REMARK    2  A    between atoms: N3_14  and  C7_15
REMARK    3  A    between atoms: C7_15  and  C8_16
ROOT
HETATM    1  C5  UNL     1     -11.605  18.141  -9.308  1.00  0.00     0.121 A
HETATM    2  N1  UNL     1     -11.433  18.919  -8.225  1.00  0.00    -0.293 N
ATOM      3  H1  UNL     1     -10.921  18.549  -7.424  1.00  0.00     0.187 HD
HETATM    4  N2  UNL     1     -11.911  20.159  -8.170  1.00  0.00    -0.275 N
ATOM      5  H2  UNL     1     -11.750  20.704  -7.323  1.00  0.00     0.189 HD
HETATM    6  C6  UNL     1     -12.595  20.729  -9.174  1.00  0.00     0.194 A
HETATM    7  S1  UNL     1     -13.179  22.254  -9.098  1.00  0.00    -0.039 SA
HETATM    8  N3  UNL     1     -12.783  19.958 -10.287  1.00  0.00    -0.311 N
HETATM    9  C11 UNL     1     -12.306  18.701 -10.359  1.00  0.00     0.136 A
HETATM   10  S2  UNL     1     -12.558  17.750 -11.687  1.00  0.00    -0.058 SA
ENDROOT
BRANCH   1  11
HETATM   11  C4  UNL     1     -11.088  16.780  -9.386  1.00  0.00     0.114 A
HETATM   12  O1  UNL     1     -10.024  16.328  -9.997  1.00  0.00    -0.300 OA
HETATM   13  C3  UNL     1      -9.874  15.035  -9.847  1.00  0.00     0.129 A
HETATM   14  C2  UNL     1     -10.911  14.561  -9.076  1.00  0.00    -0.012 A
HETATM   15 BR1  UNL     1      -8.467  13.933 -10.559  1.00  0.00    -0.022 Br
HETATM   16  C1  UNL     1     -11.129  13.158  -8.664  1.00  0.00     0.052 C
HETATM   17  C12 UNL     1     -11.674  15.672  -8.788  1.00  0.00    -0.016 A
HETATM   18  C13 UNL     1     -12.907  15.713  -7.988  1.00  0.00     0.052 C
ENDBRANCH   1  11
BRANCH   8  19
HETATM   19  C7  UNL     1     -13.529  20.567 -11.345  1.00  0.00     0.136 C
BRANCH  19  20
HETATM   20  C8  UNL     1     -14.974  20.227 -11.396  1.00  0.00    -0.004 C
HETATM   21  C9  UNL     1     -15.930  21.353 -11.128  1.00  0.00     0.011 C
HETATM   22  C10 UNL     1     -15.301  19.707 -12.803  1.00  0.00     0.011 C
ENDBRANCH  19  20
ENDBRANCH   8  19
TORSDOF 3
ENDMDL