MODEL 5
REMARK VINA RESULT: -7.232256791      2.634      3.767
REMARK  3 active torsions:
REMARK  status: ('A' for Active; 'I' for Inactive)
REMARK    1  A    between atoms: C7_8  and  S1_9
REMARK    2  A    between atoms: S1_9  and  C8_10
REMARK    3  A    between atoms: C9_15  and  C10_16
ROOT
HETATM    1  C8  UNL     1     -10.469  18.626 -10.303  1.00  0.00     0.204 A
HETATM    2  N1  UNL     1     -10.259  19.561 -11.262  1.00  0.00    -0.272 N
ATOM      3  H1  UNL     1      -9.513  20.257 -11.267  1.00  0.00     0.189 HD
HETATM    4  N2  UNL     1     -11.197  19.412 -12.197  1.00  0.00    -0.281 N
ATOM      5  H2  UNL     1     -11.298  19.971 -13.045  1.00  0.00     0.189 HD
HETATM    6  C9  UNL     1     -11.988  18.386 -11.817  1.00  0.00     0.145 A
HETATM    7  O1  UNL     1     -11.509  17.953 -10.678  1.00  0.00    -0.272 OA
ENDROOT
BRANCH   1   8
HETATM    8  S1  UNL     1      -9.438  18.465  -8.856  1.00  0.00    -0.073 SA
BRANCH   8   9
HETATM    9  C7  UNL     1     -10.309  17.746  -7.465  1.00  0.00     0.109 C
HETATM   10  C5  UNL     1     -10.725  16.370  -7.827  1.00  0.00    -0.015 A
HETATM   11  C4  UNL     1     -11.989  16.185  -7.289  1.00  0.00     0.035 A
HETATM   12  C6  UNL     1     -10.129  15.341  -8.537  1.00  0.00     0.029 A
HETATM   13  C3  UNL     1     -12.595  14.963  -7.494  1.00  0.00     0.031 A
HETATM   14  N3  UNL     1     -12.388  17.374  -6.612  1.00  0.00    -0.388 N
HETATM   15  C2  UNL     1     -11.988  13.949  -8.203  1.00  0.00     0.021 A
HETATM   16  C1  UNL     1     -10.733  14.126  -8.739  1.00  0.00     0.011 A
HETATM   17 BR1  UNL     1      -9.886  12.734  -9.718  1.00  0.00    -0.051 Br
HETATM   18  C16 UNL     1     -11.576  18.476  -7.087  1.00  0.00     0.140 C
ATOM     19  H3  UNL     1     -13.124  17.439  -5.908  1.00  0.00     0.159 HD
ENDBRANCH   8   9
ENDBRANCH   1   8
BRANCH   6  20
HETATM   20  C10 UNL     1     -13.183  17.826 -12.522  1.00  0.00     0.062 C
HETATM   21  C11 UNL     1     -14.443  18.029 -11.720  1.00  0.00     0.013 C
HETATM   22  C12 UNL     1     -15.477  17.132 -12.410  1.00  0.00     0.001 C
HETATM   23  C13 UNL     1     -15.605  17.415 -13.862  1.00  0.00     0.000 C
HETATM   24  C14 UNL     1     -14.711  18.457 -14.423  1.00  0.00     0.001 C
HETATM   25  C15 UNL     1     -13.370  18.587 -13.792  1.00  0.00     0.013 C
ENDBRANCH   6  20
TORSDOF 3
ENDMDL