MODEL 3
REMARK VINA RESULT: -6.878628392      2.446      4.401
REMARK  3 active torsions:
REMARK  status: ('A' for Active; 'I' for Inactive)
REMARK    1  A    between atoms: C6_6  and  C7_7
REMARK    2  A    between atoms: C12_18  and  C13_19
REMARK    3  A    between atoms: N3_20  and  C14_22
ROOT
HETATM    1  C1  UNL     1      -9.398  21.798  -5.508  1.00  0.00     0.015 C
HETATM    2  C2  UNL     1      -9.924  20.830  -6.597  1.00  0.00    -0.042 C
HETATM    3  C3  UNL     1     -10.329  21.656  -7.754  1.00  0.00     0.009 C
HETATM    4  C4  UNL     1     -11.775  21.606  -8.124  1.00  0.00     0.002 C
HETATM    5  C5  UNL     1     -12.151  20.473  -9.003  1.00  0.00     0.021 C
HETATM    6  C6  UNL     1     -12.468  19.172  -8.387  1.00  0.00     0.064 C
HETATM    7  C9  UNL     1     -12.971  19.180  -7.003  1.00  0.00     0.029 C
HETATM    8  C10 UNL     1     -11.545  18.873  -6.528  1.00  0.00     0.029 C
HETATM    9  C11 UNL     1     -10.973  20.049  -5.918  1.00  0.00     0.017 C
HETATM   10  C12 UNL     1     -11.223  18.471  -7.891  1.00  0.00     0.111 C
HETATM   11  O3  UNL     1     -10.067  18.884  -8.458  1.00  0.00    -0.373 OA
HETATM   12  C20 UNL     1      -9.016  18.692  -7.602  1.00  0.00     0.170 C
HETATM   13  C21 UNL     1      -8.695  19.961  -6.901  1.00  0.00     0.035 C
ENDROOT
BRANCH  10  14
HETATM   14  C13 UNL     1     -11.400  16.986  -8.100  1.00  0.00     0.100 C
HETATM   15  N3  UNL     1     -10.523  16.337  -8.772  1.00  0.00    -0.367 N
ATOM     16  H3  UNL     1      -9.738  16.877  -9.135  1.00  0.00     0.165 HD
BRANCH  15  17
HETATM   17  C14 UNL     1     -10.524  14.968  -9.064  1.00  0.00     0.031 A
HETATM   18  C15 UNL     1      -9.651  14.403  -9.991  1.00  0.00     0.032 A
HETATM   19  C16 UNL     1      -9.621  13.068 -10.298  1.00  0.00     0.044 A
HETATM   20  C17 UNL     1     -10.497  12.215  -9.664  1.00  0.00     0.116 A
HETATM   21  F1  UNL     1     -10.456  10.898  -9.971  1.00  0.00    -0.206 F
HETATM   22  C18 UNL     1     -11.383  12.732  -8.736  1.00  0.00     0.044 A
HETATM   23  C19 UNL     1     -11.397  14.098  -8.439  1.00  0.00     0.032 A
ENDBRANCH  15  17
ENDBRANCH  10  14
BRANCH   6  24
HETATM   24  C7  UNL     1     -13.288  18.350  -9.324  1.00  0.00     0.156 A
HETATM   25  N1  UNL     1     -13.168  18.306 -10.681  1.00  0.00    -0.278 N
HETATM   26  N2  UNL     1     -14.056  17.473 -11.192  1.00  0.00    -0.243 N
ATOM     27  H1  UNL     1     -12.489  18.840 -11.224  1.00  0.00     0.189 HD
HETATM   28  C8  UNL     1     -14.744  16.985 -10.164  1.00  0.00     0.385 A
ATOM     29  H2  UNL     1     -14.189  17.248 -12.178  1.00  0.00     0.192 HD
HETATM   30  O1  UNL     1     -15.682  16.150 -10.289  1.00  0.00    -0.236 OA
HETATM   31  O2  UNL     1     -14.265  17.526  -9.048  1.00  0.00    -0.244 OA
ENDBRANCH   6  24
TORSDOF 3
ENDMDL