MODEL 1
REMARK VINA RESULT: -7.080180698      0.000      0.000
REMARK  3 active torsions:
REMARK  status: ('A' for Active; 'I' for Inactive)
REMARK    1  A    between atoms: C4_5  and  C5_6
REMARK    2  A    between atoms: C5_6  and  C6_7
REMARK    3  A    between atoms: C7_8  and  N1_9
ROOT
HETATM    1  C6  UNL     1     -11.345  17.442  -8.399  1.00  0.00    -0.005 A
HETATM    2  C7  UNL     1     -10.650  16.285  -8.521  1.00  0.00     0.091 A
HETATM    3  S1  UNL     1      -9.012  16.851  -8.717  1.00  0.00    -0.074 SA
HETATM    4  C12 UNL     1      -9.306  18.539  -8.630  1.00  0.00     0.003 A
HETATM    5  C13 UNL     1     -10.622  18.593  -8.459  1.00  0.00     0.022 A
HETATM    6  S2  UNL     1     -10.953  20.373  -8.366  1.00  0.00    -0.128 SA
HETATM    7  C14 UNL     1      -9.385  20.909  -9.169  1.00  0.00     0.085 C
HETATM    8  C15 UNL     1      -8.539  19.783  -8.687  1.00  0.00     0.058 C
ENDROOT
BRANCH   2   9
HETATM    9  N1  UNL     1     -10.992  14.883  -8.470  1.00  0.00    -0.284 N
HETATM   10  C8  UNL     1     -11.916  14.353  -7.663  1.00  0.00     0.192 A
HETATM   11  N2  UNL     1     -11.985  13.054  -7.921  1.00  0.00    -0.335 N
HETATM   12  C9  UNL     1     -11.115  12.725  -8.890  1.00  0.00     0.152 A
ATOM     13  H2  UNL     1     -12.609  12.398  -7.451  1.00  0.00     0.168 HD
HETATM   14  N3  UNL     1     -10.605  11.757  -9.666  1.00  0.00    -0.335 N
HETATM   15  C11 UNL     1     -10.490  13.889  -9.234  1.00  0.00     0.159 A
HETATM   16  C10 UNL     1      -9.685  12.303 -10.473  1.00  0.00     0.183 A
ATOM     17  H3  UNL     1     -10.871  10.772  -9.645  1.00  0.00     0.168 HD
HETATM   18  N4  UNL     1      -9.601  13.613 -10.222  1.00  0.00    -0.335 N
ATOM     19  H4  UNL     1      -8.984  14.281 -10.685  1.00  0.00     0.168 HD
ENDBRANCH   2   9
BRANCH   1  20
HETATM   20  C5  UNL     1     -12.838  17.445  -8.257  1.00  0.00     0.047 C
BRANCH  20  21
HETATM   21  C4  UNL     1     -13.631  17.565  -9.494  1.00  0.00    -0.010 C
HETATM   22  C3  UNL     1     -13.997  18.901  -9.992  1.00  0.00     0.006 C
HETATM   23  C2  UNL     1     -14.562  18.849 -11.388  1.00  0.00     0.020 C
HETATM   24  C1  UNL     1     -14.652  17.457 -11.935  1.00  0.00     0.082 C
HETATM   25 CL1  UNL     1     -15.734  17.552 -13.372  1.00  0.00    -0.125 Cl
HETATM   26  C17 UNL     1     -15.314  16.518 -10.965  1.00  0.00     0.020 C
HETATM   27  C16 UNL     1     -14.828  16.637  -9.552  1.00  0.00     0.006 C
ENDBRANCH  20  21
ENDBRANCH   1  20
TORSDOF 3
ENDMDL