MODEL 2
REMARK VINA RESULT: -5.541356895      1.106      1.326
REMARK  4 active torsions:
REMARK  status: ('A' for Active; 'I' for Inactive)
REMARK    1  A    between atoms: O1_2  and  C2_3
REMARK    2  A    between atoms: C9_10  and  O2_11
REMARK    3  A    between atoms: C11_15  and  O3_16
REMARK    4  A    between atoms: C13_18  and  O4_19
ROOT
HETATM    1  C2  UNL     1     -11.992  19.775 -10.183  1.00  0.00     0.046 C
HETATM    2  C3  UNL     1     -10.877  19.712  -9.524  1.00  0.00     0.038 C
HETATM    3  C4  UNL     1     -10.434  19.455  -8.181  1.00  0.00    -0.059 C
HETATM    4  C5  UNL     1     -10.174  20.673  -7.306  1.00  0.00     0.048 C
HETATM    5  C6  UNL     1     -10.149  18.289  -7.569  1.00  0.00     0.022 C
HETATM    6  C7  UNL     1     -10.187  16.919  -8.011  1.00  0.00     0.010 A
HETATM    7  C8  UNL     1     -11.285  16.076  -8.175  1.00  0.00    -0.003 A
HETATM    8  C9  UNL     1     -11.144  14.749  -8.623  1.00  0.00     0.098 A
HETATM    9  C10 UNL     1      -9.890  14.245  -8.908  1.00  0.00     0.103 A
HETATM   10 CL1  UNL     1      -9.735  12.572  -9.473  1.00  0.00    -0.078 Cl
HETATM   11  C11 UNL     1      -8.796  15.043  -8.752  1.00  0.00     0.127 A
HETATM   12  C13 UNL     1      -8.946  16.323  -8.319  1.00  0.00     0.114 A
HETATM   13  C15 UNL     1     -12.657  16.419  -7.796  1.00  0.00     0.120 C
HETATM   14  C16 UNL     1     -13.680  16.486  -8.809  1.00  0.00     0.131 C
HETATM   15  O5  UNL     1     -14.846  16.241  -8.432  1.00  0.00    -0.298 OA
HETATM   16  C17 UNL     1     -13.582  16.801 -10.248  1.00  0.00     0.078 C
HETATM   17  C18 UNL     1     -14.746  17.705 -10.584  1.00  0.00     0.008 C
HETATM   18  C19 UNL     1     -14.271  19.090 -10.869  1.00  0.00     0.007 C
HETATM   19  C20 UNL     1     -13.402  19.591  -9.739  1.00  0.00     0.064 C
ENDROOT
BRANCH   1  20
HETATM   20  O1  UNL     1     -11.933  20.072 -11.575  1.00  0.00    -0.360 OA
HETATM   21  C1  UNL     1     -10.847  19.836 -12.397  1.00  0.00     0.209 C
ENDBRANCH   1  20
BRANCH  12  22
HETATM   22  O4  UNL     1      -7.738  17.049  -8.183  1.00  0.00    -0.352 OA
HETATM   23  C14 UNL     1      -7.395  17.875  -9.264  1.00  0.00     0.210 C
ENDBRANCH  12  22
BRANCH   8  24
HETATM   24  O2  UNL     1     -12.191  13.884  -8.800  1.00  0.00    -0.358 OA
ATOM     25  H2  UNL     1     -12.613  13.722  -9.635  1.00  0.00     0.217 HD
ENDBRANCH   8  24
BRANCH  11  26
HETATM   26  O3  UNL     1      -7.540  14.503  -9.048  1.00  0.00    -0.351 OA
HETATM   27  C12 UNL     1      -7.109  14.474 -10.394  1.00  0.00     0.210 C
ENDBRANCH  11  26
TORSDOF 4
ENDMDL