MODEL 4
REMARK VINA RESULT: -7.369701417      3.248      8.676
REMARK  3 active torsions:
REMARK  status: ('A' for Active; 'I' for Inactive)
REMARK    1  A    between atoms: C4_5  and  C5_6
REMARK    2  A    between atoms: C12_13  and  O1_14
REMARK    3  A    between atoms: O1_14  and  C13_15
ROOT
HETATM    1  C5  UNL     1     -10.359  16.332  -8.882  1.00  0.00     0.038 C
HETATM    2  C6  UNL     1     -11.066  16.557  -7.579  1.00  0.00     0.011 C
HETATM    3  C7  UNL     1     -12.448  17.086  -7.686  1.00  0.00     0.001 C
HETATM    4  C8  UNL     1     -12.386  18.334  -8.540  1.00  0.00     0.009 C
HETATM    5  C9  UNL     1     -12.035  17.945  -9.935  1.00  0.00    -0.040 C
HETATM    6  C10 UNL     1     -13.196  17.227 -10.622  1.00  0.00     0.012 C
HETATM    7  C11 UNL     1     -14.315  18.181 -10.972  1.00  0.00     0.033 C
HETATM    8  C12 UNL     1     -13.924  19.135 -12.105  1.00  0.00     0.129 C
HETATM    9  C19 UNL     1     -12.386  19.070 -12.149  1.00  0.00     0.033 C
HETATM   10  C20 UNL     1     -11.864  19.238 -10.747  1.00  0.00     0.012 C
HETATM   11  C21 UNL     1     -10.776  17.183 -10.018  1.00  0.00     0.020 C
ENDROOT
BRANCH   1  12
HETATM   12  C4  UNL     1     -10.440  14.887  -9.204  1.00  0.00     0.030 A
HETATM   13  C3  UNL     1     -11.335  14.066  -8.549  1.00  0.00     0.031 A
HETATM   14  C2  UNL     1     -11.441  12.724  -8.819  1.00  0.00     0.065 A
HETATM   15  C1  UNL     1     -10.634  12.172  -9.773  1.00  0.00     0.202 A
HETATM   16  F1  UNL     1     -10.681  10.853 -10.096  1.00  0.00    -0.185 F
HETATM   17  N5  UNL     1      -9.759  12.984 -10.412  1.00  0.00    -0.276 N
HETATM   18  N4  UNL     1      -9.670  14.286 -10.136  1.00  0.00    -0.302 N
ATOM     19  H5  UNL     1      -9.149  12.588 -11.127  1.00  0.00     0.189 HD
ATOM     20  H4  UNL     1      -8.993  14.850 -10.649  1.00  0.00     0.186 HD
ENDBRANCH   1  12
BRANCH   8  21
HETATM   21  O1  UNL     1     -14.234  20.443 -11.833  1.00  0.00    -0.343 OA
BRANCH  21  22
HETATM   22  C13 UNL     1     -15.151  21.057 -11.072  1.00  0.00     0.101 A
HETATM   23  C14 UNL     1     -14.773  21.347  -9.751  1.00  0.00     0.056 A
HETATM   24  C15 UNL     1     -15.611  21.973  -8.863  1.00  0.00     0.092 A
HETATM   25  N1  UNL     1     -16.832  22.326  -9.247  1.00  0.00    -0.350 N
HETATM   26  C16 UNL     1     -17.232  22.066 -10.506  1.00  0.00     0.136 A
ATOM     27  H1  UNL     1     -17.463  22.791  -8.593  1.00  0.00     0.166 HD
HETATM   28  N2  UNL     1     -18.399  22.314 -11.148  1.00  0.00    -0.337 N
HETATM   29  C18 UNL     1     -16.412  21.437 -11.428  1.00  0.00     0.111 A
HETATM   30  C17 UNL     1     -18.288  21.852 -12.406  1.00  0.00     0.182 A
ATOM     31  H2  UNL     1     -19.218  22.770 -10.748  1.00  0.00     0.168 HD
HETATM   32  N3  UNL     1     -17.063  21.313 -12.576  1.00  0.00    -0.347 N
ATOM     33  H3  UNL     1     -16.704  20.888 -13.430  1.00  0.00     0.167 HD
ENDBRANCH  21  22
ENDBRANCH   8  21
TORSDOF 3
ENDMDL