MODEL 2
REMARK VINA RESULT: -7.104855363      1.056      1.234
REMARK  4 active torsions:
REMARK  status: ('A' for Active; 'I' for Inactive)
REMARK    1  A    between atoms: C4_4  and  C5_5
REMARK    2  A    between atoms: C5_5  and  N1_6
REMARK    3  A    between atoms: N1_6  and  C6_8
REMARK    4  A    between atoms: C19_23  and  C20_24
ROOT
HETATM    1  C6  UNL     1     -12.524  18.124  -8.688  1.00  0.00     0.107 C
HETATM    2  C7  UNL     1     -12.388  19.493  -8.056  1.00  0.00     0.072 C
HETATM    3  C8  UNL     1     -13.748  20.059  -8.101  1.00  0.00     0.098 A
HETATM    4  C9  UNL     1     -14.533  20.439  -9.221  1.00  0.00     0.094 A
HETATM    5  C10 UNL     1     -14.059  20.561 -10.667  1.00  0.00     0.023 C
HETATM    6  C11 UNL     1     -14.595  19.495 -11.562  1.00  0.00     0.011 C
HETATM    7  C12 UNL     1     -13.868  18.404 -12.124  1.00  0.00    -0.044 C
HETATM    8  C13 UNL     1     -13.850  18.668 -13.676  1.00  0.00     0.015 C
HETATM    9  C14 UNL     1     -14.890  17.225 -12.126  1.00  0.00     0.010 C
HETATM   10  C15 UNL     1     -15.333  16.844 -10.775  1.00  0.00     0.017 C
HETATM   11  C16 UNL     1     -14.429  16.980  -9.624  1.00  0.00     0.111 C
HETATM   12  N2  UNL     1     -13.711  18.236  -9.497  1.00  0.00    -0.220 NA
HETATM   13  N3  UNL     1     -14.543  19.077  -8.767  1.00  0.00    -0.235 NA
HETATM   14  C17 UNL     1     -12.607  17.781 -11.829  1.00  0.00     0.010 C
HETATM   15  C18 UNL     1     -11.516  18.339 -11.042  1.00  0.00     0.013 C
HETATM   16  C19 UNL     1     -11.359  17.919  -9.605  1.00  0.00     0.058 C
ENDROOT
BRANCH   1  17
HETATM   17  N1  UNL     1     -12.647  17.041  -7.785  1.00  0.00    -0.373 N
ATOM     18  H1  UNL     1     -13.582  16.729  -7.525  1.00  0.00     0.161 HD
BRANCH  17  19
HETATM   19  C5  UNL     1     -11.546  16.381  -7.235  1.00  0.00     0.116 C
BRANCH  19  20
HETATM   20  C4  UNL     1     -11.518  14.962  -7.739  1.00  0.00     0.072 A
HETATM   21  C3  UNL     1     -10.771  14.371  -8.702  1.00  0.00     0.067 A
HETATM   22  C2  UNL     1     -11.167  13.046  -8.737  1.00  0.00     0.074 A
HETATM   23  C1  UNL     1     -10.669  11.973  -9.606  1.00  0.00     0.079 C
HETATM   24  O1  UNL     1     -12.100  12.891  -7.828  1.00  0.00    -0.242 OA
HETATM   25  N4  UNL     1     -12.332  14.016  -7.215  1.00  0.00    -0.260 N
ATOM     26  H4  UNL     1     -13.011  14.160  -6.467  1.00  0.00     0.195 HD
ENDBRANCH  19  20
ENDBRANCH  17  19
ENDBRANCH   1  17
BRANCH  16  27
HETATM   27  C20 UNL     1     -10.089  18.450  -9.029  1.00  0.00     0.056 C
HETATM   28  C21 UNL     1      -8.926  17.895  -8.895  1.00  0.00     0.264 C
HETATM   29  F1  UNL     1      -7.901  18.653  -8.306  1.00  0.00    -0.173 F
HETATM   30  F2  UNL     1      -8.489  16.668  -9.222  1.00  0.00    -0.173 F
ENDBRANCH  16  27
TORSDOF 4
ENDMDL