MODEL 2
REMARK VINA RESULT: -6.954329729      3.167      5.128
REMARK  3 active torsions:
REMARK  status: ('A' for Active; 'I' for Inactive)
REMARK    1  A    between atoms: C4_6  and  N1_7
REMARK    2  A    between atoms: C11_20  and  C12_21
REMARK    3  A    between atoms: C12_21  and  C13_22
ROOT
HETATM    1  N1  UNL     1     -12.012  16.920  -8.776  1.00  0.00    -0.322 N
HETATM    2  C5  UNL     1     -12.101  17.386  -7.386  1.00  0.00     0.099 C
HETATM    3  N2  UNL     1     -12.320  16.595  -6.419  1.00  0.00    -0.388 N
ATOM      4  H21 UNL     1     -12.382  16.919  -5.454  1.00  0.00     0.157 HD
ATOM      5  H22 UNL     1     -12.468  15.586  -6.404  1.00  0.00     0.157 HD
HETATM    6  C6  UNL     1     -11.886  18.853  -7.409  1.00  0.00     0.199 C
HETATM    7  C7  UNL     1     -12.729  19.516  -6.411  1.00  0.00     0.074 C
HETATM    8  N3  UNL     1     -13.387  20.020  -5.631  1.00  0.00    -0.196 NA
HETATM    9  C8  UNL     1     -12.211  19.228  -8.811  1.00  0.00     0.180 C
HETATM   10  C9  UNL     1     -11.131  19.945  -9.428  1.00  0.00     0.088 C
HETATM   11  N4  UNL     1     -10.258  20.507  -9.939  1.00  0.00    -0.195 NA
HETATM   12  C10 UNL     1     -13.398  20.124  -8.720  1.00  0.00     0.088 C
HETATM   13  N5  UNL     1     -14.310  20.839  -8.652  1.00  0.00    -0.195 NA
HETATM   14  C11 UNL     1     -12.596  17.932  -9.578  1.00  0.00     0.131 C
ENDROOT
BRANCH   1  15
HETATM   15  C4  UNL     1     -11.328  15.677  -9.038  1.00  0.00     0.086 A
HETATM   16  S1  UNL     1     -11.889  14.085  -8.865  1.00  0.00    -0.059 SA
HETATM   17  C3  UNL     1     -10.516  13.224  -9.365  1.00  0.00     0.083 A
HETATM   18  C2  UNL     1      -9.632  14.222  -9.662  1.00  0.00    -0.025 A
HETATM   19 CL1  UNL     1     -10.260  11.470  -9.486  1.00  0.00    -0.076 Cl
HETATM   20  C1  UNL     1      -8.244  13.861 -10.160  1.00  0.00     0.051 C
HETATM   21  C18 UNL     1     -10.039  15.485  -9.497  1.00  0.00    -0.020 A
HETATM   22  C19 UNL     1      -9.174  16.703  -9.781  1.00  0.00     0.052 C
ENDBRANCH   1  15
BRANCH  14  23
HETATM   23  C12 UNL     1     -14.019  18.024  -9.877  1.00  0.00     0.033 C
BRANCH  23  24
HETATM   24  C13 UNL     1     -14.540  18.370 -11.232  1.00  0.00    -0.013 C
HETATM   25  C14 UNL     1     -15.257  17.095 -11.805  1.00  0.00     0.005 C
HETATM   26  C15 UNL     1     -15.090  17.194 -13.284  1.00  0.00     0.000 C
HETATM   27  C16 UNL     1     -13.641  17.617 -13.393  1.00  0.00     0.000 C
HETATM   28  C17 UNL     1     -13.505  18.588 -12.282  1.00  0.00     0.005 C
ENDBRANCH  23  24
ENDBRANCH  14  23
TORSDOF 3
ENDMDL