MODEL 3
REMARK VINA RESULT: -8.498397915      1.019      1.180
REMARK  8 active torsions:
REMARK  status: ('A' for Active; 'I' for Inactive)
REMARK    1  A    between atoms: N1_1  and  C1_4
REMARK    2  A    between atoms: N3_8  and  C3_10
REMARK    3  A    between atoms: C3_10  and  C4_11
REMARK    4  A    between atoms: C4_11  and  C5_13
REMARK    5  A    between atoms: C6_18  and  C7_19
REMARK    6  A    between atoms: C7_19  and  N6_20
REMARK    7  A    between atoms: N6_20  and  C8_22
REMARK    8  A    between atoms: C9_25  and  C10_26
ROOT
HETATM    1  C1  UNL     1      11.982  -4.866  -2.771  1.00  0.00     0.159 A
HETATM    2  N2  UNL     1      11.220  -4.299  -3.722  1.00  0.00    -0.171 N
ATOM      3  H2  UNL     1      10.211  -4.426  -3.652  1.00  0.00     0.186 HD
HETATM    4  C2  UNL     1      11.683  -3.579  -4.756  1.00  0.00     0.681 A
HETATM    5  N3  UNL     1      10.821  -3.082  -5.615  1.00  0.00    -0.218 N
ATOM      6  H3  UNL     1      11.163  -2.534  -6.405  1.00  0.00     0.178 HD
HETATM    7  N5  UNL     1      12.957  -3.300  -5.022  1.00  0.00    -0.188 N
ATOM      8  H5  UNL     1      13.126  -2.736  -5.854  1.00  0.00     0.184 HD
HETATM    9  C6  UNL     1      14.031  -3.663  -4.338  1.00  0.00     0.089 A
HETATM   10  S1  UNL     1      13.653  -4.608  -2.955  1.00  0.00    -0.038 SA
ENDROOT
BRANCH   9  11
HETATM   11  C7  UNL     1      15.381  -3.262  -4.781  1.00  0.00     0.203 C
BRANCH  11  12
HETATM   12  N6  UNL     1      16.360  -3.315  -3.745  1.00  0.00    -0.219 N
ATOM     13  H6  UNL     1      16.825  -4.194  -3.515  1.00  0.00     0.178 HD
BRANCH  12  14
HETATM   14  C8  UNL     1      16.645  -2.239  -3.106  1.00  0.00     0.694 A
HETATM   15  N7  UNL     1      16.223  -1.851  -1.877  1.00  0.00    -0.169 N
HETATM   16  C9  UNL     1      16.764  -0.639  -1.575  1.00  0.00     0.201 A
ATOM     17  H7  UNL     1      15.597  -2.385  -1.273  1.00  0.00     0.186 HD
HETATM   18  N9  UNL     1      17.515  -0.291  -2.621  1.00  0.00    -0.267 N
HETATM   19  N10 UNL     1      17.441  -1.241  -3.522  1.00  0.00    -0.131 N
ATOM     20  H9  UNL     1      18.056   0.570  -2.706  1.00  0.00     0.189 HD
ATOM     21  H10 UNL     1      17.924  -1.224  -4.420  1.00  0.00     0.205 HD
BRANCH  16  22
HETATM   22  C10 UNL     1      16.547   0.106  -0.346  1.00  0.00     0.300 C
HETATM   23  N8  UNL     1      16.318  -0.572   0.877  1.00  0.00    -0.054 NA
HETATM   24  O3  UNL     1      16.561   1.363  -0.357  1.00  0.00    -0.268 OA
ENDBRANCH  16  22
ENDBRANCH  12  14
ENDBRANCH  11  12
ENDBRANCH   9  11
BRANCH   1  25
HETATM   25  N1  UNL     1      11.414  -5.533  -1.831  1.00  0.00    -0.379 N
ATOM     26  H12 UNL     1      11.366  -5.269  -0.847  1.00  0.00     0.158 HD
ATOM     27  H11 UNL     1      10.955  -6.416  -2.056  1.00  0.00     0.158 HD
ENDBRANCH   1  25
BRANCH   5  28
HETATM   28  C3  UNL     1       9.401  -3.297  -5.465  1.00  0.00     0.226 C
BRANCH  28  29
HETATM   29  C4  UNL     1       8.814  -3.739  -6.757  1.00  0.00     0.231 C
HETATM   30  O1  UNL     1       8.230  -4.837  -6.861  1.00  0.00    -0.286 OA
BRANCH  29  31
HETATM   31  C5  UNL     1       8.919  -2.884  -7.925  1.00  0.00     0.302 C
HETATM   32  N4  UNL     1       7.935  -2.968  -8.945  1.00  0.00    -0.054 NA
HETATM   33  O2  UNL     1       9.876  -2.071  -8.036  1.00  0.00    -0.268 OA
ENDBRANCH  29  31
ENDBRANCH  28  29
ENDBRANCH   5  28
TORSDOF 8
ENDMDL