MODEL 2
REMARK VINA RESULT: -8.511933915      1.204      1.602
REMARK  9 active torsions:
REMARK  status: ('A' for Active; 'I' for Inactive)
REMARK    1  A    between atoms: C1_2  and  C2_4
REMARK    2  A    between atoms: C2_4  and  O3_5
REMARK    3  A    between atoms: C2_4  and  C3_7
REMARK    4  A    between atoms: C3_7  and  O4_8
REMARK    5  A    between atoms: C7_14  and  O6_15
REMARK    6  A    between atoms: C7_14  and  C8_17
REMARK    7  A    between atoms: C8_17  and  C9_19
REMARK    8  A    between atoms: C9_19  and  C10_20
REMARK    9  A    between atoms: C10_20  and  C11_21
ROOT
HETATM    1  C3  UNL     1      11.593  -3.690  -3.715  1.00  0.00     0.192 C
HETATM    2  C4  UNL     1      10.578  -3.071  -4.674  1.00  0.00     0.168 C
HETATM    3  O5  UNL     1       9.661  -2.346  -4.359  1.00  0.00    -0.294 OA
HETATM    4  C5  UNL     1      10.886  -3.494  -6.053  1.00  0.00     0.085 C
HETATM    5  C6  UNL     1      12.249  -4.109  -5.982  1.00  0.00     0.057 C
HETATM    6  C7  UNL     1      12.780  -3.719  -4.634  1.00  0.00     0.163 C
ENDROOT
BRANCH   6   7
HETATM    7  O6  UNL     1      13.097  -2.306  -4.787  1.00  0.00    -0.378 OA
ATOM      8  H6  UNL     1      13.351  -2.250  -5.701  1.00  0.00     0.211 HD
ENDBRANCH   6   7
BRANCH   6   9
HETATM    9  C8  UNL     1      13.992  -4.339  -4.199  1.00  0.00     0.187 C
HETATM   10  O7  UNL     1      13.988  -5.457  -3.624  1.00  0.00    -0.290 OA
BRANCH   9  11
HETATM   11  C9  UNL     1      15.303  -3.705  -4.392  1.00  0.00     0.056 C
BRANCH  11  12
HETATM   12  C10 UNL     1      16.087  -3.558  -3.348  1.00  0.00     0.040 C
BRANCH  12  13
HETATM   13  C11 UNL     1      16.157  -2.418  -2.480  1.00  0.00     0.116 A
HETATM   14  N1  UNL     1      17.190  -1.532  -2.676  1.00  0.00    -0.292 N
HETATM   15  N2  UNL     1      17.362  -0.456  -1.952  1.00  0.00    -0.251 N
ATOM     16  H1  UNL     1      17.856  -1.723  -3.425  1.00  0.00     0.187 HD
HETATM   17  C12 UNL     1      16.541  -0.132  -0.957  1.00  0.00     0.341 A
ATOM     18  H2  UNL     1      18.152   0.155  -2.158  1.00  0.00     0.191 HD
HETATM   19  O8  UNL     1      16.710   0.905  -0.262  1.00  0.00    -0.245 OA
HETATM   20  N3  UNL     1      15.516  -0.948  -0.709  1.00  0.00    -0.272 N
HETATM   21  C13 UNL     1      15.317  -2.081  -1.456  1.00  0.00     0.277 A
ATOM     22  H3  UNL     1      14.869  -0.727   0.048  1.00  0.00     0.173 HD
HETATM   23  O9  UNL     1      14.345  -2.818  -1.192  1.00  0.00    -0.266 OA
ENDBRANCH  12  13
ENDBRANCH  11  12
ENDBRANCH   9  11
ENDBRANCH   6   9
BRANCH   1  24
HETATM   24  C2  UNL     1      10.999  -4.946  -3.247  1.00  0.00     0.264 C
BRANCH  24  25
HETATM   25  C1  UNL     1       9.493  -4.956  -3.200  1.00  0.00     0.206 C
HETATM   26  O1  UNL     1       8.938  -4.615  -2.140  1.00  0.00    -0.646 OA
HETATM   27  O2  UNL     1       8.711  -5.324  -4.284  1.00  0.00    -0.646 OA
ENDBRANCH  24  25
BRANCH  24  28
HETATM   28  O3  UNL     1      11.578  -5.557  -2.167  1.00  0.00    -0.381 OA
ATOM     29  H3  UNL     1      10.949  -5.981  -1.595  1.00  0.00     0.210 HD
ENDBRANCH  24  28
ENDBRANCH   1  24
BRANCH   1  30
HETATM   30  O4  UNL     1      11.825  -2.783  -2.718  1.00  0.00    -0.376 OA
ATOM     31  H4  UNL     1      11.127  -2.148  -2.608  1.00  0.00     0.211 HD
ENDBRANCH   1  30
TORSDOF 9
ENDMDL