MODEL 5
REMARK VINA RESULT: -6.830767268      1.212      1.416
REMARK  7 active torsions:
REMARK  status: ('A' for Active; 'I' for Inactive)
REMARK    1  A    between atoms: C2_2  and  O1_3
REMARK    2  A    between atoms: O1_3  and  C3_4
REMARK    3  A    between atoms: C3_4  and  C4_6
REMARK    4  A    between atoms: C4_6  and  N1_7
REMARK    5  A    between atoms: C8_15  and  C9_16
REMARK    6  A    between atoms: C10_19  and  C11_20
REMARK    7  A    between atoms: C12_23  and  C13_24
ROOT
HETATM    1  N1  UNL     1      14.426  -2.656  -3.188  1.00  0.00    -0.159 NA
HETATM    2  N2  UNL     1      13.087  -2.881  -2.768  1.00  0.00    -0.049 NA
HETATM    3  N3  UNL     1      12.280  -2.750  -3.934  1.00  0.00    -0.103 NA
HETATM    4  C5  UNL     1      13.226  -2.399  -4.968  1.00  0.00     0.230 C
HETATM    5  N4  UNL     1      12.899  -2.491  -6.287  1.00  0.00    -0.401 N
ATOM      6  H4  UNL     1      12.202  -3.155  -6.625  1.00  0.00     0.154 HD
HETATM    7  C6  UNL     1      13.593  -1.601  -7.175  1.00  0.00     0.120 C
HETATM    8  C7  UNL     1      14.868  -1.110  -6.576  1.00  0.00     0.066 C
HETATM    9  C8  UNL     1      15.806  -2.273  -6.230  1.00  0.00     0.036 C
HETATM   10  C10 UNL     1      15.586  -3.194  -5.326  1.00  0.00     0.070 C
HETATM   11  C12 UNL     1      14.384  -3.282  -4.458  1.00  0.00     0.193 C
ENDROOT
BRANCH   1  12
HETATM   12  C4  UNL     1      15.372  -2.969  -2.232  1.00  0.00     0.164 C
BRANCH  12  13
HETATM   13  C3  UNL     1      15.594  -1.762  -1.351  1.00  0.00     0.294 C
HETATM   14  O2  UNL     1      15.065  -1.729  -0.230  1.00  0.00    -0.259 OA
BRANCH  13  15
HETATM   15  O1  UNL     1      16.366  -0.692  -1.749  1.00  0.00    -0.318 OA
BRANCH  15  16
HETATM   16  C2  UNL     1      17.755  -0.766  -1.989  1.00  0.00     0.174 C
HETATM   17  C1  UNL     1      17.957  -0.764  -3.499  1.00  0.00     0.034 C
ENDBRANCH  15  16
ENDBRANCH  13  15
ENDBRANCH  12  13
ENDBRANCH   1  12
BRANCH  11  18
HETATM   18  C13 UNL     1      13.813  -4.667  -4.410  1.00  0.00     0.207 C
HETATM   19  O7  UNL     1      13.165  -5.123  -5.387  1.00  0.00    -0.646 OA
HETATM   20  O8  UNL     1      13.959  -5.511  -3.319  1.00  0.00    -0.646 OA
ENDBRANCH  11  18
BRANCH  10  21
HETATM   21  C11 UNL     1      16.520  -4.246  -5.069  1.00  0.00     0.208 C
HETATM   22  O5  UNL     1      17.364  -4.323  -4.205  1.00  0.00    -0.644 OA
HETATM   23  O6  UNL     1      16.521  -5.394  -5.906  1.00  0.00    -0.644 OA
ENDBRANCH  10  21
BRANCH   9  24
HETATM   24  C9  UNL     1      16.987  -2.291  -7.031  1.00  0.00     0.206 C
HETATM   25  O3  UNL     1      16.799  -2.776  -8.252  1.00  0.00    -0.644 OA
HETATM   26  O4  UNL     1      18.289  -1.935  -6.869  1.00  0.00    -0.644 OA
ENDBRANCH   9  24
TORSDOF 7
ENDMDL