MODEL 4
REMARK VINA RESULT: -7.071447131      1.812      2.465
REMARK  9 active torsions:
REMARK  status: ('A' for Active; 'I' for Inactive)
REMARK    1  A    between atoms: N2_3  and  C2_5
REMARK    2  A    between atoms: C5_8  and  O1_9
REMARK    3  A    between atoms: O1_9  and  C6_10
REMARK    4  A    between atoms: C7_11  and  O2_12
REMARK    5  A    between atoms: C8_14  and  O3_15
REMARK    6  A    between atoms: C9_17  and  O4_18
REMARK    7  A    between atoms: O4_18  and  S1_19
REMARK    8  A    between atoms: C10_23  and  O8_24
REMARK    9  A    between atoms: C11_26  and  O9_27
ROOT
HETATM    1  N1  UNL     1      15.413  -1.362  -1.100  1.00  0.00    -0.172 NA
HETATM    2  C1  UNL     1      16.463  -1.347  -1.584  1.00  0.00     0.177 C
HETATM    3  N2  UNL     1      17.742  -1.330  -2.201  1.00  0.00    -0.322 N
ATOM      4  H2  UNL     1      18.516  -1.885  -1.837  1.00  0.00     0.172 HD
ENDROOT
BRANCH   3   5
HETATM    5  C2  UNL     1      17.895  -0.501  -3.352  1.00  0.00     0.121 C
HETATM    6  C3  UNL     1      19.303  -0.583  -3.939  1.00  0.00     0.031 C
HETATM    7  C4  UNL     1      18.652  -0.500  -5.312  1.00  0.00     0.036 C
HETATM    8  C5  UNL     1      17.366  -1.011  -4.649  1.00  0.00     0.145 C
BRANCH   8   9
HETATM    9  O1  UNL     1      17.164  -2.358  -4.776  1.00  0.00    -0.373 OA
BRANCH   9  10
HETATM   10  C6  UNL     1      15.855  -2.727  -4.973  1.00  0.00     0.184 C
HETATM   11  C7  UNL     1      15.532  -3.860  -4.037  1.00  0.00     0.181 C
HETATM   12  C8  UNL     1      14.478  -4.793  -4.636  1.00  0.00     0.182 C
HETATM   13  C9  UNL     1      13.422  -4.016  -5.377  1.00  0.00     0.207 C
HETATM   14  C10 UNL     1      14.072  -3.298  -6.528  1.00  0.00     0.182 C
HETATM   15  C11 UNL     1      15.580  -3.208  -6.380  1.00  0.00     0.181 C
BRANCH  11  16
HETATM   16  O2  UNL     1      16.654  -4.667  -3.799  1.00  0.00    -0.390 OA
ATOM     17  H2  UNL     1      16.567  -5.157  -2.990  1.00  0.00     0.210 HD
ENDBRANCH  11  16
BRANCH  12  18
HETATM   18  O3  UNL     1      13.920  -5.480  -3.549  1.00  0.00    -0.390 OA
ATOM     19  H3  UNL     1      13.355  -6.143  -3.928  1.00  0.00     0.210 HD
ENDBRANCH  12  18
BRANCH  13  20
HETATM   20  O4  UNL     1      12.838  -3.118  -4.489  1.00  0.00    -0.246 OA
BRANCH  20  21
HETATM   21  S1  UNL     1      11.222  -3.457  -4.218  1.00  0.00     0.252 S
HETATM   22  O5  UNL     1      10.555  -3.882  -5.496  1.00  0.00    -0.572 OA
HETATM   23  O6  UNL     1      11.025  -4.511  -3.175  1.00  0.00    -0.572 OA
HETATM   24  O7  UNL     1      10.466  -2.031  -3.699  1.00  0.00    -0.572 OA
ENDBRANCH  20  21
ENDBRANCH  13  20
BRANCH  14  25
HETATM   25  O8  UNL     1      13.607  -1.963  -6.533  1.00  0.00    -0.390 OA
ATOM     26  H8  UNL     1      12.959  -1.873  -5.845  1.00  0.00     0.210 HD
ENDBRANCH  14  25
BRANCH  15  27
HETATM   27  O9  UNL     1      16.022  -2.300  -7.341  1.00  0.00    -0.390 OA
ATOM     28  H9  UNL     1      16.968  -2.310  -7.435  1.00  0.00     0.210 HD
ENDBRANCH  15  27
ENDBRANCH   9  10
ENDBRANCH   8   9
ENDBRANCH   3   5
TORSDOF 9
ENDMDL