MODEL 3
REMARK VINA RESULT: -7.722767324      1.674      5.160
REMARK  6 active torsions:
REMARK  status: ('A' for Active; 'I' for Inactive)
REMARK    1  A    between atoms: C2_3  and  C9_25
REMARK    2  A    between atoms: C3_4  and  C4_5
REMARK    3  A    between atoms: C5_6  and  S1_7
REMARK    4  A    between atoms: S1_7  and  N2_10
REMARK       I    between atoms: N2_10  and  C6_12
REMARK    5  A    between atoms: N4_15  and  N5_16
REMARK       I    between atoms: C9_25  and  N7_27
REMARK    6  A    between atoms: N7_27  and  N8_29
ROOT
HETATM    1  N1  UNL     1      14.600  -2.443  -1.482  1.00  0.00    -0.191 NA
HETATM    2  C1  UNL     1      14.059  -3.268  -2.126  1.00  0.00     0.105 C
HETATM    3  C2  UNL     1      13.360  -4.269  -2.900  1.00  0.00     0.114 C
HETATM    4  C3  UNL     1      13.666  -4.530  -4.149  1.00  0.00     0.048 C
ENDROOT
BRANCH   3   5
HETATM    5  C9  UNL     1      12.269  -5.009  -2.214  1.00  0.00     0.280 C
HETATM    6  O6  UNL     1      12.581  -6.000  -1.523  1.00  0.00    -0.265 OA
HETATM    7  N7  UNL     1      10.944  -4.555  -2.381  1.00  0.00    -0.272 N
ATOM      8  H7  UNL     1      10.791  -3.734  -2.968  1.00  0.00     0.189 HD
BRANCH   7   9
HETATM    9  N8  UNL     1       9.835  -5.156  -1.795  1.00  0.00    -0.342 N
ATOM     10  H82 UNL     1       9.606  -4.872  -0.842  1.00  0.00     0.176 HD
ATOM     11  H81 UNL     1       9.251  -5.851  -2.258  1.00  0.00     0.176 HD
ENDBRANCH   7   9
ENDBRANCH   3   5
BRANCH   4  12
HETATM   12  C4  UNL     1      14.678  -3.952  -4.980  1.00  0.00     0.076 A
HETATM   13  C5  UNL     1      14.271  -2.999  -5.928  1.00  0.00     0.191 A
HETATM   14  N4  UNL     1      15.177  -2.445  -6.747  1.00  0.00    -0.198 N
HETATM   15  C7  UNL     1      16.476  -2.807  -6.656  1.00  0.00     0.349 A
HETATM   16  O4  UNL     1      17.318  -2.265  -7.444  1.00  0.00    -0.245 OA
HETATM   17  N6  UNL     1      16.869  -3.716  -5.752  1.00  0.00    -0.273 N
HETATM   18  C8  UNL     1      16.003  -4.318  -4.891  1.00  0.00     0.262 A
ATOM     19  H6  UNL     1      17.856  -3.967  -5.709  1.00  0.00     0.173 HD
HETATM   20  O5  UNL     1      16.415  -5.170  -4.064  1.00  0.00    -0.267 OA
BRANCH  13  21
HETATM   21  S1  UNL     1      12.592  -2.557  -6.023  1.00  0.00     0.285 S
HETATM   22  O1  UNL     1      12.246  -2.088  -7.419  1.00  0.00    -0.199 OA
HETATM   23  O2  UNL     1      12.210  -1.511  -5.009  1.00  0.00    -0.199 OA
BRANCH  21  24
HETATM   24  N2  UNL     1      11.626  -3.934  -5.690  1.00  0.00    -0.233 N
HETATM   25  C6  UNL     1      10.230  -3.890  -5.483  1.00  0.00     0.342 C
HETATM   26  N3  UNL     1       9.494  -5.078  -5.207  1.00  0.00    -0.039 NA
HETATM   27  O3  UNL     1       9.563  -2.821  -5.529  1.00  0.00    -0.250 OA
ATOM     28  H2  UNL     1      12.089  -4.842  -5.638  1.00  0.00     0.183 HD
ENDBRANCH  21  24
ENDBRANCH  13  21
BRANCH  14  29
HETATM   29  N5  UNL     1      14.742  -1.496  -7.673  1.00  0.00    -0.333 N
ATOM     30  H52 UNL     1      14.436  -0.566  -7.386  1.00  0.00     0.177 HD
ATOM     31  H51 UNL     1      14.728  -1.752  -8.660  1.00  0.00     0.177 HD
ENDBRANCH  14  29
ENDBRANCH   4  12
TORSDOF 6
ENDMDL