MODEL 3
REMARK VINA RESULT: -6.409039347      1.863      7.045
REMARK  11 active torsions:
REMARK  status: ('A' for Active; 'I' for Inactive)
REMARK    1  A    between atoms: C2_2  and  C4_4
REMARK    2  A    between atoms: C2_2  and  O2_6
REMARK    3  A    between atoms: O2_6  and  C5_7
REMARK    4  A    between atoms: C7_12  and  O3_13
REMARK    5  A    between atoms: O3_13  and  C8_14
REMARK    6  A    between atoms: C9_15  and  O4_16
REMARK    7  A    between atoms: C10_18  and  O5_19
REMARK    8  A    between atoms: C11_21  and  O6_22
REMARK    9  A    between atoms: C12_24  and  O7_25
REMARK   10  A    between atoms: C13_27  and  O8_28
REMARK   11  A    between atoms: C14_30  and  O9_31
ROOT
HETATM    1  C8  UNL     1      15.292  -3.185  -2.906  1.00  0.00     0.184 C
HETATM    2  C9  UNL     1      15.356  -2.009  -1.978  1.00  0.00     0.181 C
HETATM    3  C10 UNL     1      16.732  -1.503  -1.719  1.00  0.00     0.180 C
HETATM    4  C11 UNL     1      17.594  -1.367  -2.925  1.00  0.00     0.180 C
HETATM    5  C12 UNL     1      17.396  -2.455  -3.945  1.00  0.00     0.180 C
HETATM    6  C13 UNL     1      16.698  -3.607  -3.233  1.00  0.00     0.181 C
ENDROOT
BRANCH   1   7
HETATM    7  O3  UNL     1      14.571  -2.807  -4.029  1.00  0.00    -0.371 OA
BRANCH   7   8
HETATM    8  C7  UNL     1      13.646  -3.728  -4.440  1.00  0.00     0.181 C
HETATM    9  C6  UNL     1      13.991  -4.104  -5.887  1.00  0.00     0.270 C
HETATM   10  N1  UNL     1      12.976  -3.458  -6.694  1.00  0.00    -0.044 N
HETATM   11  C5  UNL     1      11.761  -3.656  -5.896  1.00  0.00     0.353 C
ATOM     12  H12 UNL     1      12.916  -3.792  -7.657  1.00  0.00     0.280 HD
ATOM     13  H11 UNL     1      13.176  -2.488  -6.938  1.00  0.00     0.280 HD
HETATM   14  C14 UNL     1      12.244  -3.222  -4.526  1.00  0.00     0.205 C
BRANCH  11  15
HETATM   15  O2  UNL     1      10.742  -2.827  -6.289  1.00  0.00    -0.339 OA
BRANCH  15  16
HETATM   16  C2  UNL     1       9.481  -3.278  -6.013  1.00  0.00     0.109 C
HETATM   17  C1  UNL     1       8.790  -2.488  -4.921  1.00  0.00     0.053 C
HETATM   18  C3  UNL     1       8.640  -3.122  -7.264  1.00  0.00     0.053 C
BRANCH  16  19
HETATM   19  C4  UNL     1       9.437  -4.711  -5.623  1.00  0.00     0.268 C
HETATM   20  O1  UNL     1       8.779  -5.067  -4.662  1.00  0.00    -0.304 OA
ENDBRANCH  16  19
ENDBRANCH  15  16
ENDBRANCH  11  15
BRANCH  14  21
HETATM   21  O9  UNL     1      12.156  -1.834  -4.463  1.00  0.00    -0.389 OA
ATOM     22  H9  UNL     1      11.576  -1.611  -3.745  1.00  0.00     0.210 HD
ENDBRANCH  14  21
ENDBRANCH   7   8
ENDBRANCH   1   7
BRANCH   2  23
HETATM   23  O4  UNL     1      14.803  -2.375  -0.730  1.00  0.00    -0.390 OA
ATOM     24  H4  UNL     1      14.772  -3.323  -0.671  1.00  0.00     0.210 HD
ENDBRANCH   2  23
BRANCH   6  25
HETATM   25  O8  UNL     1      16.771  -4.781  -3.946  1.00  0.00    -0.390 OA
ATOM     26  H8  UNL     1      16.471  -5.541  -3.463  1.00  0.00     0.210 HD
ENDBRANCH   6  25
BRANCH   3  27
HETATM   27  O5  UNL     1      16.605  -0.216  -1.147  1.00  0.00    -0.390 OA
ATOM     28  H5  UNL     1      16.287   0.366  -1.827  1.00  0.00     0.210 HD
ENDBRANCH   3  27
BRANCH   5  29
HETATM   29  O7  UNL     1      18.597  -2.958  -4.440  1.00  0.00    -0.390 OA
ATOM     30  H7  UNL     1      18.996  -3.596  -3.860  1.00  0.00     0.210 HD
ENDBRANCH   5  29
BRANCH   4  31
HETATM   31  O6  UNL     1      17.515  -0.084  -3.509  1.00  0.00    -0.390 OA
ATOM     32  H6  UNL     1      17.902   0.591  -2.964  1.00  0.00     0.210 HD
ENDBRANCH   4  31
TORSDOF 11
ENDMDL