MODEL 2
REMARK VINA RESULT: -8.165227443      1.184      2.014
REMARK  6 active torsions:
REMARK  status: ('A' for Active; 'I' for Inactive)
REMARK    1  A    between atoms: C2_2  and  O1_3
REMARK    2  A    between atoms: C6_15  and  O3_16
REMARK    3  A    between atoms: O3_16  and  C7_17
REMARK    4  A    between atoms: C9_22  and  C10_23
REMARK    5  A    between atoms: C10_23  and  O4_24
REMARK    6  A    between atoms: O4_24  and  S1_25
ROOT
HETATM    1  C1  UNL     1       9.105  -2.883  -6.862  1.00  0.00     0.081 C
HETATM    2  C2  UNL     1       9.311  -3.857  -5.724  1.00  0.00     0.191 C
HETATM    3  O2  UNL     1      10.603  -4.303  -5.770  1.00  0.00    -0.317 OA
HETATM    4  C3  UNL     1      11.367  -3.596  -4.859  1.00  0.00     0.381 C
HETATM    5  N1  UNL     1      10.554  -2.425  -4.492  1.00  0.00    -0.033 N
ATOM      6  H11 UNL     1      10.634  -1.610  -5.100  1.00  0.00     0.281 HD
ATOM      7  H12 UNL     1      10.843  -1.919  -3.655  1.00  0.00     0.281 HD
HETATM    8  C4  UNL     1       9.251  -3.065  -4.440  1.00  0.00     0.275 C
HETATM    9  C5  UNL     1       9.215  -3.976  -3.243  1.00  0.00     0.274 C
HETATM   10  N2  UNL     1      10.234  -4.996  -3.269  1.00  0.00    -0.042 N
ATOM     11  H21 UNL     1      10.008  -5.746  -3.922  1.00  0.00     0.280 HD
ATOM     12  H22 UNL     1      10.247  -5.546  -2.410  1.00  0.00     0.280 HD
HETATM   13  C6  UNL     1      11.520  -4.396  -3.553  1.00  0.00     0.380 C
ENDROOT
BRANCH  13  14
HETATM   14  O3  UNL     1      12.102  -3.729  -2.561  1.00  0.00    -0.323 OA
BRANCH  14  15
HETATM   15  C7  UNL     1      13.416  -3.714  -2.350  1.00  0.00     0.291 C
HETATM   16  C8  UNL     1      14.274  -4.717  -3.029  1.00  0.00     0.296 C
HETATM   17  N3  UNL     1      15.594  -4.205  -2.600  1.00  0.00    -0.042 N
HETATM   18  C9  UNL     1      15.373  -2.793  -2.930  1.00  0.00     0.348 C
ATOM     19  H32 UNL     1      15.880  -4.414  -1.644  1.00  0.00     0.280 HD
ATOM     20  H31 UNL     1      16.415  -4.650  -3.011  1.00  0.00     0.280 HD
HETATM   21  O8  UNL     1      14.070  -2.510  -2.613  1.00  0.00    -0.325 OA
BRANCH  18  22
HETATM   22  C10 UNL     1      16.392  -1.984  -2.214  1.00  0.00     0.254 C
BRANCH  22  23
HETATM   23  O4  UNL     1      15.729  -1.158  -1.301  1.00  0.00    -0.253 OA
BRANCH  23  24
HETATM   24  S1  UNL     1      16.747  -0.068  -0.572  1.00  0.00     0.251 S
HETATM   25  O5  UNL     1      16.177   1.310  -0.492  1.00  0.00    -0.572 OA
HETATM   26  O6  UNL     1      16.990  -0.537   0.840  1.00  0.00    -0.572 OA
HETATM   27  O7  UNL     1      18.225  -0.015  -1.343  1.00  0.00    -0.572 OA
ENDBRANCH  23  24
ENDBRANCH  22  23
ENDBRANCH  18  22
ENDBRANCH  14  15
ENDBRANCH  13  14
BRANCH   2  28
HETATM   28  O1  UNL     1       8.354  -4.857  -5.702  1.00  0.00    -0.364 OA
ATOM     29  H1  UNL     1       8.467  -5.484  -6.407  1.00  0.00     0.213 HD
ENDBRANCH   2  28
TORSDOF 6
ENDMDL