MODEL 5
REMARK VINA RESULT: -6.574746026      2.590      4.335
REMARK  9 active torsions:
REMARK  status: ('A' for Active; 'I' for Inactive)
REMARK    1  A    between atoms: O1_2  and  C2_3
REMARK    2  A    between atoms: C4_5  and  O2_6
REMARK    3  A    between atoms: C5_8  and  O3_9
REMARK    4  A    between atoms: C6_11  and  O4_12
REMARK    5  A    between atoms: C7_14  and  O5_15
REMARK    6  A    between atoms: O5_15  and  S1_16
REMARK    7  A    between atoms: C8_20  and  N1_21
REMARK    8  A    between atoms: N1_21  and  C10_23
REMARK    9  A    between atoms: C11_27  and  O9_28
ROOT
HETATM    1  C2  UNL     1      15.286  -3.546  -4.247  1.00  0.00     0.118 C
HETATM    2  C3  UNL     1      16.332  -4.436  -3.522  1.00  0.00     0.051 C
HETATM    3  C4  UNL     1      14.306  -4.550  -4.796  1.00  0.00     0.185 C
HETATM    4  C5  UNL     1      13.190  -3.852  -5.471  1.00  0.00     0.181 C
HETATM    5  C6  UNL     1      13.619  -2.820  -6.465  1.00  0.00     0.182 C
HETATM    6  C7  UNL     1      15.087  -2.663  -6.629  1.00  0.00     0.213 C
HETATM    7  C8  UNL     1      15.927  -2.870  -5.434  1.00  0.00     0.294 C
ENDROOT
BRANCH   7   8
HETATM    8  N1  UNL     1      16.844  -1.802  -5.142  1.00  0.00     0.130 N
HETATM    9  C9  UNL     1      17.938  -1.670  -6.094  1.00  0.00     0.313 C
BRANCH   8  10
HETATM   10  C10 UNL     1      17.435  -1.882  -3.822  1.00  0.00     0.478 A
HETATM   11  N2  UNL     1      17.113  -1.034  -2.740  1.00  0.00    -0.009 N
HETATM   12  C11 UNL     1      18.286  -0.669  -3.498  1.00  0.00     0.383 A
ATOM     13  H22 UNL     1      16.266  -0.524  -2.490  1.00  0.00     0.283 HD
ATOM     14  H21 UNL     1      16.959  -1.209  -1.747  1.00  0.00     0.283 HD
BRANCH  12  15
HETATM   15  O9  UNL     1      19.481  -0.833  -2.801  1.00  0.00    -0.367 OA
ATOM     16  H9  UNL     1      20.249  -0.340  -3.064  1.00  0.00     0.212 HD
ENDBRANCH  12  15
ENDBRANCH   8  10
ENDBRANCH   7   8
BRANCH   1  17
HETATM   17  O1  UNL     1      14.724  -2.669  -3.388  1.00  0.00    -0.380 OA
HETATM   18  C1  UNL     1      14.472  -3.011  -2.111  1.00  0.00     0.202 C
ENDBRANCH   1  17
BRANCH   6  19
HETATM   19  O5  UNL     1      15.309  -1.394  -7.159  1.00  0.00    -0.246 OA
BRANCH  19  20
HETATM   20  S1  UNL     1      15.073  -1.275  -8.790  1.00  0.00     0.252 S
HETATM   21  O6  UNL     1      16.198  -0.462  -9.404  1.00  0.00    -0.572 OA
HETATM   22  O7  UNL     1      13.767  -0.606  -9.143  1.00  0.00    -0.572 OA
HETATM   23  O8  UNL     1      15.113  -2.772  -9.548  1.00  0.00    -0.572 OA
ENDBRANCH  19  20
ENDBRANCH   6  19
BRANCH   3  24
HETATM   24  O2  UNL     1      13.852  -5.427  -3.816  1.00  0.00    -0.390 OA
ATOM     25  H2  UNL     1      14.540  -5.672  -3.209  1.00  0.00     0.210 HD
ENDBRANCH   3  24
BRANCH   5  26
HETATM   26  O4  UNL     1      12.918  -1.637  -6.247  1.00  0.00    -0.390 OA
ATOM     27  H4  UNL     1      12.460  -1.385  -7.040  1.00  0.00     0.210 HD
ENDBRANCH   5  26
BRANCH   4  28
HETATM   28  O3  UNL     1      12.326  -4.803  -6.098  1.00  0.00    -0.390 OA
ATOM     29  H3  UNL     1      11.857  -5.301  -5.439  1.00  0.00     0.210 HD
ENDBRANCH   4  28
TORSDOF 9
ENDMDL