MODEL 3
REMARK VINA RESULT: -7.640805122      2.073      6.388
REMARK  9 active torsions:
REMARK  status: ('A' for Active; 'I' for Inactive)
REMARK    1  A    between atoms: N1_2  and  C2_3
REMARK    2  A    between atoms: N1_2  and  C4_7
REMARK    3  A    between atoms: C2_3  and  C3_4
REMARK    4  A    between atoms: C3_4  and  O1_5
REMARK    5  A    between atoms: C6_14  and  S1_15
REMARK    6  A    between atoms: C8_19  and  C9_20
REMARK    7  A    between atoms: C9_20  and  O4_21
REMARK    8  A    between atoms: C9_20  and  N4_23
REMARK    9  A    between atoms: N4_23  and  C10_24
ROOT
HETATM    1  C4  UNL     1      11.427  -3.586  -4.440  1.00  0.00     0.682 A
HETATM    2  N2  UNL     1      12.024  -3.766  -5.622  1.00  0.00    -0.175 N
ATOM      3  H2  UNL     1      11.402  -4.000  -6.396  1.00  0.00     0.186 HD
HETATM    4  C5  UNL     1      13.268  -3.687  -5.922  1.00  0.00     0.139 A
HETATM    5  N3  UNL     1      13.985  -3.843  -6.923  1.00  0.00    -0.384 N
ATOM      6  H31 UNL     1      14.975  -3.780  -7.162  1.00  0.00     0.157 HD
ATOM      7  H32 UNL     1      13.417  -4.088  -7.735  1.00  0.00     0.157 HD
HETATM    8  C6  UNL     1      14.101  -3.327  -4.733  1.00  0.00     0.135 A
HETATM    9  C8  UNL     1      13.566  -3.121  -3.499  1.00  0.00     0.139 A
HETATM   10  N9  UNL     1      12.223  -3.260  -3.386  1.00  0.00    -0.185 N
ATOM     11  H9  UNL     1      11.792  -3.113  -2.473  1.00  0.00     0.184 HD
ENDROOT
BRANCH   9  12
HETATM   12  C9  UNL     1      14.339  -2.850  -2.331  1.00  0.00     0.247 C
BRANCH  12  13
HETATM   13  O4  UNL     1      14.534  -4.204  -1.775  1.00  0.00    -0.334 OA
ATOM     14  H4  UNL     1      13.771  -4.299  -1.218  1.00  0.00     0.220 HD
ENDBRANCH  12  13
BRANCH  12  15
HETATM   15  N4  UNL     1      14.988  -2.196  -1.473  1.00  0.00    -0.342 NA
BRANCH  15  16
HETATM   16  C10 UNL     1      15.615  -1.553  -0.685  1.00  0.00     0.287 C
HETATM   17  N5  UNL     1      16.652  -0.590  -0.932  1.00  0.00    -0.244 N
HETATM   18  N6  UNL     1      17.051   0.010   0.249  1.00  0.00    -0.005 NA
ATOM     19  H5  UNL     1      17.040  -0.379  -1.852  1.00  0.00     0.188 HD
HETATM   20  N7  UNL     1      16.257  -0.468   1.260  1.00  0.00    -0.005 NA
HETATM   21  N8  UNL     1      15.505  -1.539   0.794  1.00  0.00    -0.244 N
ATOM     22  H8  UNL     1      14.973  -2.197   1.365  1.00  0.00     0.188 HD
ENDBRANCH  15  16
ENDBRANCH  12  15
ENDBRANCH   9  12
BRANCH   8  23
HETATM   23  S1  UNL     1      15.763  -3.105  -5.208  1.00  0.00     0.177 S
HETATM   24  C7  UNL     1      16.726  -4.463  -4.416  1.00  0.00     0.167 C
HETATM   25  O2  UNL     1      16.071  -3.241  -6.633  1.00  0.00    -0.223 OA
HETATM   26  O3  UNL     1      16.282  -1.839  -4.606  1.00  0.00    -0.223 OA
ENDBRANCH   8  23
BRANCH   1  27
HETATM   27  N1  UNL     1      10.041  -3.863  -4.293  1.00  0.00    -0.220 N
HETATM   28  C1  UNL     1       9.125  -2.826  -4.761  1.00  0.00     0.168 C
BRANCH  27  29
HETATM   29  C2  UNL     1       9.459  -5.080  -3.786  1.00  0.00     0.166 C
BRANCH  29  30
HETATM   30  C3  UNL     1       9.348  -5.002  -2.262  1.00  0.00     0.184 C
BRANCH  30  31
HETATM   31  O1  UNL     1      10.526  -5.477  -1.731  1.00  0.00    -0.399 OA
ATOM     32  H1  UNL     1      10.428  -6.413  -1.600  1.00  0.00     0.209 HD
ENDBRANCH  30  31
ENDBRANCH  29  30
ENDBRANCH  27  29
ENDBRANCH   1  27
TORSDOF 9
ENDMDL