MODEL 2
REMARK VINA RESULT: -8.256307194      1.488      3.729
REMARK  7 active torsions:
REMARK  status: ('A' for Active; 'I' for Inactive)
REMARK    1  A    between atoms: C1_2  and  C2_3
REMARK       I    between atoms: C2_3  and  N1_5
REMARK    2  A    between atoms: N1_5  and  C3_7
REMARK    3  A    between atoms: C6_16  and  C7_17
REMARK    4  A    between atoms: N4_18  and  N5_20
REMARK       I    between atoms: N5_20  and  C8_22
REMARK    5  A    between atoms: C8_22  and  O6_24
REMARK    6  A    between atoms: O6_24  and  N6_25
REMARK    7  A    between atoms: C10_30  and  O8_31
ROOT
HETATM    1  C3  UNL     1      17.392  -1.408  -3.174  1.00  0.00     0.129 A
HETATM    2  N2  UNL     1      18.451  -0.596  -3.448  1.00  0.00    -0.293 N
ATOM      3  H2  UNL     1      18.801   0.033  -2.726  1.00  0.00     0.172 HD
HETATM    4  C4  UNL     1      19.043  -0.612  -4.665  1.00  0.00     0.328 A
HETATM    5  O3  UNL     1      20.028   0.167  -4.863  1.00  0.00    -0.247 OA
HETATM    6  N3  UNL     1      18.617  -1.417  -5.635  1.00  0.00    -0.275 N
ATOM      7  H3  UNL     1      19.074  -1.418  -6.547  1.00  0.00     0.173 HD
HETATM    8  C5  UNL     1      17.560  -2.240  -5.389  1.00  0.00     0.264 A
HETATM    9  O4  UNL     1      17.130  -3.016  -6.292  1.00  0.00    -0.267 OA
HETATM   10  C6  UNL     1      16.923  -2.261  -4.170  1.00  0.00     0.093 A
ENDROOT
BRANCH  10  11
HETATM   11  C7  UNL     1      15.803  -3.159  -3.972  1.00  0.00     0.128 C
HETATM   12  N4  UNL     1      14.727  -2.979  -4.671  1.00  0.00    -0.306 N
ATOM     13  H4  UNL     1      14.688  -2.214  -5.345  1.00  0.00     0.186 HD
BRANCH  12  14
HETATM   14  N5  UNL     1      13.626  -3.813  -4.518  1.00  0.00    -0.244 N
HETATM   15  C8  UNL     1      12.721  -3.691  -3.429  1.00  0.00     0.398 C
HETATM   16  O5  UNL     1      12.930  -2.794  -2.576  1.00  0.00    -0.235 OA
ATOM     17  H5  UNL     1      13.461  -4.539  -5.214  1.00  0.00     0.192 HD
BRANCH  15  18
HETATM   18  O6  UNL     1      11.629  -4.513  -3.271  1.00  0.00    -0.182 OA
BRANCH  18  19
HETATM   19  N6  UNL     1      10.337  -4.142  -3.558  1.00  0.00    -0.052 NA
HETATM   20  N7  UNL     1       9.587  -5.155  -4.116  1.00  0.00    -0.259 N
HETATM   21  C9  UNL     1       8.511  -4.791  -3.261  1.00  0.00     0.281 C
ATOM     22  H7  UNL     1       9.740  -5.862  -4.834  1.00  0.00     0.186 HD
HETATM   23  O7  UNL     1       7.260  -4.851  -3.259  1.00  0.00    -0.268 OA
HETATM   24  C10 UNL     1       9.532  -4.290  -2.336  1.00  0.00     0.336 C
BRANCH  24  25
HETATM   25  O8  UNL     1      10.029  -5.339  -1.532  1.00  0.00    -0.369 OA
ATOM     26  H8  UNL     1      10.927  -5.170  -1.275  1.00  0.00     0.212 HD
ENDBRANCH  24  25
ENDBRANCH  18  19
ENDBRANCH  15  18
ENDBRANCH  12  14
ENDBRANCH  10  11
BRANCH   1  27
HETATM   27  N1  UNL     1      16.748  -1.420  -1.920  1.00  0.00    -0.306 N
HETATM   28  C2  UNL     1      16.704  -0.385  -0.976  1.00  0.00     0.284 C
HETATM   29  O2  UNL     1      17.224   0.748  -1.054  1.00  0.00    -0.265 OA
ATOM     30  H1  UNL     1      16.258  -2.280  -1.672  1.00  0.00     0.170 HD
BRANCH  28  31
HETATM   31  C1  UNL     1      15.961  -0.619   0.290  1.00  0.00     0.332 C
HETATM   32  O1  UNL     1      15.215  -1.617   0.408  1.00  0.00    -0.296 OA
ENDBRANCH  28  31
ENDBRANCH   1  27
TORSDOF 7
ENDMDL