MODEL 4
REMARK VINA RESULT: -7.532909813      1.658      1.782
REMARK  7 active torsions:
REMARK  status: ('A' for Active; 'I' for Inactive)
REMARK    1  A    between atoms: N1_2  and  C2_3
REMARK    2  A    between atoms: N1_2  and  C4_7
REMARK    3  A    between atoms: C2_3  and  C3_4
REMARK    4  A    between atoms: C6_15  and  S1_16
REMARK    5  A    between atoms: S1_16  and  N6_19
REMARK       I    between atoms: N6_19  and  C7_21
REMARK       I    between atoms: C7_21  and  N7_23
REMARK    6  A    between atoms: N7_23  and  N8_25
REMARK    7  A    between atoms: C9_30  and  N9_31
ROOT
HETATM    1  C4  UNL     1      12.192  -2.885  -4.343  1.00  0.00     0.157 A
HETATM    2  N3  UNL     1      12.970  -2.317  -5.313  1.00  0.00    -0.322 N
ATOM      3  H3  UNL     1      12.521  -1.981  -6.165  1.00  0.00     0.169 HD
HETATM    4  C5  UNL     1      14.303  -2.181  -5.189  1.00  0.00     0.159 A
HETATM    5  N4  UNL     1      15.289  -1.683  -5.952  1.00  0.00    -0.282 N
ATOM      6  H4  UNL     1      15.141  -1.273  -6.874  1.00  0.00     0.188 HD
HETATM    7  N5  UNL     1      16.455  -1.781  -5.385  1.00  0.00    -0.285 N
ATOM      8  H5  UNL     1      17.344  -1.470  -5.778  1.00  0.00     0.188 HD
HETATM    9  C6  UNL     1      16.279  -2.373  -4.174  1.00  0.00     0.202 A
HETATM   10  C8  UNL     1      14.927  -2.634  -4.035  1.00  0.00     0.164 A
HETATM   11  O5  UNL     1      14.172  -3.174  -3.118  1.00  0.00    -0.284 OA
HETATM   12  C9  UNL     1      12.875  -3.310  -3.230  1.00  0.00     0.186 A
ENDROOT
BRANCH   9  13
HETATM   13  S1  UNL     1      17.481  -2.740  -2.976  1.00  0.00     0.286 S
HETATM   14  O2  UNL     1      16.973  -3.784  -1.995  1.00  0.00    -0.198 OA
HETATM   15  O3  UNL     1      18.716  -3.232  -3.630  1.00  0.00    -0.198 OA
BRANCH  13  16
HETATM   16  N6  UNL     1      17.838  -1.306  -2.054  1.00  0.00    -0.229 N
HETATM   17  C7  UNL     1      16.974  -0.977  -0.991  1.00  0.00     0.348 C
HETATM   18  O4  UNL     1      15.986  -1.681  -0.710  1.00  0.00    -0.245 OA
HETATM   19  N7  UNL     1      17.232   0.179  -0.221  1.00  0.00    -0.258 N
ATOM     20  H7  UNL     1      18.040   0.760  -0.444  1.00  0.00     0.191 HD
ATOM     21  H6  UNL     1      18.646  -0.725  -2.276  1.00  0.00     0.183 HD
BRANCH  19  22
HETATM   22  N8  UNL     1      16.388   0.543   0.857  1.00  0.00    -0.341 N
ATOM     23  H82 UNL     1      16.327   1.528   1.115  1.00  0.00     0.177 HD
ATOM     24  H81 UNL     1      15.849  -0.158   1.365  1.00  0.00     0.177 HD
ENDBRANCH  19  22
ENDBRANCH  13  16
ENDBRANCH   9  13
BRANCH  12  25
HETATM   25  N9  UNL     1      12.258  -3.868  -2.224  1.00  0.00    -0.377 N
ATOM     26  H92 UNL     1      12.075  -3.274  -1.415  1.00  0.00     0.158 HD
ATOM     27  H91 UNL     1      11.973  -4.847  -2.253  1.00  0.00     0.158 HD
ENDBRANCH  12  25
BRANCH   1  28
HETATM   28  N1  UNL     1      10.794  -3.039  -4.518  1.00  0.00    -0.360 N
HETATM   29  C1  UNL     1      10.306  -3.815  -5.651  1.00  0.00     0.152 C
BRANCH  28  30
HETATM   30  C2  UNL     1       9.857  -2.438  -3.576  1.00  0.00     0.223 C
BRANCH  30  31
HETATM   31  C3  UNL     1       8.986  -3.457  -2.991  1.00  0.00     0.248 C
HETATM   32  N2  UNL     1       7.577  -3.594  -3.231  1.00  0.00    -0.061 NA
HETATM   33  O1  UNL     1       9.474  -4.290  -2.216  1.00  0.00    -0.275 OA
ENDBRANCH  30  31
ENDBRANCH  28  30
ENDBRANCH   1  28
TORSDOF 7
ENDMDL