MODEL 3
REMARK VINA RESULT: -6.292567024      1.325      1.431
REMARK  12 active torsions:
REMARK  status: ('A' for Active; 'I' for Inactive)
REMARK    1  A    between atoms: O1_2  and  C2_3
REMARK    2  A    between atoms: C2_3  and  C3_5
REMARK    3  A    between atoms: C3_5  and  N1_6
REMARK    4  A    between atoms: C3_5  and  C4_10
REMARK    5  A    between atoms: N2_12  and  N3_14
REMARK    6  A    between atoms: N3_14  and  C6_16
REMARK    7  A    between atoms: C7_19  and  N5_20
REMARK    8  A    between atoms: N5_20  and  N6_22
REMARK    9  A    between atoms: C8_27  and  N8_28
REMARK   10  A    between atoms: C11_31  and  C12_32
REMARK   11  A    between atoms: C12_32  and  N9_33
REMARK   12  A    between atoms: C12_32  and  O3_37
ROOT
HETATM    1  C6  UNL     1      16.311  -2.538  -1.990  1.00  0.00     0.150 A
HETATM    2  N4  UNL     1      15.972  -2.033  -0.780  1.00  0.00    -0.173 N
ATOM      3  H4  UNL     1      15.227  -2.494  -0.257  1.00  0.00     0.186 HD
HETATM    4  C7  UNL     1      16.557  -0.968  -0.234  1.00  0.00     0.699 A
HETATM    5  N7  UNL     1      17.536  -0.365  -0.927  1.00  0.00    -0.175 N
ATOM      6  H7  UNL     1      18.000   0.453  -0.531  1.00  0.00     0.186 HD
HETATM    7  C8  UNL     1      17.922  -0.825  -2.149  1.00  0.00     0.133 A
HETATM    8  C11 UNL     1      17.307  -1.935  -2.705  1.00  0.00     0.087 A
ENDROOT
BRANCH   1   9
HETATM    9  N3  UNL     1      15.730  -3.574  -2.500  1.00  0.00    -0.284 N
ATOM     10  H3  UNL     1      16.130  -4.068  -3.298  1.00  0.00     0.188 HD
BRANCH   9  11
HETATM   11  N2  UNL     1      14.534  -3.989  -1.915  1.00  0.00    -0.305 N
HETATM   12  C4  UNL     1      13.422  -3.695  -2.480  1.00  0.00     0.040 C
HETATM   13  C5  UNL     1      12.164  -4.148  -1.842  1.00  0.00     0.067 C
ATOM     14  H2  UNL     1      14.545  -4.521  -1.045  1.00  0.00     0.186 HD
BRANCH  12  15
HETATM   15  C3  UNL     1      13.429  -2.921  -3.744  1.00  0.00     0.328 C
BRANCH  15  16
HETATM   16  C2  UNL     1      12.185  -2.132  -3.859  1.00  0.00     0.295 C
HETATM   17  O2  UNL     1      11.966  -1.209  -3.034  1.00  0.00    -0.262 OA
BRANCH  16  18
HETATM   18  O1  UNL     1      11.256  -2.384  -4.850  1.00  0.00    -0.325 OA
HETATM   19  C1  UNL     1       9.885  -2.395  -4.500  1.00  0.00     0.213 C
ENDBRANCH  16  18
ENDBRANCH  15  16
BRANCH  15  20
HETATM   20  N1  UNL     1      13.588  -3.794  -4.892  1.00  0.00    -0.061 N
ATOM     21  H13 UNL     1      13.794  -4.753  -4.613  1.00  0.00     0.275 HD
ATOM     22  H12 UNL     1      12.701  -3.960  -5.367  1.00  0.00     0.275 HD
ATOM     23  H11 UNL     1      14.295  -3.425  -5.528  1.00  0.00     0.275 HD
ENDBRANCH  15  20
ENDBRANCH  12  15
ENDBRANCH   9  11
ENDBRANCH   1   9
BRANCH   8  24
HETATM   24  C12 UNL     1      17.697  -2.475  -4.042  1.00  0.00     0.358 C
BRANCH  24  25
HETATM   25  N9  UNL     1      18.034  -3.895  -3.903  1.00  0.00    -0.049 N
ATOM     26  H93 UNL     1      18.936  -4.038  -3.448  1.00  0.00     0.277 HD
ATOM     27  H92 UNL     1      17.451  -4.368  -3.213  1.00  0.00     0.277 HD
ATOM     28  H91 UNL     1      17.988  -4.339  -4.820  1.00  0.00     0.277 HD
ENDBRANCH  24  25
BRANCH  24  29
HETATM   29  O3  UNL     1      16.601  -2.417  -4.906  1.00  0.00    -0.366 OA
ATOM     30  H3  UNL     1      16.906  -2.432  -5.806  1.00  0.00     0.212 HD
ENDBRANCH  24  29
ENDBRANCH   8  24
BRANCH   4  31
HETATM   31  N5  UNL     1      16.157  -0.567   0.927  1.00  0.00    -0.138 N
ATOM     32  H5  UNL     1      15.508  -1.169   1.434  1.00  0.00     0.205 HD
BRANCH  31  33
HETATM   33  N6  UNL     1      16.538   0.607   1.531  1.00  0.00    -0.331 N
ATOM     34  H62 UNL     1      17.511   0.886   1.406  1.00  0.00     0.177 HD
ATOM     35  H61 UNL     1      15.926   1.207   2.085  1.00  0.00     0.177 HD
ENDBRANCH  31  33
ENDBRANCH   4  31
BRANCH   7  36
HETATM   36  N8  UNL     1      18.953  -0.182  -2.864  1.00  0.00    -0.375 N
HETATM   37  C9  UNL     1      18.701   0.425  -4.141  1.00  0.00     0.150 C
HETATM   38  C10 UNL     1      20.281  -0.127  -2.312  1.00  0.00     0.150 C
ENDBRANCH   7  36
TORSDOF 12
ENDMDL