MODEL 2
REMARK VINA RESULT: -7.813919092      1.087      3.083
REMARK  9 active torsions:
REMARK  status: ('A' for Active; 'I' for Inactive)
REMARK    1  A    between atoms: C2_2  and  O1_3
REMARK    2  A    between atoms: O1_3  and  C3_4
REMARK    3  A    between atoms: C3_4  and  N1_5
REMARK    4  A    between atoms: C5_9  and  C6_10
REMARK    5  A    between atoms: C7_13  and  N4_14
REMARK    6  A    between atoms: C8_19  and  N6_20
REMARK    7  A    between atoms: C9_22  and  O2_23
REMARK    8  A    between atoms: N7_25  and  O3_26
REMARK    9  A    between atoms: N9_33  and  N10_34
ROOT
HETATM    1  N1  UNL     1      18.552   0.002  -2.091  1.00  0.00    -0.226 N
HETATM    2  C4  UNL     1      17.535  -0.851  -2.251  1.00  0.00     0.161 A
HETATM    3  N2  UNL     1      16.357  -1.330  -1.773  1.00  0.00    -0.322 N
ATOM      4  H2  UNL     1      15.903  -0.999  -0.922  1.00  0.00     0.169 HD
HETATM    5  C5  UNL     1      15.876  -2.280  -2.557  1.00  0.00     0.156 A
HETATM    6  N8  UNL     1      16.757  -2.422  -3.560  1.00  0.00    -0.332 N
ATOM      7  H8  UNL     1      16.663  -3.084  -4.331  1.00  0.00     0.168 HD
HETATM    8  C10 UNL     1      17.793  -1.555  -3.400  1.00  0.00     0.152 A
HETATM    9  C11 UNL     1      18.982  -1.084  -3.897  1.00  0.00     0.312 A
HETATM   10  O4  UNL     1      19.525  -1.506  -4.948  1.00  0.00    -0.262 OA
HETATM   11  N9  UNL     1      19.447  -0.124  -3.084  1.00  0.00    -0.156 N
ENDROOT
BRANCH   5  12
HETATM   12  C6  UNL     1      14.649  -3.070  -2.438  1.00  0.00     0.210 A
HETATM   13  N3  UNL     1      14.643  -4.293  -1.888  1.00  0.00    -0.170 N
HETATM   14  C7  UNL     1      13.530  -5.038  -1.766  1.00  0.00     0.692 A
ATOM     15  H3  UNL     1      15.524  -4.676  -1.546  1.00  0.00     0.186 HD
HETATM   16  N5  UNL     1      12.394  -4.506  -2.225  1.00  0.00    -0.020 N
HETATM   17  C8  UNL     1      12.345  -3.286  -2.785  1.00  0.00     0.726 A
ATOM     18  H5  UNL     1      11.532  -5.046  -2.148  1.00  0.00     0.203 HD
HETATM   19  N7  UNL     1      13.483  -2.580  -2.883  1.00  0.00    -0.030 N
BRANCH  14  20
HETATM   20  N4  UNL     1      13.543  -6.211  -1.235  1.00  0.00    -0.234 N
ATOM     21  H42 UNL     1      14.175  -6.935  -1.579  1.00  0.00     0.174 HD
ATOM     22  H41 UNL     1      12.932  -6.464  -0.459  1.00  0.00     0.174 HD
ENDBRANCH  14  20
BRANCH  17  23
HETATM   23  N6  UNL     1      11.154  -2.693  -3.282  1.00  0.00    -0.179 N
HETATM   24  C9  UNL     1      10.252  -3.362  -3.899  1.00  0.00     0.240 C
ATOM     25  H6  UNL     1      11.010  -1.694  -3.141  1.00  0.00     0.185 HD
BRANCH  24  26
HETATM   26  O2  UNL     1      10.331  -4.714  -4.151  1.00  0.00    -0.356 OA
ATOM     27  H2  UNL     1      10.505  -5.086  -5.008  1.00  0.00     0.218 HD
ENDBRANCH  24  26
ENDBRANCH  17  23
BRANCH  19  28
HETATM   28  O3  UNL     1      13.486  -1.324  -3.449  1.00  0.00    -0.268 OA
ATOM     29  H3  UNL     1      12.648  -0.912  -3.622  1.00  0.00     0.246 HD
ENDBRANCH  19  28
ENDBRANCH   5  12
BRANCH   1  30
HETATM   30  C3  UNL     1      18.687   0.940  -1.004  1.00  0.00     0.320 C
BRANCH  30  31
HETATM   31  O1  UNL     1      17.446   1.188  -0.384  1.00  0.00    -0.371 OA
BRANCH  31  32
HETATM   32  C2  UNL     1      17.615   0.922   0.968  1.00  0.00     0.165 C
HETATM   33  C1  UNL     1      16.763  -0.234   1.434  1.00  0.00     0.033 C
ENDBRANCH  31  32
ENDBRANCH  30  31
ENDBRANCH   1  30
BRANCH  11  34
HETATM   34  N10 UNL     1      20.627   0.613  -3.229  1.00  0.00    -0.321 N
ATOM     35 2H10 UNL     1      20.958   1.374  -2.636  1.00  0.00     0.179 HD
ATOM     36 1H10 UNL     1      21.328   0.487  -3.958  1.00  0.00     0.179 HD
ENDBRANCH  11  34
TORSDOF 9
ENDMDL