MODEL 3
REMARK VINA RESULT: -6.938976656      2.621      5.859
REMARK  10 active torsions:
REMARK  status: ('A' for Active; 'I' for Inactive)
REMARK    1  A    between atoms: C4_7  and  O4_8
REMARK    2  A    between atoms: C5_11  and  C6_12
REMARK    3  A    between atoms: C6_12  and  O6_13
REMARK    4  A    between atoms: C6_12  and  C7_15
REMARK    5  A    between atoms: C7_15  and  O7_16
REMARK    6  A    between atoms: C7_15  and  C8_18
REMARK    7  A    between atoms: C8_18  and  O8_19
REMARK    8  A    between atoms: C8_18  and  C9_21
REMARK    9  A    between atoms: C9_21  and  O9_22
REMARK   10  A    between atoms: C9_21  and  O10_24
ROOT
HETATM    1  C6  UNL     1      14.719  -3.051  -3.831  1.00  0.00     0.189 C
ENDROOT
BRANCH   1   2
HETATM    2  C5  UNL     1      13.998  -1.937  -4.482  1.00  0.00     0.232 C
HETATM    3  O5  UNL     1      12.851  -1.508  -3.932  1.00  0.00    -0.303 OA
HETATM    4  C3  UNL     1      11.770  -2.283  -4.112  1.00  0.00     0.354 C
HETATM    5  O2  UNL     1      10.640  -1.524  -3.727  1.00  0.00    -0.316 OA
HETATM    6  O3  UNL     1      11.727  -3.447  -3.396  1.00  0.00    -0.285 OA
HETATM    7  S2  UNL     1      11.576  -2.585  -5.921  1.00  0.00     0.005 SA
HETATM    8  C2  UNL     1       9.507  -1.989  -4.391  1.00  0.00     0.258 C
HETATM    9  C1  UNL     1       9.503  -3.467  -4.262  1.00  0.00     0.204 C
HETATM   10  O1  UNL     1       8.528  -4.076  -4.661  1.00  0.00    -0.290 OA
HETATM   11  C4  UNL     1      10.624  -4.217  -3.676  1.00  0.00     0.337 C
HETATM   12  S1  UNL     1      13.696  -2.266  -6.270  1.00  0.00    -0.055 SA
BRANCH  11  13
HETATM   13  O4  UNL     1      10.182  -4.799  -2.489  1.00  0.00    -0.364 OA
ATOM     14  H4  UNL     1      10.280  -5.741  -2.568  1.00  0.00     0.213 HD
ENDBRANCH  11  13
ENDBRANCH   1   2
BRANCH   1  15
HETATM   15  O6  UNL     1      14.573  -4.192  -4.596  1.00  0.00    -0.389 OA
ATOM     16  H6  UNL     1      15.004  -4.916  -4.158  1.00  0.00     0.210 HD
ENDBRANCH   1  15
BRANCH   1  17
HETATM   17  C7  UNL     1      14.241  -3.228  -2.406  1.00  0.00     0.183 C
BRANCH  17  18
HETATM   18  O7  UNL     1      14.591  -2.042  -1.740  1.00  0.00    -0.390 OA
ATOM     19  H7  UNL     1      13.981  -1.966  -1.015  1.00  0.00     0.210 HD
ENDBRANCH  17  18
BRANCH  17  20
HETATM   20  C8  UNL     1      14.865  -4.426  -1.730  1.00  0.00     0.204 C
BRANCH  20  21
HETATM   21  O8  UNL     1      15.865  -4.052  -0.841  1.00  0.00    -0.388 OA
ATOM     22  H8  UNL     1      15.743  -3.164  -0.527  1.00  0.00     0.210 HD
ENDBRANCH  20  21
BRANCH  20  23
HETATM   23  C9  UNL     1      13.786  -5.204  -1.006  1.00  0.00     0.285 C
BRANCH  23  24
HETATM   24  O9  UNL     1      13.588  -6.454  -1.589  1.00  0.00    -0.369 OA
ATOM     25  H9  UNL     1      13.481  -7.128  -0.929  1.00  0.00     0.212 HD
ENDBRANCH  23  24
BRANCH  23  26
HETATM   26  O10 UNL     1      12.587  -4.519  -0.931  1.00  0.00    -0.369 OA
ATOM     27  H10 UNL     1      12.002  -4.717  -1.653  1.00  0.00     0.212 HD
ENDBRANCH  23  26
ENDBRANCH  20  23
ENDBRANCH  17  20
ENDBRANCH   1  17
TORSDOF 10
ENDMDL