MODEL 3
REMARK VINA RESULT: -7.813244603      2.400      7.500
REMARK  9 active torsions:
REMARK  status: ('A' for Active; 'I' for Inactive)
REMARK    1  A    between atoms: C2_2  and  O1_3
REMARK    2  A    between atoms: C2_2  and  C3_5
REMARK    3  A    between atoms: C3_5  and  N1_6
REMARK    4  A    between atoms: N1_6  and  C5_9
REMARK    5  A    between atoms: C6_12  and  N4_13
REMARK    6  A    between atoms: C10_19  and  C11_20
REMARK    7  A    between atoms: C11_20  and  O2_21
REMARK    8  A    between atoms: C11_20  and  O3_23
REMARK    9  A    between atoms: C13_28  and  N8_29
ROOT
HETATM    1  N1  UNL     1      16.372  -1.688  -1.341  1.00  0.00    -0.092 N
HETATM    2  C4  UNL     1      16.338  -1.107  -0.036  1.00  0.00     0.203 C
HETATM    3  N2  UNL     1      16.308  -0.617   1.011  1.00  0.00    -0.171 NA
ENDROOT
BRANCH   1   4
HETATM    4  C3  UNL     1      17.403  -1.307  -2.218  1.00  0.00     0.131 C
BRANCH   4   5
HETATM    5  C2  UNL     1      17.810  -2.286  -3.265  1.00  0.00     0.154 C
HETATM    6  C1  UNL     1      19.254  -2.449  -3.534  1.00  0.00     0.045 C
BRANCH   5   7
HETATM    7  O1  UNL     1      17.058  -2.148  -4.444  1.00  0.00    -0.391 OA
ATOM      8  H1  UNL     1      16.245  -2.639  -4.415  1.00  0.00     0.210 HD
ENDBRANCH   5   7
ENDBRANCH   4   5
ENDBRANCH   1   4
BRANCH   1   9
HETATM    9  C5  UNL     1      15.316  -2.555  -1.665  1.00  0.00     0.726 A
HETATM   10  N3  UNL     1      14.418  -2.206  -2.635  1.00  0.00    -0.020 N
HETATM   11  C6  UNL     1      13.371  -2.938  -2.991  1.00  0.00     0.709 A
ATOM     12  H3  UNL     1      14.564  -1.319  -3.119  1.00  0.00     0.203 HD
HETATM   13  N7  UNL     1      13.221  -4.118  -2.319  1.00  0.00    -0.022 N
HETATM   14  C13 UNL     1      14.069  -4.499  -1.371  1.00  0.00     0.705 A
ATOM     15  H7  UNL     1      12.433  -4.723  -2.551  1.00  0.00     0.203 HD
HETATM   16  N9  UNL     1      15.131  -3.721  -1.032  1.00  0.00    -0.020 N
ATOM     17  H9  UNL     1      15.778  -4.022  -0.303  1.00  0.00     0.203 HD
BRANCH  11  18
HETATM   18  N4  UNL     1      12.437  -2.548  -3.990  1.00  0.00    -0.213 N
HETATM   19  C7  UNL     1      12.738  -2.321  -5.355  1.00  0.00     0.161 C
HETATM   20  C8  UNL     1      11.605  -2.447  -6.305  1.00  0.00     0.155 C
HETATM   21  N5  UNL     1      10.321  -2.617  -5.720  1.00  0.00    -0.307 N
HETATM   22  C9  UNL     1       9.183  -2.287  -6.505  1.00  0.00     0.180 C
HETATM   23  C10 UNL     1      10.158  -3.108  -4.392  1.00  0.00     0.168 C
HETATM   24  N6  UNL     1       8.263  -2.012  -7.149  1.00  0.00    -0.172 NA
HETATM   25  C12 UNL     1      11.082  -2.337  -3.492  1.00  0.00     0.172 C
BRANCH  23  26
HETATM   26  C11 UNL     1       8.726  -3.065  -3.918  1.00  0.00     0.278 C
BRANCH  26  27
HETATM   27  O2  UNL     1       7.988  -4.027  -4.605  1.00  0.00    -0.369 OA
ATOM     28  H2  UNL     1       7.167  -4.173  -4.149  1.00  0.00     0.212 HD
ENDBRANCH  26  27
BRANCH  26  29
HETATM   29  O3  UNL     1       8.615  -3.383  -2.561  1.00  0.00    -0.369 OA
ATOM     30  H3  UNL     1       8.287  -2.652  -2.050  1.00  0.00     0.212 HD
ENDBRANCH  26  29
ENDBRANCH  23  26
ENDBRANCH  11  18
BRANCH  14  31
HETATM   31  N8  UNL     1      13.911  -5.608  -0.755  1.00  0.00    -0.234 N
ATOM     32  H82 UNL     1      13.606  -6.420  -1.293  1.00  0.00     0.174 HD
ATOM     33  H81 UNL     1      14.083  -5.680   0.248  1.00  0.00     0.174 HD
ENDBRANCH  14  31
ENDBRANCH   1   9
TORSDOF 9
ENDMDL