MODEL 5
REMARK VINA RESULT: -7.024004371      2.347      6.620
REMARK  11 active torsions:
REMARK  status: ('A' for Active; 'I' for Inactive)
REMARK    1  A    between atoms: C2_2  and  O2_4
REMARK    2  A    between atoms: O2_4  and  C3_5
REMARK    3  A    between atoms: C4_6  and  C5_7
REMARK    4  A    between atoms: N1_8  and  O3_10
REMARK    5  A    between atoms: C7_16  and  O4_17
REMARK    6  A    between atoms: O4_17  and  C8_18
REMARK    7  A    between atoms: C8_18  and  C9_20
REMARK    8  A    between atoms: C11_22  and  N3_23
REMARK    9  A    between atoms: C12_27  and  O6_28
REMARK   10  A    between atoms: C13_30  and  O7_31
REMARK   11  A    between atoms: C14_33  and  O8_34
ROOT
HETATM    1  C8  UNL     1      12.396  -2.596  -4.870  1.00  0.00     0.266 C
HETATM    2  O5  UNL     1      12.670  -3.788  -5.217  1.00  0.00    -0.265 OA
ENDROOT
BRANCH   1   3
HETATM    3  O4  UNL     1      13.423  -1.704  -4.745  1.00  0.00    -0.311 OA
BRANCH   3   4
HETATM    4  C7  UNL     1      14.707  -2.160  -4.293  1.00  0.00     0.189 C
HETATM    5  C3  UNL     1      14.735  -2.343  -2.814  1.00  0.00     0.198 C
HETATM    6  C4  UNL     1      15.433  -3.629  -2.573  1.00  0.00     0.258 C
HETATM    7  N2  UNL     1      15.799  -4.169  -3.885  1.00  0.00    -0.061 N
HETATM    8  C6  UNL     1      14.847  -3.576  -4.812  1.00  0.00     0.268 C
ATOM      9  H22 UNL     1      16.775  -4.013  -4.139  1.00  0.00     0.278 HD
ATOM     10  H21 UNL     1      15.832  -5.187  -3.919  1.00  0.00     0.278 HD
BRANCH   5  11
HETATM   11  O2  UNL     1      15.257  -1.251  -2.110  1.00  0.00    -0.311 OA
BRANCH  11  12
HETATM   12  C2  UNL     1      16.297  -1.300  -1.213  1.00  0.00     0.255 C
HETATM   13  C1  UNL     1      17.679  -1.117  -1.753  1.00  0.00     0.126 C
HETATM   14  O1  UNL     1      16.042  -1.490  -0.012  1.00  0.00    -0.266 OA
ENDBRANCH  11  12
ENDBRANCH   5  11
BRANCH   6  15
HETATM   15  C5  UNL     1      14.550  -4.636  -1.939  1.00  0.00     0.122 C
HETATM   16  N1  UNL     1      13.479  -4.256  -1.359  1.00  0.00    -0.282 N
ATOM     17  H1  UNL     1      13.266  -3.258  -1.352  1.00  0.00     0.192 HD
BRANCH  16  18
HETATM   18  O3  UNL     1      12.601  -5.103  -0.748  1.00  0.00    -0.290 OA
ATOM     19  H3  UNL     1      12.427  -5.990  -1.042  1.00  0.00     0.244 HD
ENDBRANCH  16  18
ENDBRANCH   6  15
ENDBRANCH   3   4
ENDBRANCH   1   3
BRANCH   1  20
HETATM   20  C9  UNL     1      10.968  -2.260  -4.624  1.00  0.00     0.119 C
HETATM   21  C10 UNL     1      10.045  -3.084  -5.471  1.00  0.00     0.052 C
HETATM   22  C11 UNL     1       8.660  -3.001  -4.847  1.00  0.00     0.215 C
HETATM   23  C12 UNL     1       8.675  -3.896  -3.633  1.00  0.00     0.179 C
HETATM   24  C13 UNL     1       9.962  -3.732  -2.863  1.00  0.00     0.178 C
HETATM   25  C14 UNL     1      10.628  -2.402  -3.157  1.00  0.00     0.163 C
BRANCH  22  26
HETATM   26  N3  UNL     1       7.710  -3.490  -5.820  1.00  0.00    -0.072 N
ATOM     27  H33 UNL     1       7.460  -2.789  -6.517  1.00  0.00     0.274 HD
ATOM     28  H32 UNL     1       8.113  -4.176  -6.459  1.00  0.00     0.274 HD
ATOM     29  H31 UNL     1       6.902  -3.850  -5.311  1.00  0.00     0.274 HD
ENDBRANCH  22  26
BRANCH  23  30
HETATM   30  O6  UNL     1       7.549  -3.688  -2.829  1.00  0.00    -0.391 OA
ATOM     31  H6  UNL     1       7.143  -4.509  -2.579  1.00  0.00     0.210 HD
ENDBRANCH  23  30
BRANCH  24  32
HETATM   32  O7  UNL     1      10.839  -4.802  -3.059  1.00  0.00    -0.390 OA
ATOM     33  H7  UNL     1      11.711  -4.514  -3.303  1.00  0.00     0.210 HD
ENDBRANCH  24  32
BRANCH  25  34
HETATM   34  O8  UNL     1      11.768  -2.338  -2.360  1.00  0.00    -0.392 OA
ATOM     35  H8  UNL     1      11.574  -1.980  -1.501  1.00  0.00     0.210 HD
ENDBRANCH  25  34
ENDBRANCH   1  20
TORSDOF 11
ENDMDL