MODEL 5
REMARK VINA RESULT: -7.268567923      3.291      8.063
REMARK  9 active torsions:
REMARK  status: ('A' for Active; 'I' for Inactive)
REMARK    1  A    between atoms: S1_2  and  C2_3
REMARK    2  A    between atoms: C3_5  and  C4_6
REMARK    3  A    between atoms: C5_10  and  O2_11
REMARK    4  A    between atoms: O2_11  and  C6_12
REMARK    5  A    between atoms: C7_14  and  O4_15
REMARK    6  A    between atoms: C8_17  and  O5_18
REMARK    7  A    between atoms: C9_20  and  O6_21
REMARK    8  A    between atoms: C11_25  and  O8_26
REMARK    9  A    between atoms: C12_28  and  O9_29
ROOT
HETATM    1  C4  UNL     1      12.174  -2.505  -3.452  1.00  0.00     0.359 C
HETATM    2  N1  UNL     1      11.755  -3.436  -4.483  1.00  0.00     0.004 N
ATOM      3  H11 UNL     1      12.206  -4.339  -4.633  1.00  0.00     0.286 HD
ATOM      4  H12 UNL     1      11.904  -3.268  -5.478  1.00  0.00     0.286 HD
HETATM    5  C5  UNL     1      10.462  -3.295  -3.842  1.00  0.00     0.476 C
HETATM    6  O7  UNL     1      11.144  -3.028  -2.657  1.00  0.00    -0.302 OA
ENDROOT
BRANCH   1   7
HETATM    7  C3  UNL     1      13.556  -2.824  -2.985  1.00  0.00     0.182 C
HETATM    8  O1  UNL     1      14.152  -1.894  -2.195  1.00  0.00    -0.363 OA
HETATM    9  C2  UNL     1      15.520  -1.816  -2.278  1.00  0.00     0.214 C
HETATM   10  C12 UNL     1      16.234  -3.059  -2.653  1.00  0.00     0.185 C
HETATM   11  C11 UNL     1      15.596  -3.914  -3.690  1.00  0.00     0.152 C
HETATM   12  C10 UNL     1      14.381  -3.169  -4.223  1.00  0.00     0.071 C
BRANCH   9  13
HETATM   13  S1  UNL     1      16.105  -1.375  -0.591  1.00  0.00    -0.139 SA
HETATM   14  C1  UNL     1      17.153   0.083  -0.652  1.00  0.00     0.092 C
ENDBRANCH   9  13
BRANCH  10  15
HETATM   15  O9  UNL     1      16.545  -3.819  -1.506  1.00  0.00    -0.390 OA
ATOM     16  H9  UNL     1      17.183  -3.367  -0.968  1.00  0.00     0.210 HD
ENDBRANCH  10  15
BRANCH  11  17
HETATM   17  O8  UNL     1      15.091  -5.117  -3.156  1.00  0.00    -0.393 OA
ATOM     18  H8  UNL     1      15.788  -5.462  -2.610  1.00  0.00     0.210 HD
ENDBRANCH  11  17
ENDBRANCH   1   7
BRANCH   5  19
HETATM   19  O2  UNL     1       9.796  -2.182  -4.336  1.00  0.00    -0.305 OA
BRANCH  19  20
HETATM   20  C6  UNL     1       9.443  -2.419  -5.660  1.00  0.00     0.299 C
HETATM   21  O3  UNL     1       9.320  -3.790  -5.927  1.00  0.00    -0.326 OA
HETATM   22  C7  UNL     1       8.664  -3.806  -7.172  1.00  0.00     0.291 C
HETATM   23  C8  UNL     1       7.541  -2.792  -7.016  1.00  0.00     0.206 C
HETATM   24  C9  UNL     1       8.012  -1.964  -5.840  1.00  0.00     0.207 C
BRANCH  22  25
HETATM   25  O4  UNL     1       8.169  -5.070  -7.478  1.00  0.00    -0.368 OA
ATOM     26  H4  UNL     1       8.742  -5.758  -7.161  1.00  0.00     0.212 HD
ENDBRANCH  22  25
BRANCH  23  27
HETATM   27  O5  UNL     1       6.399  -3.524  -6.689  1.00  0.00    -0.388 OA
ATOM     28  H5  UNL     1       5.721  -3.241  -7.293  1.00  0.00     0.210 HD
ENDBRANCH  23  27
BRANCH  24  29
HETATM   29  O6  UNL     1       7.258  -2.322  -4.741  1.00  0.00    -0.388 OA
ATOM     30  H6  UNL     1       6.584  -2.940  -4.994  1.00  0.00     0.210 HD
ENDBRANCH  24  29
ENDBRANCH  19  20
ENDBRANCH   5  19
TORSDOF 9
ENDMDL