MODEL 1
REMARK VINA RESULT: -7.465022442      0.000      0.000
REMARK  11 active torsions:
REMARK  status: ('A' for Active; 'I' for Inactive)
REMARK    1  A    between atoms: O1_2  and  C2_3
REMARK    2  A    between atoms: C2_3  and  O2_7
REMARK    3  A    between atoms: O2_7  and  C3_8
REMARK    4  A    between atoms: C3_8  and  C4_9
REMARK    5  A    between atoms: C4_9  and  O3_10
REMARK    6  A    between atoms: C6_14  and  C7_15
REMARK    7  A    between atoms: C7_15  and  O4_16
REMARK    8  A    between atoms: C7_15  and  C8_18
REMARK    9  A    between atoms: C8_18  and  O5_19
REMARK   10  A    between atoms: C10_22  and  O6_23
REMARK   11  A    between atoms: C11_25  and  O7_26
ROOT
HETATM    1  C3  UNL     1      14.899  -2.482  -2.301  1.00  0.00     0.204 C
HETATM    2  C5  UNL     1      15.221  -3.426  -1.152  1.00  0.00     0.148 C
HETATM    3  S1  UNL     1      13.873  -4.635  -1.499  1.00  0.00    -0.129 SA
HETATM    4  C6  UNL     1      12.891  -3.516  -2.546  1.00  0.00     0.221 C
HETATM    5  O9  UNL     1      13.563  -2.344  -2.425  1.00  0.00    -0.333 OA
ENDROOT
BRANCH   4   6
HETATM    6  C7  UNL     1      11.461  -3.476  -2.153  1.00  0.00     0.219 C
BRANCH   6   7
HETATM    7  O4  UNL     1      11.171  -4.530  -1.295  1.00  0.00    -0.387 OA
ATOM      8  H4  UNL     1      10.990  -4.200  -0.422  1.00  0.00     0.210 HD
ENDBRANCH   6   7
BRANCH   6   9
HETATM    9  C8  UNL     1      10.448  -3.425  -3.230  1.00  0.00     0.193 C
HETATM   10  C9  UNL     1      10.751  -2.467  -4.347  1.00  0.00     0.105 C
HETATM   11  C10 UNL     1       9.548  -2.356  -5.257  1.00  0.00     0.154 C
HETATM   12  C11 UNL     1       8.602  -3.505  -5.128  1.00  0.00     0.170 C
HETATM   13  C12 UNL     1       8.301  -3.837  -3.703  1.00  0.00     0.205 C
HETATM   14  O8  UNL     1       9.154  -3.211  -2.795  1.00  0.00    -0.350 OA
BRANCH   9  15
HETATM   15  O5  UNL     1      10.449  -4.713  -3.828  1.00  0.00    -0.363 OA
ATOM     16  H5  UNL     1      11.073  -4.669  -4.542  1.00  0.00     0.213 HD
ENDBRANCH   9  15
BRANCH  11  17
HETATM   17  O6  UNL     1       8.831  -1.185  -5.002  1.00  0.00    -0.393 OA
ATOM     18  H6  UNL     1       9.105  -0.483  -5.580  1.00  0.00     0.210 HD
ENDBRANCH  11  17
BRANCH  12  19
HETATM   19  O7  UNL     1       7.385  -3.100  -5.722  1.00  0.00    -0.391 OA
ATOM     20  H7  UNL     1       6.687  -3.481  -5.202  1.00  0.00     0.210 HD
ENDBRANCH  12  19
ENDBRANCH   6   9
ENDBRANCH   4   6
BRANCH   1  21
HETATM   21  O2  UNL     1      15.392  -1.200  -1.853  1.00  0.00    -0.276 OA
BRANCH  21  22
HETATM   22  C2  UNL     1      16.450  -1.133  -0.956  1.00  0.00     0.260 C
HETATM   23  N1  UNL     1      17.636  -1.105  -1.428  1.00  0.00    -0.359 N
ATOM     24  H12 UNL     1      18.413  -1.056  -0.769  1.00  0.00     0.160 HD
ATOM     25  H11 UNL     1      17.824  -1.130  -2.430  1.00  0.00     0.160 HD
BRANCH  22  26
HETATM   26  O1  UNL     1      16.194  -1.099   0.409  1.00  0.00    -0.322 OA
HETATM   27  C1  UNL     1      16.867  -0.106   1.173  1.00  0.00     0.213 C
ENDBRANCH  22  26
ENDBRANCH  21  22
ENDBRANCH   1  21
BRANCH   1  28
HETATM   28  C4  UNL     1      15.656  -2.864  -3.546  1.00  0.00     0.234 C
BRANCH  28  29
HETATM   29  O3  UNL     1      16.829  -3.549  -3.316  1.00  0.00    -0.395 OA
ATOM     30  H3  UNL     1      16.946  -4.324  -3.854  1.00  0.00     0.209 HD
ENDBRANCH  28  29
ENDBRANCH   1  28
TORSDOF 11
ENDMDL