MODEL 5
REMARK VINA RESULT: -8.664956177      0.959      2.161
REMARK  10 active torsions:
REMARK  status: ('A' for Active; 'I' for Inactive)
REMARK    1  A    between atoms: C5_6  and  O2_7
REMARK    2  A    between atoms: O2_7  and  C6_8
REMARK    3  A    between atoms: C6_8  and  O3_9
REMARK    4  A    between atoms: O3_9  and  C7_10
REMARK    5  A    between atoms: C8_12  and  O5_13
REMARK    6  A    between atoms: C9_15  and  O6_16
REMARK    7  A    between atoms: C10_18  and  O7_19
REMARK    8  A    between atoms: C11_21  and  O8_22
REMARK    9  A    between atoms: C12_24  and  O9_25
REMARK   10  A    between atoms: C13_28  and  O11_29
ROOT
HETATM    1  C6  UNL     1      15.754  -2.443  -1.570  1.00  0.00     0.344 C
ENDROOT
BRANCH   1   2
HETATM    2  O2  UNL     1      14.842  -2.436  -2.617  1.00  0.00    -0.331 OA
BRANCH   2   3
HETATM    3  C5  UNL     1      13.529  -2.351  -2.197  1.00  0.00     0.330 C
HETATM    4  O1  UNL     1      12.864  -1.502  -3.080  1.00  0.00    -0.326 OA
HETATM    5  C4  UNL     1      12.431  -2.271  -4.141  1.00  0.00     0.267 C
HETATM    6  C3  UNL     1      10.918  -2.331  -4.069  1.00  0.00     0.068 C
HETATM    7  O10 UNL     1      12.917  -3.569  -3.936  1.00  0.00    -0.318 OA
HETATM    8  C2  UNL     1      10.516  -3.533  -3.265  1.00  0.00     0.020 C
HETATM    9  C1  UNL     1       9.051  -3.533  -2.914  1.00  0.00     0.013 C
HETATM   10  C13 UNL     1      11.404  -3.624  -2.057  1.00  0.00     0.189 C
HETATM   11  C12 UNL     1      12.841  -3.658  -2.541  1.00  0.00     0.242 C
BRANCH  10  12
HETATM   12  O11 UNL     1      11.122  -4.744  -1.277  1.00  0.00    -0.390 OA
ATOM     13  H11 UNL     1      10.234  -4.734  -0.939  1.00  0.00     0.210 HD
ENDBRANCH  10  12
BRANCH  11  14
HETATM   14  O9  UNL     1      13.528  -4.756  -2.052  1.00  0.00    -0.359 OA
ATOM     15  H9  UNL     1      14.257  -5.002  -2.610  1.00  0.00     0.213 HD
ENDBRANCH  11  14
ENDBRANCH   2   3
ENDBRANCH   1   2
BRANCH   1  16
HETATM   16  O3  UNL     1      15.925  -1.114  -1.180  1.00  0.00    -0.334 OA
BRANCH  16  17
HETATM   17  C7  UNL     1      17.236  -0.716  -1.301  1.00  0.00     0.296 C
HETATM   18  O4  UNL     1      17.504  -0.594  -2.680  1.00  0.00    -0.326 OA
HETATM   19  C8  UNL     1      18.880  -0.663  -2.903  1.00  0.00     0.291 C
HETATM   20  C9  UNL     1      19.589  -0.042  -1.741  1.00  0.00     0.204 C
HETATM   21  C10 UNL     1      18.808   1.141  -1.230  1.00  0.00     0.185 C
HETATM   22  C11 UNL     1      17.533   0.581  -0.592  1.00  0.00     0.204 C
BRANCH  19  23
HETATM   23  O5  UNL     1      19.198  -2.008  -3.047  1.00  0.00    -0.368 OA
ATOM     24  H5  UNL     1      18.883  -2.276  -3.902  1.00  0.00     0.212 HD
ENDBRANCH  19  23
BRANCH  20  25
HETATM   25  O6  UNL     1      20.838   0.401  -2.171  1.00  0.00    -0.388 OA
ATOM     26  H6  UNL     1      20.731   1.251  -2.583  1.00  0.00     0.210 HD
ENDBRANCH  20  25
BRANCH  21  27
HETATM   27  O7  UNL     1      19.500   1.874  -0.283  1.00  0.00    -0.390 OA
ATOM     28  H7  UNL     1      18.949   2.493   0.180  1.00  0.00     0.210 HD
ENDBRANCH  21  27
BRANCH  22  29
HETATM   29  O8  UNL     1      17.798   0.371   0.760  1.00  0.00    -0.388 OA
ATOM     30  H8  UNL     1      17.998   1.186   1.204  1.00  0.00     0.210 HD
ENDBRANCH  22  29
ENDBRANCH  16  17
ENDBRANCH   1  16
TORSDOF 10
ENDMDL