MODEL 5
REMARK VINA RESULT: -7.085719093      1.494      3.480
REMARK  11 active torsions:
REMARK  status: ('A' for Active; 'I' for Inactive)
REMARK    1  A    between atoms: C3_4  and  O2_5
REMARK    2  A    between atoms: O2_5  and  C4_6
REMARK    3  A    between atoms: C5_8  and  O4_9
REMARK    4  A    between atoms: O4_9  and  O5_10
REMARK    5  A    between atoms: C6_12  and  O6_13
REMARK    6  A    between atoms: C7_15  and  O7_16
REMARK    7  A    between atoms: O7_16  and  C8_17
REMARK    8  A    between atoms: C8_17  and  O8_20
REMARK    9  A    between atoms: C11_22  and  O9_23
REMARK   10  A    between atoms: C12_25  and  O10_26
REMARK   11  A    between atoms: C13_28  and  O11_29
ROOT
HETATM    1  C4  UNL     1      17.297  -1.665  -2.573  1.00  0.00     0.298 C
HETATM    2  O3  UNL     1      17.475  -1.380  -3.917  1.00  0.00    -0.323 OA
HETATM    3  C5  UNL     1      18.873  -1.153  -3.936  1.00  0.00     0.330 C
HETATM    4  C6  UNL     1      19.107  -0.222  -2.764  1.00  0.00     0.210 C
HETATM    5  C7  UNL     1      17.802  -0.382  -1.967  1.00  0.00     0.214 C
ENDROOT
BRANCH   1   6
HETATM    6  O2  UNL     1      16.124  -2.137  -2.182  1.00  0.00    -0.326 OA
BRANCH   6   7
HETATM    7  C3  UNL     1      15.095  -2.240  -3.080  1.00  0.00     0.294 C
HETATM    8  O1  UNL     1      13.923  -2.105  -2.322  1.00  0.00    -0.351 OA
HETATM    9  C2  UNL     1      12.801  -1.800  -3.033  1.00  0.00     0.152 C
HETATM   10  C1  UNL     1      11.642  -2.581  -2.397  1.00  0.00     0.042 C
HETATM   11  C13 UNL     1      12.980  -2.213  -4.473  1.00  0.00     0.178 C
HETATM   12  C12 UNL     1      13.670  -3.554  -4.572  1.00  0.00     0.183 C
HETATM   13  C11 UNL     1      14.970  -3.569  -3.783  1.00  0.00     0.204 C
BRANCH  11  14
HETATM   14  O11 UNL     1      11.684  -2.408  -4.999  1.00  0.00    -0.390 OA
ATOM     15  H11 UNL     1      11.596  -1.808  -5.731  1.00  0.00     0.210 HD
ENDBRANCH  11  14
BRANCH  12  16
HETATM   16  O10 UNL     1      13.878  -3.801  -5.936  1.00  0.00    -0.390 OA
ATOM     17  H10 UNL     1      13.290  -3.294  -6.484  1.00  0.00     0.210 HD
ENDBRANCH  12  16
BRANCH  13  18
HETATM   18  O9  UNL     1      14.882  -4.627  -2.875  1.00  0.00    -0.388 OA
ATOM     19  H9  UNL     1      14.478  -5.393  -3.267  1.00  0.00     0.210 HD
ENDBRANCH  13  18
ENDBRANCH   6   7
ENDBRANCH   1   6
BRANCH   5  20
HETATM   20  O7  UNL     1      18.036  -0.534  -0.634  1.00  0.00    -0.343 OA
BRANCH  20  21
HETATM   21  C8  UNL     1      17.207   0.227   0.182  1.00  0.00     0.155 C
HETATM   22  C9  UNL     1      17.515   0.131   1.643  1.00  0.00     0.078 C
HETATM   23  C10 UNL     1      17.361   1.671  -0.240  1.00  0.00     0.078 C
BRANCH  21  24
HETATM   24  O8  UNL     1      15.881  -0.166  -0.015  1.00  0.00    -0.366 OA
ATOM     25  H8  UNL     1      15.355   0.599  -0.215  1.00  0.00     0.213 HD
ENDBRANCH  21  24
ENDBRANCH  20  21
ENDBRANCH   5  20
BRANCH   3  26
HETATM   26  O4  UNL     1      19.547  -2.355  -3.760  1.00  0.00    -0.207 OA
BRANCH  26  27
HETATM   27  O5  UNL     1      18.725  -3.359  -3.754  1.00  0.00    -0.248 OA
ATOM     28  H5  UNL     1      18.386  -3.522  -2.881  1.00  0.00     0.253 HD
ENDBRANCH  26  27
ENDBRANCH   3  26
BRANCH   4  29
HETATM   29  O6  UNL     1      20.165  -0.613  -1.974  1.00  0.00    -0.388 OA
ATOM     30  H6  UNL     1      19.997  -1.423  -1.506  1.00  0.00     0.210 HD
ENDBRANCH   4  29
TORSDOF 11
ENDMDL