MODEL 2
REMARK VINA RESULT: -7.905326785      2.088      7.280
REMARK  11 active torsions:
REMARK  status: ('A' for Active; 'I' for Inactive)
REMARK    1  A    between atoms: N1_1  and  N2_4
REMARK    2  A    between atoms: N2_4  and  C1_5
REMARK    3  A    between atoms: C1_5  and  O1_6
REMARK    4  A    between atoms: O1_6  and  C2_7
REMARK    5  A    between atoms: C4_9  and  O2_10
REMARK    6  A    between atoms: O2_10  and  C5_11
REMARK    7  A    between atoms: C6_12  and  N3_13
REMARK    8  A    between atoms: C8_19  and  C9_20
REMARK    9  A    between atoms: C11_27  and  O5_28
REMARK   10  A    between atoms: C12_30  and  N6_31
REMARK   11  A    between atoms: C14_36  and  N7_37
ROOT
HETATM    1  C2  UNL     1      17.544  -1.170  -1.830  1.00  0.00     0.163 C
HETATM    2  C3  UNL     1      16.626  -2.278  -2.177  1.00  0.00     0.068 C
HETATM    3  C4  UNL     1      16.121  -2.288  -3.586  1.00  0.00     0.155 C
HETATM    4  C12 UNL     1      17.011  -1.691  -4.600  1.00  0.00     0.214 C
HETATM    5  C13 UNL     1      17.933  -0.617  -4.143  1.00  0.00     0.070 C
HETATM    6  C14 UNL     1      18.635  -1.121  -2.899  1.00  0.00     0.215 C
ENDROOT
BRANCH   3   7
HETATM    7  O2  UNL     1      14.838  -1.748  -3.679  1.00  0.00    -0.373 OA
BRANCH   7   8
HETATM    8  C5  UNL     1      13.897  -2.679  -4.159  1.00  0.00     0.190 C
HETATM    9  C6  UNL     1      13.506  -3.671  -3.117  1.00  0.00     0.238 C
HETATM   10  C7  UNL     1      12.096  -3.553  -2.619  1.00  0.00     0.204 C
HETATM   11  O3  UNL     1      11.301  -4.462  -3.320  1.00  0.00    -0.369 OA
HETATM   12  C8  UNL     1      11.155  -4.102  -4.650  1.00  0.00     0.257 C
HETATM   13  C10 UNL     1      11.473  -2.664  -4.769  1.00  0.00     0.193 C
HETATM   14  O4  UNL     1      10.490  -1.939  -4.919  1.00  0.00    -0.292 OA
HETATM   15  C11 UNL     1      12.739  -1.916  -4.743  1.00  0.00     0.221 C
BRANCH   9  16
HETATM   16  N3  UNL     1      13.689  -5.060  -3.569  1.00  0.00    -0.070 N
ATOM     17  H33 UNL     1      13.921  -5.097  -4.562  1.00  0.00     0.274 HD
ATOM     18  H32 UNL     1      14.546  -5.461  -3.187  1.00  0.00     0.274 HD
ATOM     19  H31 UNL     1      12.882  -5.647  -3.357  1.00  0.00     0.274 HD
ENDBRANCH   9  16
BRANCH  12  20
HETATM   20  C9  UNL     1       9.749  -4.354  -5.051  1.00  0.00     0.123 C
HETATM   21  N4  UNL     1       9.342  -4.131  -6.248  1.00  0.00    -0.389 N
ATOM     22  H42 UNL     1      10.014  -3.772  -6.927  1.00  0.00     0.157 HD
ATOM     23  H41 UNL     1       8.375  -4.305  -6.524  1.00  0.00     0.157 HD
HETATM   24  N5  UNL     1       8.812  -4.855  -4.105  1.00  0.00    -0.085 NA
ENDBRANCH  12  20
BRANCH  15  25
HETATM   25  O5  UNL     1      13.047  -1.597  -6.075  1.00  0.00    -0.385 OA
ATOM     26  H5  UNL     1      13.568  -0.803  -6.078  1.00  0.00     0.210 HD
ENDBRANCH  15  25
ENDBRANCH   7   8
ENDBRANCH   3   7
BRANCH   4  27
HETATM   27  N6  UNL     1      17.826  -2.724  -5.257  1.00  0.00    -0.072 N
ATOM     28  H63 UNL     1      18.688  -2.906  -4.744  1.00  0.00     0.274 HD
ATOM     29  H62 UNL     1      17.401  -3.647  -5.175  1.00  0.00     0.274 HD
ATOM     30  H61 UNL     1      18.010  -2.478  -6.230  1.00  0.00     0.274 HD
ENDBRANCH   4  27
BRANCH   1  31
HETATM   31  O1  UNL     1      16.838   0.052  -1.791  1.00  0.00    -0.326 OA
BRANCH  31  32
HETATM   32  C1  UNL     1      16.766   0.743  -0.591  1.00  0.00     0.346 C
BRANCH  32  33
HETATM   33  N2  UNL     1      16.374   0.093   0.429  1.00  0.00    -0.321 NA
BRANCH  33  34
HETATM   34  N1  UNL     1      16.013  -0.577   1.396  1.00  0.00    -0.279 N
ATOM     35  H12 UNL     1      16.500  -1.105   0.671  1.00  0.00     0.191 HD
ATOM     36  H11 UNL     1      15.698  -1.098   2.215  1.00  0.00     0.191 HD
ENDBRANCH  33  34
ENDBRANCH  32  33
ENDBRANCH  31  32
ENDBRANCH   1  31
BRANCH   6  37
HETATM   37  N7  UNL     1      19.739  -0.295  -2.502  1.00  0.00    -0.072 N
ATOM     38  H73 UNL     1      19.478   0.691  -2.485  1.00  0.00     0.274 HD
ATOM     39  H72 UNL     1      19.959  -0.420  -1.514  1.00  0.00     0.274 HD
ATOM     40  H71 UNL     1      20.561  -0.449  -3.086  1.00  0.00     0.274 HD
ENDBRANCH   6  37
TORSDOF 11
ENDMDL