MODEL 1
REMARK VINA RESULT: -8.013066356      0.000      0.000
REMARK  12 active torsions:
REMARK  status: ('A' for Active; 'I' for Inactive)
REMARK    1  A    between atoms: C1_2  and  C2_3
REMARK    2  A    between atoms: C2_3  and  O3_5
REMARK    3  A    between atoms: O3_5  and  C3_6
REMARK    4  A    between atoms: C3_6  and  C4_7
REMARK    5  A    between atoms: C6_9  and  O4_10
REMARK    6  A    between atoms: O4_10  and  C7_11
REMARK    7  A    between atoms: C8_12  and  O5_13
REMARK    8  A    between atoms: C9_15  and  O6_16
REMARK    9  A    between atoms: C10_18  and  O7_19
REMARK   10  A    between atoms: C14_24  and  O8_25
REMARK   11  A    between atoms: C15_27  and  O9_28
REMARK   12  A    between atoms: C16_30  and  O10_31
ROOT
HETATM    1  C4  UNL     1      11.607  -2.884  -6.348  1.00  0.00     0.044 C
HETATM    2  C5  UNL     1      12.628  -2.306  -5.361  1.00  0.00     0.044 C
HETATM    3  C6  UNL     1      12.863  -3.250  -4.205  1.00  0.00     0.154 C
HETATM    4  C14 UNL     1      11.520  -3.455  -3.520  1.00  0.00     0.178 C
HETATM    5  C15 UNL     1      10.464  -3.998  -4.419  1.00  0.00     0.178 C
HETATM    6  C16 UNL     1      10.307  -3.180  -5.680  1.00  0.00     0.155 C
ENDROOT
BRANCH   3   7
HETATM    7  O4  UNL     1      13.650  -2.623  -3.266  1.00  0.00    -0.375 OA
BRANCH   7   8
HETATM    8  C7  UNL     1      14.979  -2.738  -3.388  1.00  0.00     0.158 C
HETATM    9  C8  UNL     1      15.640  -2.464  -2.053  1.00  0.00     0.178 C
HETATM   10  C9  UNL     1      17.028  -1.924  -2.403  1.00  0.00     0.178 C
HETATM   11  C10 UNL     1      17.643  -2.812  -3.423  1.00  0.00     0.154 C
HETATM   12  C11 UNL     1      16.968  -4.116  -3.643  1.00  0.00     0.024 A
HETATM   13  C12 UNL     1      16.314  -4.256  -5.036  1.00  0.00     0.015 A
HETATM   14  C13 UNL     1      15.501  -4.076  -3.836  1.00  0.00     0.024 A
BRANCH   9  15
HETATM   15  O5  UNL     1      14.942  -1.610  -1.239  1.00  0.00    -0.390 OA
ATOM     16  H5  UNL     1      14.900  -0.715  -1.552  1.00  0.00     0.210 HD
ENDBRANCH   9  15
BRANCH  10  17
HETATM   17  O6  UNL     1      16.824  -0.663  -2.956  1.00  0.00    -0.390 OA
ATOM     18  H6  UNL     1      16.326  -0.171  -2.314  1.00  0.00     0.210 HD
ENDBRANCH  10  17
BRANCH  11  19
HETATM   19  O7  UNL     1      17.839  -2.134  -4.647  1.00  0.00    -0.393 OA
ATOM     20  H7  UNL     1      18.410  -2.624  -5.228  1.00  0.00     0.210 HD
ENDBRANCH  11  19
ENDBRANCH   7   8
ENDBRANCH   3   7
BRANCH   4  21
HETATM   21  O8  UNL     1      11.626  -4.240  -2.390  1.00  0.00    -0.390 OA
ATOM     22  H8  UNL     1      10.791  -4.351  -1.950  1.00  0.00     0.210 HD
ENDBRANCH   4  21
BRANCH   1  23
HETATM   23  C3  UNL     1      11.349  -1.780  -7.374  1.00  0.00     0.186 C
BRANCH  23  24
HETATM   24  O3  UNL     1      12.612  -1.148  -7.619  1.00  0.00    -0.315 OA
BRANCH  24  25
HETATM   25  C2  UNL     1      12.956  -0.761  -8.901  1.00  0.00     0.321 C
HETATM   26  O2  UNL     1      12.153  -0.031  -9.541  1.00  0.00    -0.257 OA
BRANCH  25  27
HETATM   27  C1  UNL     1      14.203  -1.170  -9.516  1.00  0.00     0.340 C
HETATM   28  O1  UNL     1      14.664  -2.296  -9.250  1.00  0.00    -0.296 OA
ENDBRANCH  25  27
ENDBRANCH  24  25
ENDBRANCH  23  24
ENDBRANCH   1  23
BRANCH   5  29
HETATM   29  O9  UNL     1       9.248  -3.921  -3.739  1.00  0.00    -0.390 OA
ATOM     30  H9  UNL     1       8.553  -3.935  -4.387  1.00  0.00     0.210 HD
ENDBRANCH   5  29
BRANCH   6  31
HETATM   31  O10 UNL     1       9.634  -1.979  -5.400  1.00  0.00    -0.392 OA
ATOM     32  H10 UNL     1       9.172  -1.683  -6.175  1.00  0.00     0.210 HD
ENDBRANCH   6  31
TORSDOF 12
ENDMDL