MODEL 4
REMARK VINA RESULT: -7.916992033      2.818      7.536
REMARK  11 active torsions:
REMARK  status: ('A' for Active; 'I' for Inactive)
REMARK    1  A    between atoms: C2_2  and  C3_3
REMARK    2  A    between atoms: C6_6  and  O1_7
REMARK    3  A    between atoms: O1_7  and  C7_8
REMARK    4  A    between atoms: C8_9  and  O2_10
REMARK    5  A    between atoms: C9_12  and  O3_13
REMARK    6  A    between atoms: C10_15  and  O4_16
REMARK    7  A    between atoms: O4_16  and  C11_17
REMARK    8  A    between atoms: C12_19  and  O6_20
REMARK    9  A    between atoms: C13_22  and  O7_23
REMARK   10  A    between atoms: C14_25  and  O8_26
REMARK   11  A    between atoms: C15_28  and  O9_29
ROOT
HETATM    1  C7  UNL     1      14.732  -1.405  -6.522  1.00  0.00     0.185 C
HETATM    2  C8  UNL     1      14.977  -0.446  -7.682  1.00  0.00     0.181 C
HETATM    3  C9  UNL     1      13.707  -1.031  -8.315  1.00  0.00     0.181 C
HETATM    4  C10 UNL     1      13.259  -1.348  -6.882  1.00  0.00     0.187 C
ENDROOT
BRANCH   4   5
HETATM    5  O4  UNL     1      12.680  -2.589  -6.841  1.00  0.00    -0.348 OA
BRANCH   5   6
HETATM    6  C11 UNL     1      11.753  -2.662  -5.806  1.00  0.00     0.294 C
HETATM    7  O5  UNL     1      12.322  -3.457  -4.814  1.00  0.00    -0.326 OA
HETATM    8  C12 UNL     1      11.525  -3.475  -3.655  1.00  0.00     0.291 C
HETATM    9  C13 UNL     1      10.058  -3.565  -4.008  1.00  0.00     0.204 C
HETATM   10  C14 UNL     1       9.979  -4.271  -5.354  1.00  0.00     0.185 C
HETATM   11  C15 UNL     1      10.504  -3.300  -6.391  1.00  0.00     0.204 C
BRANCH   8  12
HETATM   12  O6  UNL     1      11.821  -2.424  -2.820  1.00  0.00    -0.368 OA
ATOM     13  H6  UNL     1      12.252  -2.718  -2.026  1.00  0.00     0.212 HD
ENDBRANCH   8  12
BRANCH   9  14
HETATM   14  O7  UNL     1       9.466  -2.333  -4.154  1.00  0.00    -0.388 OA
ATOM     15  H7  UNL     1       8.523  -2.361  -4.050  1.00  0.00     0.210 HD
ENDBRANCH   9  14
BRANCH  10  16
HETATM   16  O8  UNL     1       8.681  -4.680  -5.614  1.00  0.00    -0.390 OA
ATOM     17  H8  UNL     1       8.329  -4.216  -6.364  1.00  0.00     0.210 HD
ENDBRANCH  10  16
BRANCH  11  18
HETATM   18  O9  UNL     1       9.574  -2.377  -6.799  1.00  0.00    -0.388 OA
ATOM     19  H9  UNL     1       9.146  -2.619  -7.611  1.00  0.00     0.210 HD
ENDBRANCH  11  18
ENDBRANCH   5   6
ENDBRANCH   4   5
BRANCH   1  20
HETATM   20  O1  UNL     1      15.233  -2.655  -6.688  1.00  0.00    -0.373 OA
BRANCH  20  21
HETATM   21  C6  UNL     1      16.268  -3.025  -5.886  1.00  0.00     0.149 C
HETATM   22  C5  UNL     1      16.725  -2.002  -4.903  1.00  0.00     0.076 C
HETATM   23  C3  UNL     1      17.267  -2.853  -3.773  1.00  0.00     0.077 C
HETATM   24  C4  UNL     1      18.752  -2.588  -3.620  1.00  0.00     0.050 C
HETATM   25  O10 UNL     1      17.119  -4.175  -4.163  1.00  0.00    -0.374 OA
HETATM   26  C16 UNL     1      15.991  -4.212  -4.997  1.00  0.00     0.201 C
BRANCH  23  27
HETATM   27  C2  UNL     1      16.534  -2.554  -2.512  1.00  0.00     0.000 C
HETATM   28  C1  UNL     1      16.396  -1.333  -2.085  1.00  0.00     0.010 C
ENDBRANCH  23  27
ENDBRANCH  20  21
ENDBRANCH   1  20
BRANCH   3  29
HETATM   29  O3  UNL     1      14.028  -2.151  -9.058  1.00  0.00    -0.390 OA
ATOM     30  H3  UNL     1      14.105  -2.905  -8.486  1.00  0.00     0.210 HD
ENDBRANCH   3  29
BRANCH   2  31
HETATM   31  O2  UNL     1      16.096  -0.695  -8.430  1.00  0.00    -0.390 OA
ATOM     32  H2  UNL     1      16.182  -1.583  -8.756  1.00  0.00     0.210 HD
ENDBRANCH   2  31
TORSDOF 11
ENDMDL