MODEL 1
REMARK VINA RESULT: -7.226089858      0.000      0.000
REMARK  9 active torsions:
REMARK  status: ('A' for Active; 'I' for Inactive)
REMARK    1  A    between atoms: C3_3  and  C4_4
REMARK    2  A    between atoms: C4_4  and  O1_5
REMARK    3  A    between atoms: C5_8  and  C6_9
REMARK    4  A    between atoms: C5_8  and  C7_15
REMARK    5  A    between atoms: C6_9  and  O3_10
REMARK    6  A    between atoms: O3_10  and  S1_11
REMARK    7  A    between atoms: C9_19  and  O9_20
REMARK    8  A    between atoms: C10_22  and  O10_23
REMARK    9  A    between atoms: C10_22  and  C11_25
ROOT
HETATM    1  C1  UNL     1       8.771  -4.127  -2.950  1.00  0.00     0.112 C
HETATM    2  C2  UNL     1      10.216  -3.993  -3.191  1.00  0.00    -0.105 C
HETATM    3  C3  UNL     1      11.403  -3.886  -3.394  1.00  0.00    -0.035 C
ENDROOT
BRANCH   3   4
HETATM    4  C4  UNL     1      12.855  -3.752  -3.641  1.00  0.00     0.277 C
HETATM    5  O2  UNL     1      13.441  -3.334  -2.486  1.00  0.00    -0.317 OA
HETATM    6  C5  UNL     1      14.778  -3.002  -2.549  1.00  0.00     0.178 C
HETATM    7  C8  UNL     1      15.187  -2.251  -3.765  1.00  0.00     0.087 C
HETATM    8  C9  UNL     1      14.490  -2.678  -5.038  1.00  0.00     0.173 C
HETATM    9  C10 UNL     1      12.993  -2.673  -4.693  1.00  0.00     0.241 C
BRANCH   4  10
HETATM   10  O1  UNL     1      13.369  -4.917  -4.190  1.00  0.00    -0.353 OA
ATOM     11  H1  UNL     1      14.319  -4.908  -4.172  1.00  0.00     0.214 HD
ENDBRANCH   4  10
BRANCH   6  12
HETATM   12  C6  UNL     1      14.988  -2.045  -1.359  1.00  0.00     0.242 C
BRANCH  12  13
HETATM   13  O3  UNL     1      15.794  -0.984  -1.727  1.00  0.00    -0.253 OA
BRANCH  13  14
HETATM   14  S1  UNL     1      16.707  -0.440  -0.453  1.00  0.00     0.251 S
HETATM   15  O4  UNL     1      18.158  -0.584  -0.809  1.00  0.00    -0.572 OA
HETATM   16  O5  UNL     1      16.459   1.024  -0.158  1.00  0.00    -0.572 OA
HETATM   17  O6  UNL     1      16.318  -1.369   0.898  1.00  0.00    -0.572 OA
ENDBRANCH  13  14
ENDBRANCH  12  13
ENDBRANCH   6  12
BRANCH   6  18
HETATM   18  C7  UNL     1      15.651  -4.169  -2.258  1.00  0.00     0.211 C
HETATM   19  O7  UNL     1      15.345  -5.049  -1.410  1.00  0.00    -0.646 OA
HETATM   20  O8  UNL     1      16.851  -4.333  -2.921  1.00  0.00    -0.646 OA
ENDBRANCH   6  18
BRANCH   8  21
HETATM   21  O9  UNL     1      14.786  -1.759  -6.017  1.00  0.00    -0.392 OA
ATOM     22  H9  UNL     1      13.991  -1.583  -6.507  1.00  0.00     0.210 HD
ENDBRANCH   8  21
BRANCH   9  23
HETATM   23  O10 UNL     1      12.714  -1.443  -4.127  1.00  0.00    -0.372 OA
ATOM     24  H10 UNL     1      13.514  -0.934  -4.069  1.00  0.00     0.211 HD
ENDBRANCH   9  23
BRANCH   9  25
HETATM   25  C11 UNL     1      12.161  -2.902  -5.877  1.00  0.00     0.218 C
HETATM   26  O11 UNL     1      12.348  -3.900  -6.619  1.00  0.00    -0.645 OA
HETATM   27  O12 UNL     1      11.138  -2.032  -6.226  1.00  0.00    -0.645 OA
ENDBRANCH   9  25
ENDBRANCH   3   4
TORSDOF 9
ENDMDL