MODEL 3
REMARK VINA RESULT: -7.516747472      2.611      6.759
REMARK  8 active torsions:
REMARK  status: ('A' for Active; 'I' for Inactive)
REMARK    1  A    between atoms: S1_2  and  N1_5
REMARK    2  A    between atoms: N1_5  and  C2_7
REMARK    3  A    between atoms: C4_11  and  O5_12
REMARK    4  A    between atoms: O5_12  and  C5_13
REMARK    5  A    between atoms: C7_15  and  N2_16
REMARK    6  A    between atoms: C9_20  and  O6_21
REMARK    7  A    between atoms: C10_23  and  N4_24
REMARK    8  A    between atoms: C12_29  and  N5_30
ROOT
HETATM    1  N2  UNL     1      17.981   0.720  -1.190  1.00  0.00    -0.321 N
ATOM      2  H2  UNL     1      18.469   1.615  -1.213  1.00  0.00     0.172 HD
HETATM    3  C8  UNL     1      17.387   0.259   0.011  1.00  0.00     0.177 C
HETATM    4  N3  UNL     1      16.899  -0.113   0.989  1.00  0.00    -0.172 NA
ENDROOT
BRANCH   1   5
HETATM    5  C7  UNL     1      17.891  -0.095  -2.388  1.00  0.00     0.125 C
HETATM    6  C6  UNL     1      17.169  -1.393  -2.103  1.00  0.00     0.062 C
HETATM    7  C5  UNL     1      16.254  -1.718  -3.285  1.00  0.00     0.157 C
HETATM    8  C12 UNL     1      16.993  -1.494  -4.565  1.00  0.00     0.214 C
HETATM    9  C11 UNL     1      18.430  -1.991  -4.488  1.00  0.00     0.070 C
HETATM   10  C10 UNL     1      19.332  -0.781  -4.337  1.00  0.00     0.216 C
HETATM   11  C9  UNL     1      19.277  -0.325  -2.919  1.00  0.00     0.172 C
BRANCH   7  12
HETATM   12  O5  UNL     1      15.840  -3.039  -3.221  1.00  0.00    -0.349 OA
BRANCH  12  13
HETATM   13  C4  UNL     1      14.522  -3.200  -2.895  1.00  0.00     0.312 C
HETATM   14  C2  UNL     1      13.884  -4.166  -3.838  1.00  0.00     0.288 C
HETATM   15  O3  UNL     1      14.243  -5.410  -3.292  1.00  0.00    -0.337 OA
HETATM   16  C3  UNL     1      14.041  -5.185  -1.951  1.00  0.00     0.344 C
HETATM   17  O4  UNL     1      14.391  -3.892  -1.656  1.00  0.00    -0.333 OA
BRANCH  14  18
HETATM   18  N1  UNL     1      12.446  -4.024  -3.906  1.00  0.00    -0.287 N
ATOM     19  H1  UNL     1      11.759  -4.598  -3.417  1.00  0.00     0.175 HD
BRANCH  18  20
HETATM   20  S1  UNL     1      12.108  -2.709  -4.963  1.00  0.00     0.224 S
HETATM   21  C1  UNL     1      10.759  -3.188  -6.009  1.00  0.00     0.186 C
HETATM   22  O1  UNL     1      11.809  -1.447  -4.211  1.00  0.00    -0.206 OA
HETATM   23  O2  UNL     1      13.298  -2.428  -5.834  1.00  0.00    -0.206 OA
ENDBRANCH  18  20
ENDBRANCH  14  18
ENDBRANCH  12  13
ENDBRANCH   7  12
BRANCH   8  24
HETATM   24  N5  UNL     1      16.372  -2.197  -5.665  1.00  0.00    -0.072 N
ATOM     25  H53 UNL     1      16.921  -2.109  -6.521  1.00  0.00     0.274 HD
ATOM     26  H52 UNL     1      16.431  -3.208  -5.542  1.00  0.00     0.274 HD
ATOM     27  H51 UNL     1      15.408  -1.893  -5.806  1.00  0.00     0.274 HD
ENDBRANCH   8  24
BRANCH  10  28
HETATM   28  N4  UNL     1      18.969   0.259  -5.255  1.00  0.00    -0.072 N
ATOM     29  H43 UNL     1      19.174   1.180  -4.867  1.00  0.00     0.274 HD
ATOM     30  H42 UNL     1      19.597   0.277  -6.058  1.00  0.00     0.274 HD
ATOM     31  H41 UNL     1      17.995   0.192  -5.548  1.00  0.00     0.274 HD
ENDBRANCH  10  28
BRANCH  11  32
HETATM   32  O6  UNL     1      19.881  -1.294  -2.099  1.00  0.00    -0.391 OA
ATOM     33  H6  UNL     1      20.233  -1.965  -2.671  1.00  0.00     0.210 HD
ENDBRANCH  11  32
ENDBRANCH   1   5
TORSDOF 8
ENDMDL