MODEL 1
REMARK VINA RESULT: -7.805071009      0.000      0.000
REMARK  10 active torsions:
REMARK  status: ('A' for Active; 'I' for Inactive)
REMARK    1  A    between atoms: N1_1  and  C1_4
REMARK    2  A    between atoms: C3_8  and  C4_9
REMARK    3  A    between atoms: C5_10  and  C6_11
REMARK    4  A    between atoms: C7_12  and  N3_13
REMARK    5  A    between atoms: N3_13  and  O1_15
REMARK    6  A    between atoms: O1_15  and  C8_16
REMARK    7  A    between atoms: C8_16  and  C9_18
REMARK    8  A    between atoms: N4_20  and  C10_21
REMARK    9  A    between atoms: C10_21  and  C11_22
REMARK   10  A    between atoms: C11_22  and  O4_23
ROOT
HETATM    1  C6  UNL     1      14.727  -2.162  -5.610  1.00  0.00     0.132 A
HETATM    2  C7  UNL     1      14.926  -2.464  -4.250  1.00  0.00     0.156 A
HETATM    3  N4  UNL     1      16.170  -2.285  -3.806  1.00  0.00    -0.280 N
HETATM    4  C12 UNL     1      17.175  -1.836  -4.644  1.00  0.00     0.331 A
HETATM    5  O5  UNL     1      18.341  -1.688  -4.156  1.00  0.00    -0.246 OA
HETATM    6  N5  UNL     1      16.986  -1.552  -5.927  1.00  0.00    -0.274 N
ATOM      7  H5  UNL     1      17.751  -1.223  -6.516  1.00  0.00     0.173 HD
HETATM    8  C13 UNL     1      15.753  -1.715  -6.416  1.00  0.00     0.272 A
HETATM    9  O6  UNL     1      15.488  -1.469  -7.626  1.00  0.00    -0.266 OA
ENDROOT
BRANCH   1  10
HETATM   10  C5  UNL     1      13.392  -2.343  -6.129  1.00  0.00    -0.051 C
HETATM   11  C4  UNL     1      12.278  -2.517  -6.564  1.00  0.00    -0.054 C
BRANCH  11  12
HETATM   12  C3  UNL     1      10.949  -2.737  -7.059  1.00  0.00     0.102 A
HETATM   13  C2  UNL     1      10.131  -3.736  -6.556  1.00  0.00     0.132 A
HETATM   14  N2  UNL     1       8.877  -3.932  -7.031  1.00  0.00    -0.201 N
HETATM   15  C1  UNL     1       8.405  -3.154  -8.006  1.00  0.00     0.678 A
ATOM     16  H2  UNL     1       8.295  -4.675  -6.643  1.00  0.00     0.183 HD
HETATM   17  N6  UNL     1       9.175  -2.181  -8.510  1.00  0.00    -0.155 N
HETATM   18  C14 UNL     1      10.425  -1.953  -8.066  1.00  0.00     0.279 A
ATOM     19  H6  UNL     1       8.802  -1.592  -9.255  1.00  0.00     0.187 HD
HETATM   20  O7  UNL     1      11.145  -1.027  -8.554  1.00  0.00    -0.266 OA
BRANCH  15  21
HETATM   21  N1  UNL     1       7.200  -3.344  -8.461  1.00  0.00    -0.234 N
ATOM     22  H12 UNL     1       6.404  -2.877  -8.027  1.00  0.00     0.174 HD
ATOM     23  H11 UNL     1       7.048  -3.966  -9.256  1.00  0.00     0.174 HD
ENDBRANCH  15  21
ENDBRANCH  11  12
ENDBRANCH   1  10
BRANCH   2  24
HETATM   24  N3  UNL     1      13.859  -2.904  -3.482  1.00  0.00    -0.239 N
ATOM     25  H3  UNL     1      13.830  -3.917  -3.364  1.00  0.00     0.196 HD
BRANCH  24  26
HETATM   26  O1  UNL     1      12.858  -2.261  -2.864  1.00  0.00    -0.191 OA
BRANCH  26  27
HETATM   27  C8  UNL     1      11.537  -2.274  -3.203  1.00  0.00     0.342 C
HETATM   28  O2  UNL     1      11.035  -1.196  -3.639  1.00  0.00    -0.255 OA
BRANCH  27  29
HETATM   29  C9  UNL     1      10.730  -3.491  -3.067  1.00  0.00     0.342 C
HETATM   30  O3  UNL     1      11.315  -4.573  -2.825  1.00  0.00    -0.296 OA
ENDBRANCH  27  29
ENDBRANCH  26  27
ENDBRANCH  24  26
ENDBRANCH   2  24
BRANCH   3  31
HETATM   31  C10 UNL     1      16.521  -2.548  -2.453  1.00  0.00     0.161 C
BRANCH  31  32
HETATM   32  C11 UNL     1      16.273  -1.264  -1.657  1.00  0.00     0.184 C
BRANCH  32  33
HETATM   33  O4  UNL     1      15.051  -1.325  -0.986  1.00  0.00    -0.399 OA
ATOM     34  H4  UNL     1      15.048  -0.744  -0.234  1.00  0.00     0.209 HD
ENDBRANCH  32  33
ENDBRANCH  31  32
ENDBRANCH   3  31
TORSDOF 10
ENDMDL