MODEL 1
REMARK VINA RESULT: -8.628791165      0.000      0.000
REMARK  11 active torsions:
REMARK  status: ('A' for Active; 'I' for Inactive)
REMARK    1  A    between atoms: N1_1  and  C1_5
REMARK    2  A    between atoms: C1_5  and  C2_6
REMARK    3  A    between atoms: C2_6  and  N2_7
REMARK    4  A    between atoms: N2_7  and  C3_9
REMARK    5  A    between atoms: C4_12  and  N4_13
REMARK    6  A    between atoms: N4_13  and  N5_15
REMARK    7  A    between atoms: C5_22  and  N8_23
REMARK    8  A    between atoms: N8_23  and  N9_25
REMARK    9  A    between atoms: N10_26  and  O1_27
REMARK   10  A    between atoms: C6_29  and  N11_30
REMARK   11  A    between atoms: N11_30  and  C7_32
ROOT
HETATM    1  C3  UNL     1      10.661  -2.455  -5.656  1.00  0.00     0.164 A
HETATM    2  N3  UNL     1      10.024  -2.215  -6.797  1.00  0.00    -0.170 N
ATOM      3  H3  UNL     1       9.018  -2.367  -6.867  1.00  0.00     0.186 HD
HETATM    4  C4  UNL     1      10.720  -1.769  -7.859  1.00  0.00     0.712 A
HETATM    5  N6  UNL     1      12.050  -1.554  -7.810  1.00  0.00    -0.129 N
ATOM      6  H6  UNL     1      12.558  -1.215  -8.627  1.00  0.00     0.205 HD
HETATM    7  N7  UNL     1      12.677  -1.796  -6.670  1.00  0.00    -0.267 N
ATOM      8  H7  UNL     1      13.683  -1.638  -6.616  1.00  0.00     0.189 HD
HETATM    9  C5  UNL     1      12.028  -2.242  -5.581  1.00  0.00     0.178 A
ENDROOT
BRANCH   9  10
HETATM   10  N8  UNL     1      12.729  -2.495  -4.362  1.00  0.00    -0.265 N
ATOM     11  H8  UNL     1      12.563  -1.915  -3.540  1.00  0.00     0.185 HD
BRANCH  10  12
HETATM   12  N9  UNL     1      13.646  -3.547  -4.315  1.00  0.00     0.040 NA
HETATM   13  N10 UNL     1      14.911  -3.000  -4.049  1.00  0.00     0.030 N
HETATM   14  C6  UNL     1      15.107  -2.624  -2.726  1.00  0.00     0.729 C
HETATM   15  N12 UNL     1      14.396  -3.249  -1.855  1.00  0.00    -0.098 N
HETATM   16  S1  UNL     1      13.427  -4.375  -2.783  1.00  0.00     0.354 S
ATOM     17  H12 UNL     1      14.397  -3.118  -0.844  1.00  0.00     0.199 HD
HETATM   18  O2  UNL     1      14.093  -5.696  -2.777  1.00  0.00    -0.184 OA
HETATM   19  O3  UNL     1      12.019  -4.378  -2.353  1.00  0.00    -0.184 OA
BRANCH  13  20
HETATM   20  O1  UNL     1      15.828  -2.878  -5.068  1.00  0.00    -0.256 OA
ATOM     21  H1  UNL     1      15.827  -2.100  -5.612  1.00  0.00     0.247 HD
ENDBRANCH  13  20
BRANCH  14  22
HETATM   22  N11 UNL     1      16.039  -1.604  -2.326  1.00  0.00    -0.218 N
ATOM     23  H11 UNL     1      16.807  -1.352  -2.949  1.00  0.00     0.178 HD
BRANCH  22  24
HETATM   24  C7  UNL     1      15.902  -0.924  -1.045  1.00  0.00     0.099 A
HETATM   25  C8  UNL     1      17.028  -0.885  -0.099  1.00  0.00     0.028 A
HETATM   26  C9  UNL     1      16.642   0.350  -0.819  1.00  0.00     0.028 A
ENDBRANCH  22  24
ENDBRANCH  14  22
ENDBRANCH  10  12
ENDBRANCH   9  10
BRANCH   1  27
HETATM   27  N2  UNL     1      10.082  -2.886  -4.576  1.00  0.00    -0.371 N
ATOM     28  H2  UNL     1      10.000  -2.300  -3.744  1.00  0.00     0.161 HD
BRANCH  27  29
HETATM   29  C2  UNL     1       9.559  -4.238  -4.607  1.00  0.00     0.148 C
BRANCH  29  30
HETATM   30  C1  UNL     1       8.908  -4.586  -3.272  1.00  0.00     0.249 C
BRANCH  30  31
HETATM   31  N1  UNL     1       7.475  -4.595  -3.491  1.00  0.00    -0.078 N
ATOM     32  H13 UNL     1       7.215  -4.874  -4.438  1.00  0.00     0.274 HD
ATOM     33  H12 UNL     1       6.998  -5.351  -2.999  1.00  0.00     0.274 HD
ATOM     34  H11 UNL     1       7.129  -3.671  -3.237  1.00  0.00     0.274 HD
ENDBRANCH  30  31
ENDBRANCH  29  30
ENDBRANCH  27  29
ENDBRANCH   1  27
BRANCH   4  35
HETATM   35  N4  UNL     1      10.055  -1.551  -8.946  1.00  0.00    -0.137 N
ATOM     36  H4  UNL     1      10.369  -0.841  -9.608  1.00  0.00     0.205 HD
BRANCH  35  37
HETATM   37  N5  UNL     1       8.916  -2.287  -9.202  1.00  0.00    -0.331 N
ATOM     38  H52 UNL     1       8.851  -3.244  -8.855  1.00  0.00     0.177 HD
ATOM     39  H51 UNL     1       8.155  -1.864  -9.735  1.00  0.00     0.177 HD
ENDBRANCH  35  37
ENDBRANCH   4  35
TORSDOF 11
ENDMDL