MODEL 2
REMARK VINA RESULT: -9.744141037      2.215      3.392
REMARK  9 active torsions:
REMARK  status: ('A' for Active; 'I' for Inactive)
REMARK    1  A    between atoms: N2_3  and  C2_5
REMARK    2  A    between atoms: C4_7  and  C5_8
REMARK       I    between atoms: C5_8  and  N3_10
REMARK    3  A    between atoms: N3_10  and  C6_12
REMARK    4  A    between atoms: C6_12  and  C7_13
REMARK    5  A    between atoms: C7_13  and  N4_14
REMARK    6  A    between atoms: C8_16  and  C9_17
REMARK    7  A    between atoms: N5_19  and  N6_20
REMARK    8  A    between atoms: C13_31  and  N9_32
REMARK    9  A    between atoms: N9_32  and  O4_34
ROOT
HETATM    1  N1  UNL     1       8.152  -2.700  -9.164  1.00  0.00    -0.172 NA
HETATM    2  C1  UNL     1       8.941  -2.292  -8.415  1.00  0.00     0.183 C
HETATM    3  N2  UNL     1       9.875  -1.794  -7.504  1.00  0.00    -0.279 N
ATOM      4  H2  UNL     1      10.125  -0.806  -7.547  1.00  0.00     0.179 HD
ENDROOT
BRANCH   3   5
HETATM    5  C2  UNL     1      10.435  -2.538  -6.610  1.00  0.00     0.132 A
HETATM    6  C3  UNL     1      11.821  -2.658  -6.530  1.00  0.00     0.085 A
HETATM    7  C4  UNL     1      12.410  -3.452  -5.575  1.00  0.00     0.120 A
HETATM    8  N8  UNL     1      11.557  -4.095  -4.736  1.00  0.00    -0.184 N
HETATM    9  C13 UNL     1      10.221  -3.983  -4.807  1.00  0.00     0.704 A
ATOM     10  H8  UNL     1      11.953  -4.694  -4.012  1.00  0.00     0.184 HD
HETATM   11  N10 UNL     1       9.666  -3.203  -5.746  1.00  0.00    -0.174 N
ATOM     12  H10 UNL     1       8.651  -3.119  -5.801  1.00  0.00     0.186 HD
BRANCH   7  13
HETATM   13  C5  UNL     1      13.843  -3.610  -5.451  1.00  0.00     0.268 C
HETATM   14  O1  UNL     1      14.290  -4.337  -4.524  1.00  0.00    -0.266 OA
HETATM   15  N3  UNL     1      14.774  -2.992  -6.314  1.00  0.00    -0.354 N
ATOM     16  H3  UNL     1      14.433  -2.400  -7.071  1.00  0.00     0.162 HD
BRANCH  15  17
HETATM   17  C6  UNL     1      16.218  -3.179  -6.152  1.00  0.00     0.142 C
BRANCH  17  18
HETATM   18  C7  UNL     1      16.858  -1.841  -5.993  1.00  0.00     0.138 C
BRANCH  18  19
HETATM   19  N4  UNL     1      16.832  -1.331  -4.662  1.00  0.00    -0.396 N
HETATM   20  C8  UNL     1      16.794  -2.018  -3.595  1.00  0.00     0.101 C
ATOM     21  H4  UNL     1      16.845  -0.316  -4.556  1.00  0.00     0.158 HD
BRANCH  20  22
HETATM   22  C9  UNL     1      16.769  -1.444  -2.260  1.00  0.00     0.065 A
HETATM   23  C10 UNL     1      17.724  -0.550  -1.824  1.00  0.00     0.139 A
HETATM   24  N5  UNL     1      17.685  -0.024  -0.576  1.00  0.00    -0.222 N
HETATM   25  C11 UNL     1      16.697  -0.382   0.253  1.00  0.00     0.347 A
HETATM   26  O2  UNL     1      16.644   0.103   1.433  1.00  0.00    -0.245 OA
HETATM   27  N7  UNL     1      15.747  -1.253  -0.142  1.00  0.00    -0.273 N
HETATM   28  C12 UNL     1      15.767  -1.790  -1.382  1.00  0.00     0.262 A
ATOM     29  H7  UNL     1      15.003  -1.512   0.505  1.00  0.00     0.173 HD
HETATM   30  O3  UNL     1      14.879  -2.591  -1.720  1.00  0.00    -0.267 OA
BRANCH  24  31
HETATM   31  N6  UNL     1      18.638   0.882  -0.111  1.00  0.00    -0.335 N
ATOM     32  H62 UNL     1      19.499   0.509   0.290  1.00  0.00     0.177 HD
ATOM     33  H61 UNL     1      18.507   1.892  -0.158  1.00  0.00     0.177 HD
ENDBRANCH  24  31
ENDBRANCH  20  22
ENDBRANCH  18  19
ENDBRANCH  17  18
ENDBRANCH  15  17
ENDBRANCH   7  13
BRANCH   9  34
HETATM   34  N9  UNL     1       9.436  -4.605  -3.996  1.00  0.00    -0.098 N
ATOM     35  H9  UNL     1       9.838  -4.970  -3.133  1.00  0.00     0.213 HD
BRANCH  34  36
HETATM   36  O4  UNL     1       8.114  -4.810  -4.210  1.00  0.00    -0.276 OA
ATOM     37  H4  UNL     1       7.461  -4.885  -3.523  1.00  0.00     0.245 HD
ENDBRANCH  34  36
ENDBRANCH   9  34
ENDBRANCH   3   5
TORSDOF 9
ENDMDL