MODEL 3
REMARK VINA RESULT: -8.876185393      1.523      2.282
REMARK  6 active torsions:
REMARK  status: ('A' for Active; 'I' for Inactive)
REMARK    1  A    between atoms: N1_2  and  C2_4
REMARK    2  A    between atoms: N3_7  and  C3_8
REMARK    3  A    between atoms: C3_8  and  C4_9
REMARK    4  A    between atoms: C4_9  and  N4_10
REMARK    5  A    between atoms: N5_13  and  C7_14
REMARK    6  A    between atoms: C8_17  and  N7_18
ROOT
HETATM    1  N4  UNL     1      14.045  -3.404  -4.416  1.00  0.00     0.109 N
HETATM    2  C5  UNL     1      14.853  -4.566  -4.211  1.00  0.00     0.294 C
HETATM    3  C6  UNL     1      16.178  -4.077  -3.634  1.00  0.00     0.156 C
HETATM    4  N5  UNL     1      15.891  -2.645  -3.454  1.00  0.00    -0.338 N
HETATM    5  C11 UNL     1      14.998  -2.360  -4.594  1.00  0.00     0.399 C
ENDROOT
BRANCH   1   6
HETATM    6  C4  UNL     1      13.029  -3.540  -5.388  1.00  0.00     0.296 C
BRANCH   6   7
HETATM    7  C3  UNL     1      11.629  -3.380  -4.911  1.00  0.00     0.184 C
BRANCH   7   8
HETATM    8  N3  UNL     1      10.787  -3.101  -6.053  1.00  0.00    -0.239 N
HETATM    9  N2  UNL     1      11.148  -2.211  -6.959  1.00  0.00    -0.275 N
HETATM   10  C2  UNL     1      10.393  -1.943  -8.027  1.00  0.00     0.185 A
ATOM     11  H2  UNL     1      12.030  -1.714  -6.841  1.00  0.00     0.189 HD
HETATM   12  C13 UNL     1       9.200  -2.632  -8.163  1.00  0.00     0.294 A
HETATM   13  N10 UNL     1       8.827  -3.537  -7.247  1.00  0.00    -0.271 N
HETATM   14  O3  UNL     1       8.466  -2.403  -9.157  1.00  0.00    -0.264 OA
HETATM   15  C12 UNL     1       9.635  -3.768  -6.182  1.00  0.00     0.344 A
ATOM     16  H10 UNL     1       7.948  -4.044  -7.349  1.00  0.00     0.174 HD
HETATM   17  O2  UNL     1       9.318  -4.608  -5.305  1.00  0.00    -0.245 OA
BRANCH  10  18
HETATM   18  N1  UNL     1      10.769  -0.980  -9.024  1.00  0.00    -0.375 N
HETATM   19  C1  UNL     1      12.170  -0.835  -9.361  1.00  0.00     0.148 C
ATOM     20  H1  UNL     1      10.063  -0.408  -9.488  1.00  0.00     0.160 HD
ENDBRANCH  10  18
ENDBRANCH   7   8
ENDBRANCH   6   7
ENDBRANCH   1   6
BRANCH   4  21
HETATM   21  C7  UNL     1      16.337  -1.772  -2.448  1.00  0.00     0.150 A
HETATM   22  N6  UNL     1      15.744  -1.604  -1.256  1.00  0.00    -0.175 N
HETATM   23  C8  UNL     1      16.192  -0.766  -0.320  1.00  0.00     0.680 A
ATOM     24  H6  UNL     1      14.904  -2.146  -1.054  1.00  0.00     0.186 HD
HETATM   25  N8  UNL     1      17.309  -0.035  -0.569  1.00  0.00    -0.155 N
HETATM   26  C9  UNL     1      17.969  -0.138  -1.737  1.00  0.00     0.287 A
ATOM     27  H8  UNL     1      17.655   0.607   0.144  1.00  0.00     0.187 HD
HETATM   28  O1  UNL     1      19.008   0.536  -1.981  1.00  0.00    -0.265 OA
HETATM   29  C10 UNL     1      17.471  -1.019  -2.681  1.00  0.00     0.159 A
HETATM   30  N9  UNL     1      18.142  -1.160  -3.915  1.00  0.00    -0.092 NA
BRANCH  23  31
HETATM   31  N7  UNL     1      15.611  -0.603   0.839  1.00  0.00    -0.234 N
ATOM     32  H72 UNL     1      16.211  -0.437   1.647  1.00  0.00     0.174 HD
ATOM     33  H71 UNL     1      14.600  -0.630   0.969  1.00  0.00     0.174 HD
ENDBRANCH  23  31
ENDBRANCH   4  21
TORSDOF 6
ENDMDL