MODEL 5
REMARK VINA RESULT: -7.338761251      3.028      6.366
REMARK  10 active torsions:
REMARK  status: ('A' for Active; 'I' for Inactive)
REMARK    1  A    between atoms: S1_2  and  O4_5
REMARK    2  A    between atoms: O4_5  and  C1_6
REMARK    3  A    between atoms: C1_6  and  C2_7
REMARK    4  A    between atoms: C4_9  and  O5_10
REMARK    5  A    between atoms: O5_10  and  C5_11
REMARK    6  A    between atoms: C7_14  and  O7_15
REMARK    7  A    between atoms: C8_17  and  O8_18
REMARK    8  A    between atoms: C9_20  and  O9_21
REMARK    9  A    between atoms: C10_23  and  O10_24
REMARK   10  A    between atoms: C11_26  and  O11_27
ROOT
HETATM    1  C2  UNL     1      11.759  -2.041   6.166  1.00  0.00     0.045 C
HETATM    2  C3  UNL     1      10.326  -2.454   6.113  1.00  0.00     0.044 C
HETATM    3  C4  UNL     1      10.133  -3.690   6.971  1.00  0.00     0.156 C
HETATM    4  C9  UNL     1      10.928  -4.866   6.448  1.00  0.00     0.178 C
HETATM    5  C10 UNL     1      12.106  -4.459   5.619  1.00  0.00     0.178 C
HETATM    6  C11 UNL     1      12.733  -3.172   6.095  1.00  0.00     0.155 C
ENDROOT
BRANCH   3   7
HETATM    7  O5  UNL     1       8.778  -4.008   6.993  1.00  0.00    -0.351 OA
BRANCH   7   8
HETATM    8  C5  UNL     1       8.404  -4.271   8.279  1.00  0.00     0.291 C
HETATM    9  O6  UNL     1       9.332  -3.914   9.235  1.00  0.00    -0.356 OA
HETATM   10  C6  UNL     1       8.680  -4.041  10.443  1.00  0.00     0.205 C
HETATM   11  C7  UNL     1       7.223  -3.742  10.216  1.00  0.00     0.175 C
HETATM   12  C8  UNL     1       7.203  -3.421   8.716  1.00  0.00     0.204 C
BRANCH  11  13
HETATM   13  O7  UNL     1       6.512  -4.930  10.379  1.00  0.00    -0.391 OA
ATOM     14  H7  UNL     1       5.661  -4.819   9.971  1.00  0.00     0.210 HD
ENDBRANCH  11  13
BRANCH  12  15
HETATM   15  O8  UNL     1       7.487  -2.066   8.547  1.00  0.00    -0.388 OA
ATOM     16  H8  UNL     1       6.989  -1.716   7.818  1.00  0.00     0.210 HD
ENDBRANCH  12  15
ENDBRANCH   7   8
ENDBRANCH   3   7
BRANCH   4  17
HETATM   17  O9  UNL     1      11.277  -5.677   7.522  1.00  0.00    -0.390 OA
ATOM     18  H9  UNL     1      10.945  -5.282   8.319  1.00  0.00     0.210 HD
ENDBRANCH   4  17
BRANCH   1  19
HETATM   19  C1  UNL     1      12.027  -1.118   4.980  1.00  0.00     0.200 C
BRANCH  19  20
HETATM   20  O4  UNL     1      12.930  -0.120   5.317  1.00  0.00    -0.257 OA
BRANCH  20  21
HETATM   21  S1  UNL     1      12.183   1.353   5.003  1.00  0.00     0.251 S
HETATM   22  O1  UNL     1      10.681   1.161   5.012  1.00  0.00    -0.572 OA
HETATM   23  O2  UNL     1      12.474   2.339   6.120  1.00  0.00    -0.572 OA
HETATM   24  O3  UNL     1      12.673   1.987   3.516  1.00  0.00    -0.572 OA
ENDBRANCH  20  21
ENDBRANCH  19  20
ENDBRANCH   1  19
BRANCH   5  25
HETATM   25  O10 UNL     1      11.711  -4.322   4.298  1.00  0.00    -0.390 OA
ATOM     26  H10 UNL     1      12.300  -4.819   3.742  1.00  0.00     0.210 HD
ENDBRANCH   5  25
BRANCH   6  27
HETATM   27  O11 UNL     1      13.320  -3.331   7.343  1.00  0.00    -0.392 OA
ATOM     28  H11 UNL     1      13.815  -4.141   7.345  1.00  0.00     0.210 HD
ENDBRANCH   6  27
TORSDOF 10
ENDMDL