MODEL 5
REMARK VINA RESULT: -7.826324178      1.634      2.419
REMARK  10 active torsions:
REMARK  status: ('A' for Active; 'I' for Inactive)
REMARK    1  A    between atoms: O1_1  and  C1_3
REMARK    2  A    between atoms: C3_6  and  O3_7
REMARK    3  A    between atoms: O3_7  and  C4_8
REMARK    4  A    between atoms: C6_11  and  O5_12
REMARK    5  A    between atoms: O5_12  and  C7_13
REMARK    6  A    between atoms: C7_13  and  C8_14
REMARK    7  A    between atoms: C10_17  and  O7_18
REMARK    8  A    between atoms: C11_20  and  O8_21
REMARK    9  A    between atoms: C12_23  and  O9_24
REMARK   10  A    between atoms: C14_27  and  O10_28
ROOT
HETATM    1  C4  UNL     1       9.231  -5.100   8.308  1.00  0.00     0.153 C
HETATM    2  C5  UNL     1       8.092  -4.667   7.416  1.00  0.00     0.203 C
HETATM    3  O4  UNL     1       8.345  -3.318   7.182  1.00  0.00    -0.359 OA
HETATM    4  C6  UNL     1       8.669  -2.813   8.462  1.00  0.00     0.262 C
HETATM    5  C13 UNL     1       9.560  -3.855   9.091  1.00  0.00     0.095 C
ENDROOT
BRANCH   4   6
HETATM    6  O5  UNL     1       9.341  -1.586   8.324  1.00  0.00    -0.359 OA
BRANCH   6   7
HETATM    7  C7  UNL     1       9.203  -1.195   7.009  1.00  0.00     0.205 C
BRANCH   7   8
HETATM    8  C8  UNL     1       9.205   0.284   6.805  1.00  0.00     0.176 C
HETATM    9  O6  UNL     1       8.305   0.653   5.831  1.00  0.00    -0.378 OA
HETATM   10  C9  UNL     1       8.502   1.910   5.317  1.00  0.00     0.202 C
HETATM   11  C10 UNL     1       9.410   2.780   6.135  1.00  0.00     0.173 C
HETATM   12  C11 UNL     1      10.762   2.152   6.214  1.00  0.00     0.180 C
HETATM   13  C12 UNL     1      10.612   0.660   6.328  1.00  0.00     0.180 C
BRANCH  11  14
HETATM   14  O7  UNL     1       9.545   3.998   5.446  1.00  0.00    -0.391 OA
ATOM     15  H7  UNL     1       8.861   4.575   5.764  1.00  0.00     0.210 HD
ENDBRANCH  11  14
BRANCH  12  16
HETATM   16  O8  UNL     1      11.578   2.501   5.140  1.00  0.00    -0.390 OA
ATOM     17  H8  UNL     1      11.082   2.688   4.351  1.00  0.00     0.210 HD
ENDBRANCH  12  16
BRANCH  13  18
HETATM   18  O9  UNL     1      10.796   0.014   5.107  1.00  0.00    -0.390 OA
ATOM     19  H9  UNL     1      11.661  -0.378   5.142  1.00  0.00     0.210 HD
ENDBRANCH  13  18
ENDBRANCH   7   8
ENDBRANCH   6   7
ENDBRANCH   4   6
BRANCH   1  20
HETATM   20  O3  UNL     1      10.273  -5.529   7.511  1.00  0.00    -0.351 OA
BRANCH  20  21
HETATM   21  C3  UNL     1      11.254  -4.564   7.505  1.00  0.00     0.291 C
HETATM   22  O2  UNL     1      12.498  -5.026   7.875  1.00  0.00    -0.356 OA
HETATM   23  C2  UNL     1      13.328  -3.953   7.551  1.00  0.00     0.205 C
HETATM   24  C1  UNL     1      12.903  -3.552   6.165  1.00  0.00     0.175 C
HETATM   25  C14 UNL     1      11.485  -4.075   6.091  1.00  0.00     0.204 C
BRANCH  24  26
HETATM   26  O1  UNL     1      12.842  -2.174   6.002  1.00  0.00    -0.391 OA
ATOM     27  H1  UNL     1      11.964  -1.867   5.810  1.00  0.00     0.210 HD
ENDBRANCH  24  26
BRANCH  25  28
HETATM   28  O10 UNL     1      11.419  -5.187   5.251  1.00  0.00    -0.388 OA
ATOM     29  H10 UNL     1      10.708  -5.758   5.514  1.00  0.00     0.210 HD
ENDBRANCH  25  28
ENDBRANCH  20  21
ENDBRANCH   1  20
TORSDOF 10
ENDMDL