MODEL 3
REMARK VINA RESULT: -6.292506258      2.050      3.238
REMARK  9 active torsions:
REMARK  status: ('A' for Active; 'I' for Inactive)
REMARK    1  A    between atoms: O1_2  and  C2_3
REMARK    2  A    between atoms: C2_3  and  C3_4
REMARK    3  A    between atoms: N2_8  and  O3_9
REMARK    4  A    between atoms: O3_9  and  S1_10
REMARK    5  A    between atoms: C6_16  and  C7_17
REMARK    6  A    between atoms: C8_21  and  O8_22
REMARK    7  A    between atoms: C8_21  and  C9_24
REMARK    8  A    between atoms: C9_24  and  O9_25
REMARK    9  A    between atoms: C9_24  and  O10_27
ROOT
HETATM    1  C2  UNL     1      11.586  -4.543   7.470  1.00  0.00     0.193 C
HETATM    2  C4  UNL     1      11.500  -3.367   8.530  1.00  0.00     0.212 C
HETATM    3  N2  UNL     1      10.319  -2.638   8.137  1.00  0.00    -0.202 N
HETATM    4  C5  UNL     1      10.087  -2.403   6.773  1.00  0.00     0.257 C
HETATM    5  O7  UNL     1       9.195  -1.594   6.442  1.00  0.00    -0.270 OA
HETATM    6  C6  UNL     1      10.848  -3.067   5.679  1.00  0.00     0.161 C
HETATM    7  C8  UNL     1      12.046  -3.829   6.240  1.00  0.00     0.165 C
ENDROOT
BRANCH   7   8
HETATM    8  O8  UNL     1      12.956  -2.790   6.573  1.00  0.00    -0.380 OA
ATOM      9  H8  UNL     1      13.350  -2.424   5.790  1.00  0.00     0.211 HD
ENDBRANCH   7   8
BRANCH   7  10
HETATM   10  C9  UNL     1      12.611  -4.649   5.140  1.00  0.00     0.293 C
BRANCH  10  11
HETATM   11  O9  UNL     1      13.758  -5.360   5.603  1.00  0.00    -0.368 OA
ATOM     12  H9  UNL     1      14.114  -5.891   4.901  1.00  0.00     0.212 HD
ENDBRANCH  10  11
BRANCH  10  13
HETATM   13  O10 UNL     1      11.779  -5.675   4.680  1.00  0.00    -0.368 OA
ATOM     14  H10 UNL     1      11.274  -5.465   3.903  1.00  0.00     0.212 HD
ENDBRANCH  10  13
ENDBRANCH   7  10
BRANCH   1  15
HETATM   15  O1  UNL     1      10.322  -4.961   7.367  1.00  0.00    -0.371 OA
HETATM   16  C1  UNL     1       9.859  -6.177   7.610  1.00  0.00     0.203 C
ENDBRANCH   1  15
BRANCH   1  17
HETATM   17  C3  UNL     1      12.578  -5.421   8.079  1.00  0.00     0.271 C
HETATM   18  N1  UNL     1      13.858  -4.951   8.404  1.00  0.00    -0.059 NA
HETATM   19  O2  UNL     1      12.304  -6.614   8.320  1.00  0.00    -0.273 OA
ENDBRANCH   1  17
BRANCH   6  20
HETATM   20  C7  UNL     1      11.261  -1.978   4.748  1.00  0.00     0.070 C
HETATM   21  N3  UNL     1      11.613  -0.853   5.247  1.00  0.00    -0.410 N
ATOM     22  H32 UNL     1      11.606  -0.722   6.259  1.00  0.00     0.155 HD
ATOM     23  H31 UNL     1      11.895  -0.109   4.610  1.00  0.00     0.155 HD
ENDBRANCH   6  20
BRANCH   3  24
HETATM   24  O3  UNL     1       9.499  -2.223   9.128  1.00  0.00    -0.127 OA
BRANCH  24  25
HETATM   25  S1  UNL     1       8.293  -3.330   9.457  1.00  0.00     0.274 S
HETATM   26  O4  UNL     1       7.595  -3.802   8.213  1.00  0.00    -0.571 OA
HETATM   27  O5  UNL     1       7.286  -2.616  10.351  1.00  0.00    -0.571 OA
HETATM   28  O6  UNL     1       8.899  -4.609  10.365  1.00  0.00    -0.571 OA
ENDBRANCH  24  25
ENDBRANCH   3  24
TORSDOF 9
ENDMDL