MODEL 5
REMARK VINA RESULT: -8.565530071      1.008      1.618
REMARK  7 active torsions:
REMARK  status: ('A' for Active; 'I' for Inactive)
REMARK       I    between atoms: C1_4  and  N3_6
REMARK       I    between atoms: N3_6  and  C2_8
REMARK    1  A    between atoms: C2_8  and  C3_10
REMARK    2  A    between atoms: C3_10  and  O2_11
REMARK    3  A    between atoms: O2_11  and  C4_12
REMARK    4  A    between atoms: C4_12  and  C5_14
REMARK    5  A    between atoms: C5_14  and  N4_15
REMARK    6  A    between atoms: C5_14  and  C12_28
REMARK    7  A    between atoms: N4_15  and  C6_17
ROOT
HETATM    1  C5  UNL     1      10.992  -2.947   5.593  1.00  0.00     0.282 C
ENDROOT
BRANCH   1   2
HETATM    2  C4  UNL     1      11.926  -4.117   5.481  1.00  0.00     0.292 C
HETATM    3  O3  UNL     1      11.595  -5.220   4.994  1.00  0.00    -0.262 OA
BRANCH   2   4
HETATM    4  O2  UNL     1      13.215  -3.973   5.936  1.00  0.00    -0.310 OA
BRANCH   4   5
HETATM    5  C3  UNL     1      13.587  -4.123   7.285  1.00  0.00     0.281 C
BRANCH   5   6
HETATM    6  C2  UNL     1      14.010  -5.471   7.664  1.00  0.00     0.248 C
HETATM    7  N3  UNL     1      15.207  -6.082   7.261  1.00  0.00    -0.300 N
HETATM    8  C1  UNL     1      15.598  -7.391   7.638  1.00  0.00     0.188 C
ATOM      9  H3  UNL     1      15.835  -5.551   6.658  1.00  0.00     0.171 HD
HETATM   10  N1  UNL     1      16.707  -7.899   7.236  1.00  0.00    -0.373 N
HETATM   11  N2  UNL     1      14.739  -8.170   8.490  1.00  0.00    -0.064 NA
ATOM     12  H12 UNL     1      16.990  -8.841   7.508  1.00  0.00     0.158 HD
ATOM     13  H11 UNL     1      17.316  -7.346   6.632  1.00  0.00     0.158 HD
HETATM   14  O1  UNL     1      13.251  -6.170   8.418  1.00  0.00    -0.271 OA
ENDBRANCH   5   6
ENDBRANCH   4   5
ENDBRANCH   2   4
ENDBRANCH   1   2
BRANCH   1  15
HETATM   15  N4  UNL     1      11.786  -1.806   5.801  1.00  0.00    -0.350 N
ATOM     16  H4  UNL     1      12.615  -1.874   6.391  1.00  0.00     0.158 HD
BRANCH  15  17
HETATM   17  C6  UNL     1      11.462  -0.581   5.216  1.00  0.00     0.520 C
HETATM   18  N5  UNL     1      12.502   0.093   4.464  1.00  0.00    -0.024 N
HETATM   19  C7  UNL     1      12.286   1.537   4.664  1.00  0.00     0.275 C
ATOM     20  H52 UNL     1      13.443  -0.214   4.710  1.00  0.00     0.281 HD
ATOM     21  H51 UNL     1      12.533  -0.181   3.482  1.00  0.00     0.281 HD
HETATM   22  C8  UNL     1      10.854   1.533   5.079  1.00  0.00     0.277 C
HETATM   23  C9  UNL     1      10.367   2.744   5.774  1.00  0.00     0.205 C
HETATM   24  N6  UNL     1      10.872   0.429   6.061  1.00  0.00     0.148 N
HETATM   25  O4  UNL     1       9.011   2.554   6.066  1.00  0.00    -0.387 OA
HETATM   26  C10 UNL     1       8.588   1.262   5.822  1.00  0.00     0.198 C
HETATM   27  C11 UNL     1       9.481   0.191   6.374  1.00  0.00     0.304 C
ENDBRANCH  15  17
ENDBRANCH   1  15
BRANCH   1  28
HETATM   28  C12 UNL     1      10.039  -3.298   6.649  1.00  0.00     0.206 C
HETATM   29  O5  UNL     1       8.944  -3.812   6.362  1.00  0.00    -0.646 OA
HETATM   30  O6  UNL     1      10.347  -3.060   7.967  1.00  0.00    -0.646 OA
ENDBRANCH   1  28
TORSDOF 7
ENDMDL