MODEL 4
REMARK VINA RESULT: -7.045137103      2.410      3.086
REMARK  11 active torsions:
REMARK  status: ('A' for Active; 'I' for Inactive)
REMARK    1  A    between atoms: N1_2  and  C3_4
REMARK    2  A    between atoms: C3_4  and  C4_5
REMARK    3  A    between atoms: C4_5  and  O1_6
REMARK    4  A    between atoms: C4_5  and  O2_8
REMARK    5  A    between atoms: C4_5  and  C5_10
REMARK    6  A    between atoms: C6_11  and  O3_12
REMARK    7  A    between atoms: C7_14  and  N2_15
REMARK    8  A    between atoms: C8_19  and  O4_20
REMARK    9  A    between atoms: O4_20  and  C9_21
REMARK   10  A    between atoms: C14_27  and  O6_28
REMARK   11  A    between atoms: C15_30  and  O7_31
ROOT
HETATM    1  C5  UNL     1      12.214  -4.954   7.330  1.00  0.00     0.112 C
HETATM    2  C6  UNL     1      11.164  -4.512   6.374  1.00  0.00     0.163 C
HETATM    3  C7  UNL     1       9.830  -4.910   7.052  1.00  0.00     0.244 C
HETATM    4  C8  UNL     1       9.608  -3.879   8.104  1.00  0.00     0.186 C
HETATM    5  C14 UNL     1      10.770  -3.663   9.001  1.00  0.00     0.178 C
HETATM    6  C15 UNL     1      12.075  -4.190   8.617  1.00  0.00     0.161 C
ENDROOT
BRANCH   1   7
HETATM    7  C4  UNL     1      13.646  -4.783   6.869  1.00  0.00     0.194 C
BRANCH   7   8
HETATM    8  C3  UNL     1      14.645  -5.516   7.705  1.00  0.00     0.339 C
BRANCH   8   9
HETATM    9  N1  UNL     1      14.663  -6.966   7.422  1.00  0.00     0.085 N
HETATM   10  C1  UNL     1      14.394  -7.672   8.703  1.00  0.00     0.309 C
HETATM   11  C2  UNL     1      16.009  -7.409   7.038  1.00  0.00     0.309 C
ENDBRANCH   8   9
ENDBRANCH   7   8
BRANCH   7  12
HETATM   12  O1  UNL     1      13.811  -5.094   5.544  1.00  0.00    -0.364 OA
ATOM     13  H1  UNL     1      14.566  -4.638   5.188  1.00  0.00     0.213 HD
ENDBRANCH   7  12
BRANCH   7  14
HETATM   14  O2  UNL     1      13.956  -3.393   6.969  1.00  0.00    -0.364 OA
ATOM     15  H2  UNL     1      13.242  -2.981   7.442  1.00  0.00     0.213 HD
ENDBRANCH   7  14
ENDBRANCH   1   7
BRANCH   2  16
HETATM   16  O3  UNL     1      11.215  -5.118   5.119  1.00  0.00    -0.393 OA
ATOM     17  H3  UNL     1      11.799  -4.702   4.495  1.00  0.00     0.210 HD
ENDBRANCH   2  16
BRANCH   6  18
HETATM   18  O7  UNL     1      12.561  -5.010   9.675  1.00  0.00    -0.392 OA
ATOM     19  H7  UNL     1      11.826  -5.487  10.042  1.00  0.00     0.210 HD
ENDBRANCH   6  18
BRANCH   3  20
HETATM   20  N2  UNL     1       9.971  -6.242   7.589  1.00  0.00    -0.070 N
ATOM     21  H23 UNL     1      10.720  -6.309   8.279  1.00  0.00     0.274 HD
ATOM     22  H22 UNL     1       9.196  -6.502   8.200  1.00  0.00     0.274 HD
ATOM     23  H21 UNL     1      10.094  -6.892   6.812  1.00  0.00     0.274 HD
ENDBRANCH   3  20
BRANCH   5  24
HETATM   24  O6  UNL     1      10.456  -4.072  10.327  1.00  0.00    -0.390 OA
ATOM     25  H6  UNL     1      10.618  -3.364  10.940  1.00  0.00     0.210 HD
ENDBRANCH   5  24
BRANCH   4  26
HETATM   26  O4  UNL     1       9.206  -2.703   7.490  1.00  0.00    -0.374 OA
BRANCH  26  27
HETATM   27  C9  UNL     1       8.133  -2.103   8.127  1.00  0.00     0.146 C
HETATM   28  C10 UNL     1       7.327  -3.078   8.951  1.00  0.00     0.036 C
HETATM   29  C11 UNL     1       6.005  -2.406   9.259  1.00  0.00     0.029 C
HETATM   30  C12 UNL     1       6.227  -0.896   9.232  1.00  0.00     0.167 C
HETATM   31  O5  UNL     1       7.434  -0.614   9.814  1.00  0.00    -0.389 OA
HETATM   32  C13 UNL     1       8.520  -0.951   9.012  1.00  0.00     0.199 C
ENDBRANCH  26  27
ENDBRANCH   4  26
TORSDOF 11
ENDMDL