MODEL 2
REMARK VINA RESULT: -8.353468503      1.018      1.026
REMARK  8 active torsions:
REMARK  status: ('A' for Active; 'I' for Inactive)
REMARK    1  A    between atoms: O1_2  and  N1_3
REMARK       I    between atoms: N1_3  and  C2_5
REMARK    2  A    between atoms: C2_5  and  C3_7
REMARK    3  A    between atoms: C3_7  and  N2_8
REMARK    4  A    between atoms: N2_8  and  N3_9
REMARK    5  A    between atoms: N2_8  and  C9_25
REMARK    6  A    between atoms: N4_11  and  C4_13
REMARK    7  A    between atoms: C9_25  and  C10_29
REMARK       I    between atoms: C10_29  and  N9_31
REMARK    8  A    between atoms: N9_31  and  N10_33
ROOT
HETATM    1  C4  UNL     1       9.675  -0.332   6.039  1.00  0.00     0.151 A
HETATM    2  N5  UNL     1       8.411  -0.014   6.366  1.00  0.00    -0.292 N
ATOM      3  H5  UNL     1       7.755  -0.761   6.597  1.00  0.00     0.172 HD
HETATM    4  C5  UNL     1       7.986   1.259   6.398  1.00  0.00     0.328 A
HETATM    5  O3  UNL     1       6.814   1.597   6.699  1.00  0.00    -0.247 OA
HETATM    6  N6  UNL     1       8.874   2.230   6.088  1.00  0.00    -0.274 N
ATOM      7  H6  UNL     1       8.558   3.200   6.109  1.00  0.00     0.173 HD
HETATM    8  C6  UNL     1      10.146   1.985   5.753  1.00  0.00     0.274 A
HETATM    9  O4  UNL     1      10.969   2.897   5.464  1.00  0.00    -0.266 OA
HETATM   10  C7  UNL     1      10.588   0.681   5.719  1.00  0.00     0.158 A
HETATM   11  C8  UNL     1      11.952   0.372   5.364  1.00  0.00     0.109 C
HETATM   12  N7  UNL     1      13.059   0.138   5.062  1.00  0.00    -0.191 NA
ENDROOT
BRANCH   1  13
HETATM   13  N4  UNL     1      10.174  -1.651   5.991  1.00  0.00    -0.269 N
HETATM   14  N3  UNL     1      10.351  -2.374   7.013  1.00  0.00    -0.237 N
ATOM     15  H3  UNL     1      10.118  -1.975   7.922  1.00  0.00     0.208 HD
ATOM     16  H4  UNL     1      10.404  -2.043   5.078  1.00  0.00     0.190 HD
BRANCH  14  17
HETATM   17  N2  UNL     1      10.836  -3.663   6.985  1.00  0.00    -0.249 N
BRANCH  17  18
HETATM   18  C3  UNL     1      12.001  -4.068   6.212  1.00  0.00     0.257 C
BRANCH  18  19
HETATM   19  C2  UNL     1      13.200  -4.201   7.044  1.00  0.00     0.261 C
HETATM   20  N1  UNL     1      14.213  -5.114   6.649  1.00  0.00    -0.234 N
ATOM     21  H1  UNL     1      14.079  -5.657   5.794  1.00  0.00     0.197 HD
HETATM   22  O2  UNL     1      13.384  -3.545   8.093  1.00  0.00    -0.269 OA
BRANCH  20  23
HETATM   23  O1  UNL     1      15.350  -5.293   7.363  1.00  0.00    -0.283 OA
HETATM   24  C1  UNL     1      15.955  -6.507   7.169  1.00  0.00     0.237 C
ENDBRANCH  20  23
ENDBRANCH  18  19
ENDBRANCH  17  18
BRANCH  17  25
HETATM   25  C9  UNL     1      10.203  -4.693   7.732  1.00  0.00     0.188 C
HETATM   26  N8  UNL     1       9.834  -5.726   7.082  1.00  0.00    -0.380 N
ATOM     27  H82 UNL     1       9.980  -5.817   6.076  1.00  0.00     0.158 HD
ATOM     28  H81 UNL     1       9.380  -6.465   7.618  1.00  0.00     0.158 HD
BRANCH  25  29
HETATM   29  C10 UNL     1       9.996  -4.565   9.160  1.00  0.00     0.304 C
HETATM   30  O5  UNL     1       8.839  -4.821   9.658  1.00  0.00    -0.263 OA
HETATM   31  N9  UNL     1      11.022  -4.163  10.054  1.00  0.00    -0.270 N
ATOM     32  H9  UNL     1      11.950  -3.950   9.688  1.00  0.00     0.189 HD
BRANCH  31  33
HETATM   33  N10 UNL     1      10.786  -4.052  11.426  1.00  0.00    -0.342 N
ATOM     34 2H10 UNL     1      10.440  -3.164  11.787  1.00  0.00     0.176 HD
ATOM     35 1H10 UNL     1      10.952  -4.836  12.057  1.00  0.00     0.176 HD
ENDBRANCH  31  33
ENDBRANCH  25  29
ENDBRANCH  17  25
ENDBRANCH  14  17
ENDBRANCH   1  13
TORSDOF 8
ENDMDL