MODEL 4
REMARK VINA RESULT: -6.381511235      1.616      2.106
REMARK  10 active torsions:
REMARK  status: ('A' for Active; 'I' for Inactive)
REMARK    1  A    between atoms: C2_2  and  C4_4
REMARK    2  A    between atoms: C2_2  and  O2_6
REMARK    3  A    between atoms: O2_6  and  C5_7
REMARK    4  A    between atoms: C6_8  and  O3_9
REMARK    5  A    between atoms: C7_11  and  O4_12
REMARK    6  A    between atoms: C8_14  and  O5_15
REMARK    7  A    between atoms: C9_17  and  O6_18
REMARK    8  A    between atoms: O6_18  and  S1_19
REMARK    9  A    between atoms: S1_19  and  N1_22
REMARK   10  A    between atoms: C11_26  and  O9_27
ROOT
HETATM    1  N1  UNL     1      13.003  -4.090   5.636  1.00  0.00    -0.198 N
ATOM      2  H1  UNL     1      12.907  -4.569   4.741  1.00  0.00     0.193 HD
HETATM    3  C10 UNL     1      12.592  -2.757   5.732  1.00  0.00     0.193 C
HETATM    4  N2  UNL     1      12.245  -1.651   5.805  1.00  0.00    -0.171 NA
ENDROOT
BRANCH   1   5
HETATM    5  S1  UNL     1      13.669  -4.960   6.980  1.00  0.00     0.370 S
HETATM    6  O7  UNL     1      14.517  -3.961   7.748  1.00  0.00    -0.175 OA
HETATM    7  O8  UNL     1      14.520  -6.071   6.465  1.00  0.00    -0.175 OA
BRANCH   5   8
HETATM    8  O6  UNL     1      12.461  -5.468   7.993  1.00  0.00    -0.248 OA
BRANCH   8   9
HETATM    9  C9  UNL     1      11.361  -4.583   8.007  1.00  0.00     0.206 C
HETATM   10  C8  UNL     1      10.158  -5.358   7.585  1.00  0.00     0.182 C
HETATM   11  C7  UNL     1       8.870  -4.647   7.861  1.00  0.00     0.180 C
HETATM   12  C6  UNL     1       9.078  -3.303   8.494  1.00  0.00     0.181 C
HETATM   13  C5  UNL     1       9.970  -3.390   9.729  1.00  0.00     0.185 C
HETATM   14  C11 UNL     1      11.267  -4.071   9.426  1.00  0.00     0.182 C
BRANCH  10  15
HETATM   15  O5  UNL     1      10.135  -6.595   8.248  1.00  0.00    -0.390 OA
ATOM     16  H5  UNL     1      10.033  -7.282   7.600  1.00  0.00     0.210 HD
ENDBRANCH  10  15
BRANCH  11  17
HETATM   17  O4  UNL     1       8.221  -4.441   6.642  1.00  0.00    -0.390 OA
ATOM     18  H4  UNL     1       7.571  -5.127   6.546  1.00  0.00     0.210 HD
ENDBRANCH  11  17
BRANCH  12  19
HETATM   19  O3  UNL     1       9.573  -2.400   7.556  1.00  0.00    -0.390 OA
ATOM     20  H3  UNL     1      10.151  -2.820   6.930  1.00  0.00     0.210 HD
ENDBRANCH  12  19
BRANCH  13  21
HETATM   21  O2  UNL     1      10.105  -2.181  10.343  1.00  0.00    -0.363 OA
BRANCH  21  22
HETATM   22  C2  UNL     1       9.920  -2.094  11.676  1.00  0.00     0.107 C
HETATM   23  C1  UNL     1       9.052  -0.847  11.917  1.00  0.00     0.053 C
HETATM   24  C3  UNL     1       9.145  -3.239  12.288  1.00  0.00     0.053 C
BRANCH  22  25
HETATM   25  C4  UNL     1      11.121  -1.891  12.516  1.00  0.00     0.268 C
HETATM   26  O1  UNL     1      12.182  -1.430  12.153  1.00  0.00    -0.304 OA
ENDBRANCH  22  25
ENDBRANCH  21  22
ENDBRANCH  13  21
BRANCH  14  27
HETATM   27  O9  UNL     1      12.374  -3.202   9.566  1.00  0.00    -0.390 OA
ATOM     28  H9  UNL     1      12.420  -2.561   8.866  1.00  0.00     0.210 HD
ENDBRANCH  14  27
ENDBRANCH   8   9
ENDBRANCH   5   8
ENDBRANCH   1   5
TORSDOF 10
ENDMDL