MODEL 3
REMARK VINA RESULT: -6.666000194      1.018      1.401
REMARK  9 active torsions:
REMARK  status: ('A' for Active; 'I' for Inactive)
REMARK    1  A    between atoms: O1_2  and  C2_3
REMARK    2  A    between atoms: C3_4  and  N1_5
REMARK    3  A    between atoms: C5_10  and  O2_11
REMARK    4  A    between atoms: C6_13  and  O3_14
REMARK    5  A    between atoms: O3_14  and  C7_15
REMARK    6  A    between atoms: C9_20  and  O4_21
REMARK    7  A    between atoms: C10_23  and  O5_24
REMARK    8  A    between atoms: C11_26  and  O6_27
REMARK    9  A    between atoms: O6_27  and  S1_28
ROOT
HETATM    1  C7  UNL     1      10.316  -2.410   6.425  1.00  0.00     0.354 C
HETATM    2  N2  UNL     1      11.368  -2.122   5.478  1.00  0.00    -0.044 N
ATOM      3  H21 UNL     1      12.118  -1.592   5.921  1.00  0.00     0.280 HD
ATOM      4  H22 UNL     1      11.057  -1.434   4.792  1.00  0.00     0.280 HD
HETATM    5  C8  UNL     1      11.888  -3.291   4.826  1.00  0.00     0.269 C
HETATM    6  C9  UNL     1      12.086  -4.449   5.765  1.00  0.00     0.175 C
HETATM    7  C10 UNL     1      12.119  -4.000   7.210  1.00  0.00     0.183 C
HETATM    8  C11 UNL     1      10.888  -3.204   7.557  1.00  0.00     0.232 C
ENDROOT
BRANCH   1   9
HETATM    9  O3  UNL     1       9.904  -1.178   6.934  1.00  0.00    -0.346 OA
BRANCH   9  10
HETATM   10  C6  UNL     1       9.363  -0.350   5.989  1.00  0.00     0.184 C
HETATM   11  C2  UNL     1      10.144   0.942   5.839  1.00  0.00     0.182 C
HETATM   12  C3  UNL     1       9.137   1.979   5.421  1.00  0.00     0.217 C
HETATM   13  C4  UNL     1       7.762   1.441   5.739  1.00  0.00     0.070 C
HETATM   14  C5  UNL     1       8.047   0.173   6.518  1.00  0.00     0.151 C
BRANCH  11  15
HETATM   15  O1  UNL     1      11.205   0.834   4.977  1.00  0.00    -0.386 OA
HETATM   16  C1  UNL     1      12.358   1.462   5.434  1.00  0.00     0.202 C
ENDBRANCH  11  15
BRANCH  12  17
HETATM   17  N1  UNL     1       9.386   3.253   6.069  1.00  0.00    -0.072 N
ATOM     18  H13 UNL     1      10.313   3.282   6.493  1.00  0.00     0.274 HD
ATOM     19  H12 UNL     1       9.501   4.002   5.387  1.00  0.00     0.274 HD
ATOM     20  H11 UNL     1       8.658   3.475   6.748  1.00  0.00     0.274 HD
ENDBRANCH  12  17
BRANCH  14  21
HETATM   21  O2  UNL     1       8.309   0.585   7.847  1.00  0.00    -0.393 OA
ATOM     22  H2  UNL     1       7.699   1.291   8.026  1.00  0.00     0.210 HD
ENDBRANCH  14  21
ENDBRANCH   9  10
ENDBRANCH   1   9
BRANCH   8  23
HETATM   23  O6  UNL     1       9.908  -3.988   8.154  1.00  0.00    -0.244 OA
BRANCH  23  24
HETATM   24  S1  UNL     1       9.703  -3.789   9.769  1.00  0.00     0.252 S
HETATM   25  O7  UNL     1       8.523  -4.504  10.350  1.00  0.00    -0.572 OA
HETATM   26  O8  UNL     1       9.527  -2.324  10.061  1.00  0.00    -0.572 OA
HETATM   27  O9  UNL     1      11.131  -4.234  10.573  1.00  0.00    -0.572 OA
ENDBRANCH  23  24
ENDBRANCH   8  23
BRANCH   7  28
HETATM   28  O5  UNL     1      13.225  -3.176   7.404  1.00  0.00    -0.390 OA
ATOM     29  H5  UNL     1      13.156  -2.424   6.827  1.00  0.00     0.210 HD
ENDBRANCH   7  28
BRANCH   6  30
HETATM   30  O4  UNL     1      11.135  -5.436   5.535  1.00  0.00    -0.391 OA
ATOM     31  H4  UNL     1      10.715  -5.694   6.348  1.00  0.00     0.210 HD
ENDBRANCH   6  30
TORSDOF 9
ENDMDL