MODEL 2
REMARK VINA RESULT: -6.616949563      1.316      1.781
REMARK  9 active torsions:
REMARK  status: ('A' for Active; 'I' for Inactive)
REMARK    1  A    between atoms: O1_2  and  C2_3
REMARK    2  A    between atoms: C3_4  and  N1_5
REMARK    3  A    between atoms: C4_9  and  O2_10
REMARK    4  A    between atoms: O2_10  and  S1_11
REMARK    5  A    between atoms: C5_15  and  O6_16
REMARK    6  A    between atoms: C6_18  and  O7_19
REMARK    7  A    between atoms: O7_19  and  C7_20
REMARK    8  A    between atoms: C9_25  and  O8_26
REMARK    9  A    between atoms: C10_28  and  O9_29
ROOT
HETATM    1  C2  UNL     1      11.293  -2.933   6.875  1.00  0.00     0.185 C
HETATM    2  C3  UNL     1      12.535  -3.591   7.348  1.00  0.00     0.247 C
HETATM    3  C4  UNL     1      13.150  -4.340   6.191  1.00  0.00     0.209 C
HETATM    4  C5  UNL     1      12.187  -4.215   5.029  1.00  0.00     0.182 C
HETATM    5  C6  UNL     1      11.264  -3.068   5.360  1.00  0.00     0.186 C
ENDROOT
BRANCH   5   6
HETATM    6  O7  UNL     1      11.778  -1.934   4.730  1.00  0.00    -0.346 OA
BRANCH   6   7
HETATM    7  C7  UNL     1      11.763  -0.814   5.544  1.00  0.00     0.353 C
HETATM    8  N2  UNL     1      10.408  -0.426   5.773  1.00  0.00    -0.044 N
HETATM    9  C8  UNL     1      10.248   0.950   5.449  1.00  0.00     0.269 C
ATOM     10  H22 UNL     1       9.747  -1.020   5.271  1.00  0.00     0.280 HD
ATOM     11  H21 UNL     1      10.102  -0.637   6.723  1.00  0.00     0.280 HD
HETATM   12  C9  UNL     1      11.540   1.488   4.938  1.00  0.00     0.176 C
HETATM   13  C10 UNL     1      12.471   0.308   4.847  1.00  0.00     0.205 C
BRANCH  12  14
HETATM   14  O8  UNL     1      11.334   2.078   3.681  1.00  0.00    -0.391 OA
ATOM     15  H8  UNL     1      11.923   1.684   3.049  1.00  0.00     0.210 HD
ENDBRANCH  12  14
BRANCH  13  16
HETATM   16  O9  UNL     1      13.694   0.573   5.445  1.00  0.00    -0.389 OA
ATOM     17  H9  UNL     1      14.188  -0.227   5.580  1.00  0.00     0.210 HD
ENDBRANCH  13  16
ENDBRANCH   6   7
ENDBRANCH   5   6
BRANCH   1  18
HETATM   18  O1  UNL     1      10.138  -3.291   7.483  1.00  0.00    -0.386 OA
HETATM   19  C1  UNL     1       9.079  -3.628   6.681  1.00  0.00     0.202 C
ENDBRANCH   1  18
BRANCH   4  20
HETATM   20  O6  UNL     1      11.466  -5.394   4.829  1.00  0.00    -0.390 OA
ATOM     21  H6  UNL     1      11.859  -6.127   5.289  1.00  0.00     0.210 HD
ENDBRANCH   4  20
BRANCH   2  22
HETATM   22  N1  UNL     1      12.334  -4.485   8.471  1.00  0.00    -0.070 N
ATOM     23  H13 UNL     1      12.629  -5.431   8.233  1.00  0.00     0.274 HD
ATOM     24  H12 UNL     1      13.000  -4.280   9.216  1.00  0.00     0.274 HD
ATOM     25  H11 UNL     1      11.381  -4.486   8.832  1.00  0.00     0.274 HD
ENDBRANCH   2  22
BRANCH   3  26
HETATM   26  O2  UNL     1      13.359  -5.685   6.491  1.00  0.00    -0.247 OA
BRANCH  26  27
HETATM   27  S1  UNL     1      14.755  -5.923   7.349  1.00  0.00     0.252 S
HETATM   28  O3  UNL     1      15.701  -6.867   6.620  1.00  0.00    -0.572 OA
HETATM   29  O4  UNL     1      15.471  -4.645   7.682  1.00  0.00    -0.572 OA
HETATM   30  O5  UNL     1      14.373  -6.717   8.804  1.00  0.00    -0.572 OA
ENDBRANCH  26  27
ENDBRANCH   3  26
TORSDOF 9
ENDMDL