MODEL 3
REMARK VINA RESULT: -7.836900066      1.526      2.720
REMARK  7 active torsions:
REMARK  status: ('A' for Active; 'I' for Inactive)
REMARK    1  A    between atoms: N1_2  and  C3_4
REMARK    2  A    between atoms: C4_5  and  O1_6
REMARK    3  A    between atoms: N3_13  and  C7_14
REMARK    4  A    between atoms: C7_14  and  C8_15
REMARK       I    between atoms: C8_15  and  N4_17
REMARK    5  A    between atoms: N4_17  and  C9_19
REMARK    6  A    between atoms: C9_19  and  C10_20
REMARK       I    between atoms: C10_20  and  N5_22
REMARK    7  A    between atoms: N5_22  and  N6_24
ROOT
HETATM    1  C3  UNL     1       7.287  -0.674   8.401  1.00  0.00     0.143 A
HETATM    2  C4  UNL     1       7.340  -1.774   9.235  1.00  0.00     0.163 A
HETATM    3  C5  UNL     1       8.324  -2.734   9.129  1.00  0.00     0.239 A
HETATM    4  O2  UNL     1       8.374  -3.732   9.884  1.00  0.00    -0.283 OA
HETATM    5  C6  UNL     1       9.293  -2.594   8.155  1.00  0.00     0.134 A
HETATM    6  N2  UNL     1      10.366  -3.307   7.771  1.00  0.00    -0.289 N
ATOM      7  H2  UNL     1      10.662  -4.181   8.206  1.00  0.00     0.187 HD
HETATM    8  N3  UNL     1      10.987  -2.730   6.757  1.00  0.00    -0.246 N
HETATM    9  C11 UNL     1      10.303  -1.608   6.468  1.00  0.00     0.291 A
HETATM   10  O5  UNL     1      10.561  -0.761   5.560  1.00  0.00    -0.264 OA
HETATM   11  C12 UNL     1       9.224  -1.491   7.333  1.00  0.00     0.138 A
HETATM   12  N7  UNL     1       8.241  -0.555   7.459  1.00  0.00    -0.329 N
HETATM   13  C13 UNL     1       8.242   0.573   6.552  1.00  0.00     0.158 C
ENDROOT
BRANCH   8  14
HETATM   14  C7  UNL     1      12.177  -3.226   6.097  1.00  0.00     0.255 C
BRANCH  14  15
HETATM   15  C8  UNL     1      12.989  -4.024   7.071  1.00  0.00     0.237 C
HETATM   16  O3  UNL     1      13.561  -3.443   8.021  1.00  0.00    -0.272 OA
HETATM   17  N4  UNL     1      13.114  -5.425   6.927  1.00  0.00    -0.351 N
ATOM     18  H4  UNL     1      12.652  -5.910   6.158  1.00  0.00     0.163 HD
BRANCH  17  19
HETATM   19  C9  UNL     1      13.903  -6.160   7.883  1.00  0.00     0.227 C
BRANCH  19  20
HETATM   20  C10 UNL     1      15.159  -6.677   7.297  1.00  0.00     0.253 C
HETATM   21  O4  UNL     1      15.583  -6.167   6.213  1.00  0.00    -0.270 OA
HETATM   22  N5  UNL     1      15.892  -7.721   7.914  1.00  0.00    -0.275 N
ATOM     23  H5  UNL     1      15.553  -8.133   8.784  1.00  0.00     0.189 HD
BRANCH  22  24
HETATM   24  N6  UNL     1      17.074  -8.188   7.338  1.00  0.00    -0.343 N
ATOM     25  H62 UNL     1      17.073  -9.103   6.888  1.00  0.00     0.176 HD
ATOM     26  H61 UNL     1      17.921  -7.622   7.369  1.00  0.00     0.176 HD
ENDBRANCH  22  24
ENDBRANCH  19  20
ENDBRANCH  17  19
ENDBRANCH  14  15
ENDBRANCH   8  14
BRANCH   2  27
HETATM   27  O1  UNL     1       6.349  -1.875  10.197  1.00  0.00    -0.354 OA
ATOM     28  H1  UNL     1       5.824  -2.666  10.187  1.00  0.00     0.218 HD
ENDBRANCH   2  27
BRANCH   1  29
HETATM   29  N1  UNL     1       6.272   0.317   8.510  1.00  0.00    -0.373 N
HETATM   30  C1  UNL     1       6.539   1.457   9.367  1.00  0.00     0.150 C
HETATM   31  C2  UNL     1       5.008   0.255   7.825  1.00  0.00     0.150 C
ENDBRANCH   1  29
TORSDOF 7
ENDMDL