MODEL 5
REMARK VINA RESULT: -7.884141326      2.353      3.599
REMARK  8 active torsions:
REMARK  status: ('A' for Active; 'I' for Inactive)
REMARK    1  A    between atoms: N4_14  and  N5_16
REMARK    2  A    between atoms: N7_24  and  C9_25
REMARK    3  A    between atoms: C9_25  and  O4_26
REMARK    4  A    between atoms: O4_26  and  C10_27
REMARK    5  A    between atoms: C10_27  and  C11_28
REMARK    6  A    between atoms: C10_27  and  C12_31
REMARK    7  A    between atoms: C11_28  and  O5_29
REMARK    8  A    between atoms: C12_31  and  O6_32
ROOT
HETATM    1  C1  UNL     1      -4.371   7.738  37.235  1.00  0.00     0.163 C
HETATM    2  N1  UNL     1      -4.696   7.656  38.650  1.00  0.00    -0.289 N
HETATM    3  C2  UNL     1      -5.793   7.063  39.108  1.00  0.00     0.330 A
HETATM    4  O1  UNL     1      -6.565   6.557  38.249  1.00  0.00    -0.246 OA
HETATM    5  N2  UNL     1      -6.100   6.983  40.397  1.00  0.00    -0.274 N
ATOM      6  H2  UNL     1      -6.960   6.511  40.678  1.00  0.00     0.173 HD
HETATM    7  C3  UNL     1      -5.282   7.523  41.361  1.00  0.00     0.265 A
HETATM    8  O2  UNL     1      -5.711   7.358  42.464  1.00  0.00    -0.267 OA
HETATM    9  C4  UNL     1      -4.149   8.139  40.936  1.00  0.00     0.106 A
HETATM   10  C5  UNL     1      -3.864   8.199  39.554  1.00  0.00     0.131 A
HETATM   11  N3  UNL     1      -2.752   8.791  39.099  1.00  0.00    -0.325 N
ATOM     12  H3  UNL     1      -2.576   8.820  38.095  1.00  0.00     0.169 HD
HETATM   13  C6  UNL     1      -1.870   9.346  39.936  1.00  0.00     0.150 A
HETATM   14  N4  UNL     1      -0.845   9.886  39.449  1.00  0.00    -0.290 N
ATOM     15  H4  UNL     1      -0.824   9.825  38.430  1.00  0.00     0.188 HD
HETATM   16  C7  UNL     1      -2.089   9.320  41.293  1.00  0.00     0.111 A
HETATM   17  N6  UNL     1      -1.399   9.768  42.325  1.00  0.00    -0.303 N
ATOM     18  H6  UNL     1      -0.507  10.261  42.278  1.00  0.00     0.171 HD
HETATM   19  C8  UNL     1      -2.065   9.468  43.441  1.00  0.00     0.333 A
HETATM   20  O3  UNL     1      -1.687   9.746  44.603  1.00  0.00    -0.246 OA
HETATM   21  N7  UNL     1      -3.238   8.799  43.144  1.00  0.00    -0.251 N
HETATM   22  C13 UNL     1      -3.251   8.707  41.824  1.00  0.00     0.095 A
ENDROOT
BRANCH  21  23
HETATM   23  C9  UNL     1      -4.133   8.393  44.174  1.00  0.00     0.239 C
BRANCH  23  24
HETATM   24  O4  UNL     1      -3.666   7.647  45.199  1.00  0.00    -0.336 OA
BRANCH  24  25
HETATM   25  C10 UNL     1      -3.883   6.380  45.430  1.00  0.00     0.176 C
BRANCH  25  26
HETATM   26  C11 UNL     1      -3.003   5.924  46.611  1.00  0.00     0.198 C
BRANCH  26  27
HETATM   27  O5  UNL     1      -2.519   4.657  46.301  1.00  0.00    -0.398 OA
ATOM     28  H5  UNL     1      -3.266   4.072  46.258  1.00  0.00     0.209 HD
ENDBRANCH  26  27
ENDBRANCH  25  26
BRANCH  25  29
HETATM   29  C12 UNL     1      -5.328   6.002  45.759  1.00  0.00     0.198 C
BRANCH  29  30
HETATM   30  O6  UNL     1      -5.318   5.220  46.888  1.00  0.00    -0.398 OA
ATOM     31  H6  UNL     1      -6.144   5.345  47.340  1.00  0.00     0.209 HD
ENDBRANCH  29  30
ENDBRANCH  25  29
ENDBRANCH  24  25
ENDBRANCH  23  24
ENDBRANCH  21  23
BRANCH  14  32
HETATM   32  N5  UNL     1       0.231  10.527  39.941  1.00  0.00    -0.344 N
ATOM     33  H52 UNL     1       0.164  11.530  39.771  1.00  0.00     0.176 HD
ATOM     34  H51 UNL     1       1.081  10.253  40.433  1.00  0.00     0.176 HD
ENDBRANCH  14  32
TORSDOF 8
ENDMDL