MODEL 4
REMARK VINA RESULT: -7.597288089      1.289      2.122
REMARK  9 active torsions:
REMARK  status: ('A' for Active; 'I' for Inactive)
REMARK    1  A    between atoms: N1_1  and  C1_5
REMARK    2  A    between atoms: C3_10  and  N3_11
REMARK    3  A    between atoms: N3_11  and  C4_13
REMARK    4  A    between atoms: C5_16  and  N5_17
REMARK    5  A    between atoms: N5_17  and  C6_19
REMARK    6  A    between atoms: C6_19  and  C7_20
REMARK    7  A    between atoms: C7_20  and  S1_21
REMARK    8  A    between atoms: C9_28  and  N7_29
REMARK    9  A    between atoms: C11_33  and  N8_34
ROOT
HETATM    1  C4  UNL     1      -4.085   8.185  42.974  1.00  0.00     0.153 A
HETATM    2  N4  UNL     1      -5.100   7.484  43.469  1.00  0.00    -0.174 N
ATOM      3  H4  UNL     1      -5.784   7.101  42.815  1.00  0.00     0.186 HD
HETATM    4  C5  UNL     1      -5.280   7.247  44.800  1.00  0.00     0.679 A
HETATM    5  N6  UNL     1      -4.352   7.772  45.609  1.00  0.00    -0.199 N
ATOM      6  H6  UNL     1      -4.447   7.619  46.613  1.00  0.00     0.183 HD
HETATM    7  C8  UNL     1      -3.306   8.488  45.175  1.00  0.00     0.146 A
HETATM    8  C9  UNL     1      -3.145   8.713  43.833  1.00  0.00     0.162 A
ENDROOT
BRANCH   1   9
HETATM    9  N3  UNL     1      -3.983   8.366  41.730  1.00  0.00    -0.346 N
ATOM     10  H3  UNL     1      -4.675   9.014  41.353  1.00  0.00     0.163 HD
BRANCH   9  11
HETATM   11  C3  UNL     1      -3.102   7.850  40.760  1.00  0.00     0.287 C
HETATM   12  N2  UNL     1      -2.222   8.931  40.314  1.00  0.00    -0.052 N
HETATM   13  C2  UNL     1      -1.528   8.410  39.124  1.00  0.00     0.269 C
ATOM     14  H22 UNL     1      -1.592   9.273  41.039  1.00  0.00     0.279 HD
ATOM     15  H21 UNL     1      -2.707   9.813  40.151  1.00  0.00     0.279 HD
HETATM   16  C1  UNL     1      -0.475   7.473  39.648  1.00  0.00     0.239 C
HETATM   17  C11 UNL     1      -0.958   6.524  40.680  1.00  0.00     0.219 C
HETATM   18  C10 UNL     1      -2.381   6.596  41.069  1.00  0.00     0.089 C
BRANCH  16  19
HETATM   19  N1  UNL     1       0.572   8.334  40.217  1.00  0.00    -0.071 N
ATOM     20  H13 UNL     1       1.458   7.852  40.371  1.00  0.00     0.274 HD
ATOM     21  H12 UNL     1       0.927   9.033  39.565  1.00  0.00     0.274 HD
ATOM     22  H11 UNL     1       0.170   8.732  41.065  1.00  0.00     0.274 HD
ENDBRANCH  16  19
BRANCH  17  23
HETATM   23  N8  UNL     1      -0.648   5.166  40.194  1.00  0.00    -0.073 N
ATOM     24  H83 UNL     1       0.037   5.158  39.439  1.00  0.00     0.274 HD
ATOM     25  H82 UNL     1      -0.110   4.615  40.863  1.00  0.00     0.274 HD
ATOM     26  H81 UNL     1      -1.534   4.732  39.937  1.00  0.00     0.274 HD
ENDBRANCH  17  23
ENDBRANCH   9  11
ENDBRANCH   1   9
BRANCH   8  27
HETATM   27  N7  UNL     1      -2.037   9.476  43.336  1.00  0.00    -0.110 N
HETATM   28  O4  UNL     1      -0.943   8.923  43.243  1.00  0.00    -0.532 OA
HETATM   29  O5  UNL     1      -2.223  10.768  42.987  1.00  0.00    -0.532 OA
ENDBRANCH   8  27
BRANCH   4  30
HETATM   30  N5  UNL     1      -6.280   6.561  45.220  1.00  0.00    -0.225 N
ATOM     31  H5  UNL     1      -7.199   7.003  45.214  1.00  0.00     0.177 HD
BRANCH  30  32
HETATM   32  C6  UNL     1      -6.189   5.223  45.694  1.00  0.00     0.155 C
BRANCH  32  33
HETATM   33  C7  UNL     1      -5.581   5.105  47.083  1.00  0.00     0.185 C
BRANCH  33  34
HETATM   34  S1  UNL     1      -3.995   4.315  47.026  1.00  0.00     0.103 S
HETATM   35  O1  UNL     1      -4.202   2.917  46.531  1.00  0.00    -0.595 OA
HETATM   36  O2  UNL     1      -3.124   5.035  46.044  1.00  0.00    -0.595 OA
HETATM   37  O3  UNL     1      -3.351   4.299  48.562  1.00  0.00    -0.595 OA
ENDBRANCH  33  34
ENDBRANCH  32  33
ENDBRANCH  30  32
ENDBRANCH   4  30
TORSDOF 9
ENDMDL