MODEL 1
REMARK VINA RESULT: -7.504482189      0.000      0.000
REMARK  11 active torsions:
REMARK  status: ('A' for Active; 'I' for Inactive)
REMARK    1  A    between atoms: N1_1  and  C1_5
REMARK    2  A    between atoms: C1_5  and  C2_6
REMARK    3  A    between atoms: C5_9  and  N2_10
REMARK    4  A    between atoms: C6_14  and  O1_15
REMARK    5  A    between atoms: O1_15  and  C7_16
REMARK    6  A    between atoms: C8_17  and  O2_18
REMARK    7  A    between atoms: O2_18  and  C9_19
REMARK    8  A    between atoms: C10_21  and  N3_22
REMARK    9  A    between atoms: C11_26  and  N4_27
REMARK   10  A    between atoms: C13_33  and  O5_34
REMARK   11  A    between atoms: C14_36  and  N5_37
ROOT
HETATM    1  C7  UNL     1      -4.756   8.370  43.623  1.00  0.00     0.210 C
HETATM    2  C8  UNL     1      -3.880   8.222  42.129  1.00  0.00     0.293 C
HETATM    3  O4  UNL     1      -3.997   9.806  41.824  1.00  0.00    -0.356 OA
HETATM    4  C12 UNL     1      -5.167   9.828  41.125  1.00  0.00     0.205 C
HETATM    5  C13 UNL     1      -6.273   9.812  42.135  1.00  0.00     0.175 C
HETATM    6  C14 UNL     1      -6.112   8.776  43.162  1.00  0.00     0.247 C
ENDROOT
BRANCH   1   7
HETATM    7  O1  UNL     1      -4.821   7.078  44.010  1.00  0.00    -0.371 OA
BRANCH   7   8
HETATM    8  C6  UNL     1      -4.970   6.755  45.322  1.00  0.00     0.153 C
HETATM    9  C5  UNL     1      -3.678   6.462  46.000  1.00  0.00     0.212 C
HETATM   10  C4  UNL     1      -3.554   5.257  46.833  1.00  0.00     0.036 C
HETATM   11  C3  UNL     1      -4.749   4.409  47.059  1.00  0.00     0.008 C
HETATM   12  C2  UNL     1      -5.989   5.247  46.909  1.00  0.00     0.013 C
HETATM   13  C15 UNL     1      -5.980   5.624  45.420  1.00  0.00     0.040 C
BRANCH   9  14
HETATM   14  N2  UNL     1      -2.640   6.381  44.963  1.00  0.00    -0.073 N
ATOM     15  H23 UNL     1      -2.791   7.035  44.195  1.00  0.00     0.274 HD
ATOM     16  H22 UNL     1      -1.739   6.745  45.270  1.00  0.00     0.274 HD
ATOM     17  H21 UNL     1      -2.596   5.409  44.657  1.00  0.00     0.274 HD
ENDBRANCH   9  14
BRANCH  12  18
HETATM   18  C1  UNL     1      -7.206   4.412  47.220  1.00  0.00     0.234 C
BRANCH  18  19
HETATM   19  N1  UNL     1      -6.855   3.235  47.969  1.00  0.00    -0.079 N
ATOM     20  H13 UNL     1      -6.719   2.429  47.359  1.00  0.00     0.274 HD
ATOM     21  H12 UNL     1      -5.912   3.303  48.352  1.00  0.00     0.274 HD
ATOM     22  H11 UNL     1      -7.541   3.041  48.698  1.00  0.00     0.274 HD
ENDBRANCH  18  19
ENDBRANCH  12  18
ENDBRANCH   7   8
ENDBRANCH   1   7
BRANCH   2  23
HETATM   23  O2  UNL     1      -2.704   8.402  42.662  1.00  0.00    -0.327 OA
BRANCH  23  24
HETATM   24  C9  UNL     1      -1.576   7.793  42.265  1.00  0.00     0.300 C
HETATM   25  O3  UNL     1      -1.691   7.214  40.984  1.00  0.00    -0.324 OA
HETATM   26  C10 UNL     1      -0.337   7.534  40.777  1.00  0.00     0.356 C
HETATM   27  C11 UNL     1      -0.522   8.734  41.647  1.00  0.00     0.294 C
BRANCH  26  28
HETATM   28  N3  UNL     1      -0.110   7.777  39.375  1.00  0.00    -0.051 N
ATOM     29  H33 UNL     1      -0.833   8.369  38.964  1.00  0.00     0.277 HD
ATOM     30  H32 UNL     1       0.689   8.391  39.214  1.00  0.00     0.277 HD
ATOM     31  H31 UNL     1      -0.017   6.886  38.886  1.00  0.00     0.277 HD
ENDBRANCH  26  28
BRANCH  27  32
HETATM   32  N4  UNL     1      -1.168   9.838  41.016  1.00  0.00    -0.066 N
ATOM     33  H43 UNL     1      -1.779   9.541  40.256  1.00  0.00     0.275 HD
ATOM     34  H42 UNL     1      -1.874  10.264  41.617  1.00  0.00     0.275 HD
ATOM     35  H41 UNL     1      -0.471  10.516  40.705  1.00  0.00     0.275 HD
ENDBRANCH  27  32
ENDBRANCH  23  24
ENDBRANCH   2  23
BRANCH   6  36
HETATM   36  N5  UNL     1      -6.859   7.575  42.735  1.00  0.00    -0.070 N
ATOM     37  H53 UNL     1      -6.332   7.006  42.072  1.00  0.00     0.274 HD
ATOM     38  H52 UNL     1      -6.942   6.885  43.482  1.00  0.00     0.274 HD
ATOM     39  H51 UNL     1      -7.767   7.858  42.366  1.00  0.00     0.274 HD
ENDBRANCH   6  36
BRANCH   5  40
HETATM   40  O5  UNL     1      -7.452   9.535  41.401  1.00  0.00    -0.391 OA
ATOM     41  H5  UNL     1      -7.389   8.620  41.154  1.00  0.00     0.210 HD
ENDBRANCH   5  40
TORSDOF 11
ENDMDL