MODEL 5
REMARK VINA RESULT: -8.101754384      3.144      5.805
REMARK  5 active torsions:
REMARK  status: ('A' for Active; 'I' for Inactive)
REMARK    1  A    between atoms: O1_2  and  C2_3
REMARK       I    between atoms: N1_11  and  C9_12
REMARK    2  A    between atoms: C9_12  and  C10_14
REMARK    3  A    between atoms: C10_14  and  C11_15
REMARK    4  A    between atoms: C11_15  and  C12_16
REMARK    5  A    between atoms: C12_16  and  N2_17
ROOT
HETATM    1  C2  UNL     1      -5.967   8.617  37.070  1.00  0.00     0.195 A
HETATM    2  C3  UNL     1      -4.912   8.349  37.797  1.00  0.00     0.017 A
HETATM    3  C4  UNL     1      -3.625   7.762  37.335  1.00  0.00     0.054 C
HETATM    4  C5  UNL     1      -5.160   8.714  39.210  1.00  0.00     0.101 A
HETATM    5  C6  UNL     1      -4.274   8.624  40.162  1.00  0.00     0.167 C
HETATM    6  O2  UNL     1      -2.934   8.182  39.999  1.00  0.00    -0.293 OA
HETATM    7  C7  UNL     1      -2.139   8.873  40.983  1.00  0.00     0.254 C
HETATM    8  C8  UNL     1      -3.124   9.680  41.805  1.00  0.00     0.203 C
HETATM    9  N1  UNL     1      -4.356   8.909  41.554  1.00  0.00    -0.293 N
HETATM   10  C9  UNL     1      -5.327   8.471  42.469  1.00  0.00     0.226 C
HETATM   11  O3  UNL     1      -6.256   7.669  42.276  1.00  0.00    -0.273 OA
HETATM   12  N3  UNL     1      -1.442   7.894  41.755  1.00  0.00    -0.077 NA
HETATM   13  N4  UNL     1      -0.249   8.387  42.268  1.00  0.00    -0.014 NA
HETATM   14  N5  UNL     1       0.721   8.580  41.284  1.00  0.00    -0.010 NA
HETATM   15  N6  UNL     1       0.209   9.356  40.247  1.00  0.00    -0.252 N
ATOM     16  H6  UNL     1       0.808   9.661  39.480  1.00  0.00     0.187 HD
HETATM   17  C13 UNL     1      -1.165   9.714  40.280  1.00  0.00     0.289 C
HETATM   18  O4  UNL     1      -1.556  10.758  39.705  1.00  0.00    -0.267 OA
HETATM   19  C14 UNL     1      -6.515   9.235  39.187  1.00  0.00     0.305 A
HETATM   20  O5  UNL     1      -7.193   9.684  40.124  1.00  0.00    -0.259 OA
HETATM   21  O6  UNL     1      -6.953   9.147  37.848  1.00  0.00    -0.250 OA
ENDROOT
BRANCH  10  22
HETATM   22  C10 UNL     1      -5.237   9.040  43.859  1.00  0.00     0.105 C
BRANCH  22  23
HETATM   23  C11 UNL     1      -4.849   7.939  44.819  1.00  0.00     0.036 C
BRANCH  23  24
HETATM   24  C12 UNL     1      -3.390   8.147  45.140  1.00  0.00     0.230 C
BRANCH  24  25
HETATM   25  N2  UNL     1      -2.583   7.213  44.400  1.00  0.00    -0.079 N
ATOM     26  H23 UNL     1      -2.085   7.662  43.631  1.00  0.00     0.274 HD
ATOM     27  H22 UNL     1      -1.776   6.897  44.936  1.00  0.00     0.274 HD
ATOM     28  H21 UNL     1      -3.157   6.432  44.078  1.00  0.00     0.274 HD
ENDBRANCH  24  25
ENDBRANCH  23  24
ENDBRANCH  22  23
ENDBRANCH  10  22
BRANCH   1  29
HETATM   29  O1  UNL     1      -5.982   8.358  35.689  1.00  0.00    -0.335 OA
HETATM   30  C1  UNL     1      -7.011   8.984  34.943  1.00  0.00     0.212 C
ENDBRANCH   1  29
TORSDOF 5
ENDMDL