MODEL 5
REMARK VINA RESULT: -8.268081584      2.939      6.413
REMARK  7 active torsions:
REMARK  status: ('A' for Active; 'I' for Inactive)
REMARK    1  A    between atoms: C3_5  and  N2_6
REMARK    2  A    between atoms: C5_13  and  C6_14
REMARK    3  A    between atoms: N4_15  and  N5_17
REMARK    4  A    between atoms: N5_17  and  C7_19
REMARK    5  A    between atoms: N7_24  and  N8_25
REMARK       I    between atoms: N8_25  and  C10_27
REMARK    6  A    between atoms: C10_27  and  C11_29
REMARK    7  A    between atoms: N9_30  and  N10_32
ROOT
HETATM    1  C7  UNL     1      -0.894   9.883  40.474  1.00  0.00     0.709 C
HETATM    2  N6  UNL     1       0.276  10.293  40.122  1.00  0.00    -0.222 N
ATOM      3  H6  UNL     1       0.445  11.053  39.464  1.00  0.00     0.177 HD
HETATM    4  C8  UNL     1       1.319   9.535  40.784  1.00  0.00     0.160 C
HETATM    5  C9  UNL     1       0.571   8.248  41.114  1.00  0.00     0.188 C
HETATM    6  N7  UNL     1      -0.758   8.812  41.402  1.00  0.00    -0.118 N
ENDROOT
BRANCH   1   7
HETATM    7  N5  UNL     1      -2.159  10.385  40.033  1.00  0.00    -0.131 N
ATOM      8  H5  UNL     1      -2.307  11.379  39.861  1.00  0.00     0.205 HD
BRANCH   7   9
HETATM    9  N4  UNL     1      -3.178   9.451  39.850  1.00  0.00    -0.297 N
HETATM   10  C6  UNL     1      -3.121   8.504  38.969  1.00  0.00     0.126 C
ATOM     11  H4  UNL     1      -4.008   9.516  40.439  1.00  0.00     0.186 HD
BRANCH  10  12
HETATM   12  C5  UNL     1      -4.261   7.597  38.886  1.00  0.00     0.072 A
HETATM   13  C2  UNL     1      -4.923   7.376  37.689  1.00  0.00     0.040 A
HETATM   14  C1  UNL     1      -4.411   8.107  36.498  1.00  0.00     0.070 C
HETATM   15  N1  UNL     1      -5.975   6.546  37.585  1.00  0.00    -0.195 N
HETATM   16  C3  UNL     1      -6.406   5.902  38.688  1.00  0.00     0.679 A
ATOM     17  H1  UNL     1      -6.440   6.406  36.688  1.00  0.00     0.184 HD
HETATM   18  N3  UNL     1      -5.786   6.096  39.863  1.00  0.00    -0.156 N
HETATM   19  C4  UNL     1      -4.734   6.919  39.987  1.00  0.00     0.273 A
ATOM     20  H3  UNL     1      -6.126   5.601  40.688  1.00  0.00     0.187 HD
HETATM   21  O1  UNL     1      -4.160   7.094  41.093  1.00  0.00    -0.267 OA
BRANCH  16  22
HETATM   22  N2  UNL     1      -7.417   5.093  38.625  1.00  0.00    -0.234 N
ATOM     23  H22 UNL     1      -7.302   4.175  38.194  1.00  0.00     0.174 HD
ATOM     24  H21 UNL     1      -8.324   5.368  39.001  1.00  0.00     0.174 HD
ENDBRANCH  16  22
ENDBRANCH  10  12
ENDBRANCH   7   9
ENDBRANCH   1   7
BRANCH   6  25
HETATM   25  N8  UNL     1      -1.630   8.350  42.381  1.00  0.00    -0.249 N
HETATM   26  C10 UNL     1      -2.245   9.175  43.361  1.00  0.00     0.277 C
HETATM   27  O2  UNL     1      -2.025  10.401  43.394  1.00  0.00    -0.265 OA
ATOM     28  H8  UNL     1      -1.842   7.353  42.398  1.00  0.00     0.191 HD
BRANCH  26  29
HETATM   29  C11 UNL     1      -3.152   8.635  44.367  1.00  0.00     0.182 C
HETATM   30  N9  UNL     1      -3.522   7.406  44.256  1.00  0.00    -0.304 N
ATOM     31  H9  UNL     1      -3.167   6.858  43.471  1.00  0.00     0.186 HD
BRANCH  30  32
HETATM   32  N10 UNL     1      -4.380   6.795  45.156  1.00  0.00    -0.276 N
HETATM   33  C12 UNL     1      -4.002   5.850  45.976  1.00  0.00     0.215 C
HETATM   34  N11 UNL     1      -2.649   5.453  45.919  1.00  0.00    -0.065 NA
HETATM   35  N12 UNL     1      -4.935   5.273  46.868  1.00  0.00    -0.065 NA
ATOM     36  H10 UNL     1      -5.354   7.097  45.180  1.00  0.00     0.189 HD
ENDBRANCH  30  32
ENDBRANCH  26  29
ENDBRANCH   6  25
TORSDOF 7
ENDMDL