MODEL 5
REMARK VINA RESULT: -7.980435307      2.189      4.322
REMARK  9 active torsions:
REMARK  status: ('A' for Active; 'I' for Inactive)
REMARK    1  A    between atoms: N1_1  and  C1_5
REMARK    2  A    between atoms: C1_5  and  C2_6
REMARK    3  A    between atoms: C2_6  and  N2_7
REMARK    4  A    between atoms: C5_11  and  S1_12
REMARK    5  A    between atoms: S1_12  and  N3_13
REMARK    6  A    between atoms: C6_20  and  N5_21
REMARK    7  A    between atoms: N5_21  and  N6_23
REMARK    8  A    between atoms: C7_25  and  C8_26
REMARK    9  A    between atoms: C9_27  and  O4_28
ROOT
HETATM    1  N2  UNL     1      -4.763   8.410  40.103  1.00  0.00    -0.144 N
HETATM    2  C3  UNL     1      -3.984   8.467  39.001  1.00  0.00     0.264 A
HETATM    3  O1  UNL     1      -4.472   8.343  37.830  1.00  0.00    -0.267 OA
HETATM    4  C4  UNL     1      -2.636   8.667  39.187  1.00  0.00     0.119 A
HETATM    5  C5  UNL     1      -2.109   8.802  40.463  1.00  0.00     0.169 A
HETATM    6  N4  UNL     1      -2.938   8.735  41.508  1.00  0.00    -0.177 N
ATOM      7  H4  UNL     1      -2.564   8.832  42.452  1.00  0.00     0.185 HD
HETATM    8  C6  UNL     1      -4.250   8.541  41.339  1.00  0.00     0.703 A
ENDROOT
BRANCH   8   9
HETATM    9  N5  UNL     1      -4.991   8.482  42.415  1.00  0.00    -0.132 N
ATOM     10  H5  UNL     1      -5.707   9.194  42.559  1.00  0.00     0.205 HD
BRANCH   9  11
HETATM   11  N6  UNL     1      -4.840   7.498  43.357  1.00  0.00    -0.296 N
HETATM   12  C7  UNL     1      -5.109   7.609  44.613  1.00  0.00     0.129 C
ATOM     13  H6  UNL     1      -4.484   6.597  43.036  1.00  0.00     0.186 HD
BRANCH  12  14
HETATM   14  C8  UNL     1      -4.890   6.461  45.481  1.00  0.00     0.100 A
HETATM   15  C9  UNL     1      -6.010   5.904  46.104  1.00  0.00     0.161 A
HETATM   16  N7  UNL     1      -5.821   4.855  46.898  1.00  0.00    -0.288 N
HETATM   17  C10 UNL     1      -4.577   4.357  47.087  1.00  0.00     0.329 A
ATOM     18  H7  UNL     1      -6.618   4.424  47.367  1.00  0.00     0.172 HD
HETATM   19  O5  UNL     1      -4.464   3.371  47.844  1.00  0.00    -0.247 OA
HETATM   20  N8  UNL     1      -3.500   4.893  46.487  1.00  0.00    -0.275 N
HETATM   21  C11 UNL     1      -3.641   5.949  45.679  1.00  0.00     0.265 A
ATOM     22  H8  UNL     1      -2.575   4.495  46.649  1.00  0.00     0.173 HD
HETATM   23  O6  UNL     1      -2.636   6.475  45.099  1.00  0.00    -0.267 OA
BRANCH  15  24
HETATM   24  O4  UNL     1      -7.272   6.461  45.873  1.00  0.00    -0.345 OA
ATOM     25  H4  UNL     1      -7.734   6.883  46.588  1.00  0.00     0.219 HD
ENDBRANCH  15  24
ENDBRANCH  12  14
ENDBRANCH   9  11
ENDBRANCH   8   9
BRANCH   1  26
HETATM   26  C2  UNL     1      -6.165   8.197  39.911  1.00  0.00     0.178 C
BRANCH  26  27
HETATM   27  C1  UNL     1      -6.986   9.431  39.727  1.00  0.00     0.250 C
BRANCH  27  28
HETATM   28  N1  UNL     1      -7.250   9.771  38.346  1.00  0.00    -0.078 N
ATOM     29  H13 UNL     1      -6.594   9.291  37.730  1.00  0.00     0.274 HD
ATOM     30  H12 UNL     1      -8.124   9.347  38.036  1.00  0.00     0.274 HD
ATOM     31  H11 UNL     1      -7.252  10.773  38.153  1.00  0.00     0.274 HD
ENDBRANCH  27  28
ENDBRANCH  26  27
ENDBRANCH   1  26
BRANCH   5  32
HETATM   32  S1  UNL     1      -0.386   9.056  40.682  1.00  0.00     0.273 S
HETATM   33  O2  UNL     1      -0.052   9.160  42.154  1.00  0.00    -0.199 OA
HETATM   34  O3  UNL     1       0.354   7.881  40.148  1.00  0.00    -0.199 OA
BRANCH  32  35
HETATM   35  N3  UNL     1       0.164  10.468  39.909  1.00  0.00    -0.323 N
ATOM     36  H32 UNL     1      -0.290  11.375  40.019  1.00  0.00     0.169 HD
ATOM     37  H31 UNL     1       0.989  10.299  39.332  1.00  0.00     0.169 HD
ENDBRANCH  32  35
ENDBRANCH   5  32
TORSDOF 9
ENDMDL