MODEL 1
REMARK VINA RESULT: -8.032346014      0.000      0.000
REMARK  9 active torsions:
REMARK  status: ('A' for Active; 'I' for Inactive)
REMARK    1  A    between atoms: C2_5  and  N3_6
REMARK    2  A    between atoms: N3_6  and  N4_8
REMARK    3  A    between atoms: N4_8  and  C3_10
REMARK    4  A    between atoms: C3_10  and  C4_11
REMARK    5  A    between atoms: C5_12  and  S1_13
REMARK    6  A    between atoms: S1_13  and  C6_16
REMARK    7  A    between atoms: C6_16  and  C7_17
REMARK    8  A    between atoms: C7_17  and  O3_18
REMARK    9  A    between atoms: C8_22  and  N6_23
ROOT
HETATM    1  C4  UNL     1      -2.864   8.120  38.529  1.00  0.00     0.088 A
HETATM    2  C5  UNL     1      -1.743   8.843  38.765  1.00  0.00     0.161 A
HETATM    3  N5  UNL     1      -1.102   9.443  37.705  1.00  0.00    -0.180 N
ATOM      4  H5  UNL     1      -0.257   9.987  37.886  1.00  0.00     0.185 HD
HETATM    5  C8  UNL     1      -1.545   9.340  36.446  1.00  0.00     0.679 A
HETATM    6  N7  UNL     1      -2.651   8.632  36.171  1.00  0.00    -0.156 N
ATOM      7  H7  UNL     1      -3.001   8.543  35.218  1.00  0.00     0.187 HD
HETATM    8  C9  UNL     1      -3.276   8.049  37.198  1.00  0.00     0.274 A
HETATM    9  O4  UNL     1      -4.309   7.392  36.921  1.00  0.00    -0.267 OA
ENDROOT
BRANCH   1  10
HETATM   10  C3  UNL     1      -3.637   7.445  39.496  1.00  0.00     0.127 C
BRANCH  10  11
HETATM   11  N4  UNL     1      -4.813   7.731  39.903  1.00  0.00    -0.297 N
ATOM     12  H4  UNL     1      -5.610   7.216  39.527  1.00  0.00     0.186 HD
BRANCH  11  13
HETATM   13  N3  UNL     1      -5.033   8.731  40.848  1.00  0.00    -0.131 N
ATOM     14  H3  UNL     1      -5.148   9.697  40.541  1.00  0.00     0.205 HD
BRANCH  13  15
HETATM   15  C2  UNL     1      -5.091   8.454  42.103  1.00  0.00     0.715 A
HETATM   16  N2  UNL     1      -5.824   7.568  42.786  1.00  0.00    -0.125 N
HETATM   17  N1  UNL     1      -5.573   7.606  44.089  1.00  0.00    -0.232 N
ATOM     18  H2  UNL     1      -6.498   6.935  42.355  1.00  0.00     0.206 HD
HETATM   19  C1  UNL     1      -6.191   6.781  45.106  1.00  0.00     0.183 C
HETATM   20  C10 UNL     1      -4.641   8.557  44.245  1.00  0.00     0.355 A
HETATM   21  N8  UNL     1      -4.333   9.083  43.060  1.00  0.00    -0.137 N
HETATM   22  O5  UNL     1      -4.108   8.925  45.347  1.00  0.00    -0.244 OA
ATOM     23  H8  UNL     1      -3.653   9.823  42.893  1.00  0.00     0.189 HD
ENDBRANCH  13  15
ENDBRANCH  11  13
ENDBRANCH  10  11
ENDBRANCH   1  10
BRANCH   2  24
HETATM   24  S1  UNL     1      -1.102   9.025  40.372  1.00  0.00     0.194 S
HETATM   25  O1  UNL     1      -2.059   9.697  41.302  1.00  0.00    -0.221 OA
HETATM   26  O2  UNL     1      -0.579   7.773  40.973  1.00  0.00    -0.221 OA
BRANCH  24  27
HETATM   27  C6  UNL     1       0.314  10.149  40.234  1.00  0.00     0.173 C
BRANCH  27  28
HETATM   28  C7  UNL     1       1.536   9.351  40.694  1.00  0.00     0.179 C
BRANCH  28  29
HETATM   29  O3  UNL     1       2.642   9.905  40.077  1.00  0.00    -0.400 OA
ATOM     30  H3  UNL     1       2.739  10.788  40.413  1.00  0.00     0.209 HD
ENDBRANCH  28  29
ENDBRANCH  27  28
ENDBRANCH  24  27
ENDBRANCH   2  24
BRANCH   5  31
HETATM   31  N6  UNL     1      -0.891   9.935  35.478  1.00  0.00    -0.234 N
ATOM     32  H62 UNL     1       0.129   9.915  35.464  1.00  0.00     0.174 HD
ATOM     33  H61 UNL     1      -1.407  10.415  34.741  1.00  0.00     0.174 HD
ENDBRANCH   5  31
TORSDOF 9
ENDMDL