MODEL 2
REMARK VINA RESULT: -9.092836643      2.719      3.622
REMARK  8 active torsions:
REMARK  status: ('A' for Active; 'I' for Inactive)
REMARK    1  A    between atoms: N2_6  and  C3_8
REMARK    2  A    between atoms: C3_8  and  C4_9
REMARK    3  A    between atoms: C4_9  and  O2_10
REMARK    4  A    between atoms: C4_9  and  O3_12
REMARK    5  A    between atoms: C5_16  and  N4_17
REMARK    6  A    between atoms: N4_17  and  N5_19
REMARK    7  A    between atoms: C6_21  and  C7_22
REMARK    8  A    between atoms: C8_23  and  N6_24
ROOT
HETATM    1  O1  UNL     1       0.497   9.391  40.960  1.00  0.00    -0.261 OA
HETATM    2  C1  UNL     1      -0.732   9.333  40.834  1.00  0.00     0.328 C
HETATM    3  N1  UNL     1      -1.198   9.456  39.574  1.00  0.00    -0.151 N
ATOM      4  H1  UNL     1      -0.569   9.845  38.872  1.00  0.00     0.188 HD
HETATM    5  C2  UNL     1      -2.430   9.102  39.179  1.00  0.00     0.695 C
HETATM    6  N2  UNL     1      -2.583   8.712  37.981  1.00  0.00    -0.221 N
ATOM      7  H2  UNL     1      -3.523   8.442  37.688  1.00  0.00     0.177 HD
HETATM    8  N3  UNL     1      -3.585   9.102  39.923  1.00  0.00    -0.021 N
ATOM      9  H3  UNL     1      -4.452   9.015  39.393  1.00  0.00     0.203 HD
HETATM   10  C5  UNL     1      -3.728   9.202  41.259  1.00  0.00     0.714 C
HETATM   11  N9  UNL     1      -2.763   8.990  42.185  1.00  0.00    -0.149 N
ATOM     12  H9  UNL     1      -3.075   8.676  43.104  1.00  0.00     0.188 HD
HETATM   13  C12 UNL     1      -1.418   9.151  42.022  1.00  0.00     0.328 C
HETATM   14  O6  UNL     1      -0.773   9.125  43.079  1.00  0.00    -0.261 OA
ENDROOT
BRANCH  10  15
HETATM   15  N4  UNL     1      -4.885   9.526  41.677  1.00  0.00    -0.132 N
ATOM     16  H4  UNL     1      -5.389  10.293  41.232  1.00  0.00     0.205 HD
BRANCH  15  17
HETATM   17  N5  UNL     1      -5.461   8.842  42.732  1.00  0.00    -0.295 N
HETATM   18  C6  UNL     1      -5.624   7.588  42.794  1.00  0.00     0.141 C
ATOM     19  H5  UNL     1      -5.781   9.394  43.528  1.00  0.00     0.186 HD
BRANCH  18  20
HETATM   20  C7  UNL     1      -6.217   6.856  43.877  1.00  0.00     0.098 C
HETATM   21  C8  UNL     1      -5.497   6.675  44.962  1.00  0.00     0.132 C
HETATM   22  C9  UNL     1      -5.945   5.936  46.188  1.00  0.00     0.040 C
HETATM   23  C10 UNL     1      -7.165   5.596  46.528  1.00  0.00     0.021 C
HETATM   24  C11 UNL     1      -8.423   5.835  45.825  1.00  0.00     0.107 C
HETATM   25  N7  UNL     1      -8.597   6.180  44.573  1.00  0.00    -0.311 N
HETATM   26  N8  UNL     1      -7.579   6.393  43.647  1.00  0.00    -0.297 N
ATOM     27  H7  UNL     1      -9.557   6.303  44.250  1.00  0.00     0.186 HD
ATOM     28  H8  UNL     1      -7.819   6.198  42.675  1.00  0.00     0.187 HD
BRANCH  21  29
HETATM   29  N6  UNL     1      -4.179   7.177  45.070  1.00  0.00    -0.113 N
HETATM   30  O4  UNL     1      -3.216   6.417  45.014  1.00  0.00    -0.532 OA
HETATM   31  O5  UNL     1      -3.993   8.512  45.283  1.00  0.00    -0.532 OA
ENDBRANCH  21  29
ENDBRANCH  18  20
ENDBRANCH  15  17
ENDBRANCH  10  15
BRANCH   6  32
HETATM   32  C3  UNL     1      -1.545   8.623  37.019  1.00  0.00     0.198 C
BRANCH  32  33
HETATM   33  C4  UNL     1      -1.660   9.624  35.877  1.00  0.00     0.272 C
BRANCH  33  34
HETATM   34  O2  UNL     1      -2.192   8.888  34.793  1.00  0.00    -0.370 OA
ATOM     35  H2  UNL     1      -3.040   8.584  35.093  1.00  0.00     0.212 HD
ENDBRANCH  33  34
BRANCH  33  36
HETATM   36  O3  UNL     1      -0.417  10.082  35.464  1.00  0.00    -0.370 OA
ATOM     37  H3  UNL     1      -0.343  10.098  34.518  1.00  0.00     0.212 HD
ENDBRANCH  33  36
ENDBRANCH  32  33
ENDBRANCH   6  32
TORSDOF 8
ENDMDL