MODEL 3
REMARK VINA RESULT: -7.782853864      2.616      7.669
REMARK  10 active torsions:
REMARK  status: ('A' for Active; 'I' for Inactive)
REMARK    1  A    between atoms: O1_1  and  C1_3
REMARK    2  A    between atoms: C2_4  and  O2_5
REMARK    3  A    between atoms: C3_7  and  O3_8
REMARK    4  A    between atoms: C4_10  and  O4_11
REMARK    5  A    between atoms: O4_11  and  C5_12
REMARK    6  A    between atoms: C8_16  and  S1_17
REMARK    7  A    between atoms: S1_17  and  C9_18
REMARK    8  A    between atoms: C9_18  and  C10_19
REMARK    9  A    between atoms: C13_26  and  O7_27
REMARK   10  A    between atoms: C14_29  and  O8_30
ROOT
HETATM    1  C1  UNL     1       0.382   9.473  40.743  1.00  0.00     0.180 C
HETATM    2  C2  UNL     1      -0.709   9.374  39.696  1.00  0.00     0.180 C
HETATM    3  C3  UNL     1      -2.054   9.279  40.368  1.00  0.00     0.181 C
HETATM    4  C4  UNL     1      -2.064   8.321  41.541  1.00  0.00     0.184 C
HETATM    5  C13 UNL     1      -0.849   7.442  41.395  1.00  0.00     0.181 C
HETATM    6  C14 UNL     1       0.362   8.336  41.708  1.00  0.00     0.180 C
ENDROOT
BRANCH   4   7
HETATM    7  O4  UNL     1      -3.262   7.630  41.635  1.00  0.00    -0.372 OA
BRANCH   7   8
HETATM    8  C5  UNL     1      -4.204   8.438  42.218  1.00  0.00     0.161 C
HETATM    9  C6  UNL     1      -5.612   7.924  42.064  1.00  0.00     0.200 C
HETATM   10  O5  UNL     1      -6.354   8.431  43.091  1.00  0.00    -0.387 OA
HETATM   11  C7  UNL     1      -5.515   8.747  44.141  1.00  0.00     0.185 C
HETATM   12  C8  UNL     1      -4.093   8.492  43.750  1.00  0.00     0.102 C
BRANCH  12  13
HETATM   13  S1  UNL     1      -3.219   7.181  44.483  1.00  0.00    -0.157 SA
BRANCH  13  14
HETATM   14  C9  UNL     1      -3.736   6.262  45.851  1.00  0.00     0.109 C
BRANCH  14  15
HETATM   15  C10 UNL     1      -3.002   5.008  46.248  1.00  0.00     0.221 C
HETATM   16  C11 UNL     1      -4.055   3.922  46.624  1.00  0.00     0.203 C
HETATM   17  O6  UNL     1      -4.491   4.433  47.856  1.00  0.00    -0.362 OA
HETATM   18  C12 UNL     1      -3.297   4.699  48.529  1.00  0.00     0.399 C
HETATM   19  N1  UNL     1      -2.349   5.107  47.529  1.00  0.00    -0.047 N
ATOM     20  H12 UNL     1      -1.476   4.581  47.571  1.00  0.00     0.280 HD
ATOM     21  H11 UNL     1      -1.958   6.032  47.705  1.00  0.00     0.280 HD
ENDBRANCH  14  15
ENDBRANCH  13  14
ENDBRANCH  12  13
ENDBRANCH   7   8
ENDBRANCH   4   7
BRANCH   3  22
HETATM   22  O3  UNL     1      -2.402  10.551  40.810  1.00  0.00    -0.390 OA
ATOM     23  H3  UNL     1      -3.250  10.491  41.235  1.00  0.00     0.210 HD
ENDBRANCH   3  22
BRANCH   5  24
HETATM   24  O7  UNL     1      -0.837   6.342  42.227  1.00  0.00    -0.390 OA
ATOM     25  H7  UNL     1      -0.032   5.840  42.203  1.00  0.00     0.210 HD
ENDBRANCH   5  24
BRANCH   2  26
HETATM   26  O2  UNL     1      -0.674  10.588  38.978  1.00  0.00    -0.390 OA
ATOM     27  H2  UNL     1      -1.510  10.654  38.530  1.00  0.00     0.210 HD
ENDBRANCH   2  26
BRANCH   6  28
HETATM   28  O8  UNL     1       0.179   8.848  43.003  1.00  0.00    -0.390 OA
ATOM     29  H8  UNL     1      -0.061   8.134  43.581  1.00  0.00     0.210 HD
ENDBRANCH   6  28
BRANCH   1  30
HETATM   30  O1  UNL     1       1.625   9.517  40.129  1.00  0.00    -0.390 OA
ATOM     31  H1  UNL     1       1.587  10.065  39.354  1.00  0.00     0.210 HD
ENDBRANCH   1  30
TORSDOF 10
ENDMDL