MODEL 2
REMARK VINA RESULT: -6.905327826      1.991      2.736
REMARK  8 active torsions:
REMARK  status: ('A' for Active; 'I' for Inactive)
REMARK    1  A    between atoms: O1_2  and  C2_3
REMARK    2  A    between atoms: C2_3  and  C3_5
REMARK    3  A    between atoms: C3_5  and  S1_6
REMARK    4  A    between atoms: N2_12  and  C7_14
REMARK    5  A    between atoms: C7_14  and  C8_18
REMARK    6  A    between atoms: C8_18  and  N4_19
REMARK    7  A    between atoms: C9_23  and  C10_24
REMARK       I    between atoms: C10_24  and  N5_26
REMARK    8  A    between atoms: N5_26  and  N6_28
ROOT
HETATM    1  C3  UNL     1      -2.533   8.308  42.670  1.00  0.00     0.197 C
HETATM    2  C5  UNL     1      -3.719   9.216  42.615  1.00  0.00     0.171 C
HETATM    3  N1  UNL     1      -4.925   8.489  43.060  1.00  0.00    -0.374 N
ATOM      4  H1  UNL     1      -5.760   8.748  42.535  1.00  0.00     0.160 HD
HETATM    5  C6  UNL     1      -5.183   7.505  44.062  1.00  0.00     0.109 C
HETATM    6  N2  UNL     1      -6.184   6.758  43.974  1.00  0.00    -0.333 N
ATOM      7  H2  UNL     1      -6.255   6.108  44.757  1.00  0.00     0.168 HD
HETATM    8  C9  UNL     1      -4.265   7.145  45.148  1.00  0.00     0.255 C
HETATM    9  N7  UNL     1      -3.117   6.646  44.243  1.00  0.00    -0.124 NA
HETATM   10  N8  UNL     1      -2.424   7.777  44.045  1.00  0.00    -0.113 NA
ENDROOT
BRANCH   6  11
HETATM   11  C7  UNL     1      -7.211   6.604  43.074  1.00  0.00     0.102 C
HETATM   12  N3  UNL     1      -7.111   6.739  41.820  1.00  0.00    -0.387 N
ATOM     13  H32 UNL     1      -6.193   6.987  41.452  1.00  0.00     0.157 HD
ATOM     14  H31 UNL     1      -7.873   6.624  41.152  1.00  0.00     0.157 HD
BRANCH  11  15
HETATM   15  C8  UNL     1      -8.594   6.231  43.629  1.00  0.00     0.305 C
BRANCH  15  16
HETATM   16  N4  UNL     1      -8.533   5.987  45.043  1.00  0.00    -0.073 N
ATOM     17  H43 UNL     1      -9.457   5.802  45.433  1.00  0.00     0.274 HD
ATOM     18  H42 UNL     1      -8.094   5.090  45.251  1.00  0.00     0.274 HD
ATOM     19  H41 UNL     1      -8.068   6.756  45.527  1.00  0.00     0.274 HD
ENDBRANCH  15  16
ENDBRANCH  11  15
ENDBRANCH   6  11
BRANCH   8  20
HETATM   20  C10 UNL     1      -4.562   6.046  46.019  1.00  0.00     0.269 C
HETATM   21  O3  UNL     1      -5.648   5.769  46.466  1.00  0.00    -0.269 OA
HETATM   22  N5  UNL     1      -3.418   5.217  46.332  1.00  0.00    -0.208 N
ATOM     23  H5  UNL     1      -2.500   5.461  45.959  1.00  0.00     0.196 HD
BRANCH  22  24
HETATM   24  N6  UNL     1      -3.556   4.095  47.132  1.00  0.00    -0.036 N
HETATM   25  O4  UNL     1      -3.074   4.113  48.277  1.00  0.00    -0.516 OA
HETATM   26  O5  UNL     1      -4.245   2.994  46.660  1.00  0.00    -0.516 OA
ENDBRANCH  22  24
ENDBRANCH   8  20
BRANCH   1  27
HETATM   27  C2  UNL     1      -1.207   8.978  42.594  1.00  0.00     0.296 C
HETATM   28  O2  UNL     1      -0.446   9.038  43.618  1.00  0.00    -0.262 OA
BRANCH  27  29
HETATM   29  O1  UNL     1      -0.791   9.499  41.386  1.00  0.00    -0.324 OA
HETATM   30  C1  UNL     1       0.436   9.129  40.784  1.00  0.00     0.213 C
ENDBRANCH  27  29
ENDBRANCH   1  27
BRANCH   1  31
HETATM   31  S1  UNL     1      -2.673   7.088  41.402  1.00  0.00    -0.133 SA
HETATM   32  C4  UNL     1      -3.442   7.882  39.941  1.00  0.00     0.092 C
ENDBRANCH   1  31
TORSDOF 8
ENDMDL