MODEL 5
REMARK VINA RESULT: -7.151212080      3.004      6.229
REMARK  3 active torsions:
REMARK  status: ('A' for Active; 'I' for Inactive)
REMARK    1  A    between atoms: C2_7  and  C3_8
REMARK    2  A    between atoms: C3_8  and  N3_9
REMARK    3  A    between atoms: C12_22  and  O3_23
ROOT
HETATM    1  N1  UNL     1     -30.782 120.989   6.686  1.00  0.00    -0.384 N
ATOM      2  H11 UNL     1     -30.308 120.479   7.431  1.00  0.00     0.157 HD
ATOM      3  H12 UNL     1     -30.054 121.182   5.999  1.00  0.00     0.157 HD
HETATM    4  C1  UNL     1     -31.948 121.327   6.576  1.00  0.00     0.129 A
HETATM    5  N2  UNL     1     -32.606 122.035   5.541  1.00  0.00    -0.329 N
ATOM      6  H2  UNL     1     -32.179 122.390   4.686  1.00  0.00     0.168 HD
HETATM    7  C2  UNL     1     -33.977 122.162   5.916  1.00  0.00     0.112 A
HETATM    8  N4  UNL     1     -34.204 121.610   7.052  1.00  0.00    -0.340 N
ATOM      9  H4  UNL     1     -35.111 121.580   7.516  1.00  0.00     0.167 HD
HETATM   10  C11 UNL     1     -33.000 121.048   7.569  1.00  0.00     0.099 A
HETATM   11  C12 UNL     1     -32.863 120.403   8.716  1.00  0.00     0.164 C
ENDROOT
BRANCH   7  12
HETATM   12  C3  UNL     1     -34.966 122.855   5.058  1.00  0.00     0.348 C
BRANCH  12  13
HETATM   13  N3  UNL     1     -34.454 124.126   4.566  1.00  0.00     0.098 N
HETATM   14  C4  UNL     1     -35.494 124.754   3.822  1.00  0.00     0.275 C
HETATM   15  C5  UNL     1     -35.240 126.170   3.431  1.00  0.00     0.065 C
HETATM   16  C6  UNL     1     -34.775 126.925   4.675  1.00  0.00     0.153 C
HETATM   17  O1  UNL     1     -34.496 128.246   4.407  1.00  0.00    -0.381 OA
HETATM   18  C9  UNL     1     -33.538 126.245   5.155  1.00  0.00     0.178 C
HETATM   19  C7  UNL     1     -34.179 128.842   5.629  1.00  0.00     0.194 C
HETATM   20  C8  UNL     1     -33.039 128.201   6.324  1.00  0.00     0.194 C
HETATM   21  O2  UNL     1     -32.750 126.924   6.006  1.00  0.00    -0.379 OA
HETATM   22  C10 UNL     1     -33.975 124.874   5.688  1.00  0.00     0.307 C
ENDBRANCH  12  13
ENDBRANCH   7  12
BRANCH  11  23
HETATM   23  O3  UNL     1     -33.980 120.240   9.521  1.00  0.00    -0.370 OA
ATOM     24  H3  UNL     1     -34.360 119.373   9.601  1.00  0.00     0.216 HD
ENDBRANCH  11  23
TORSDOF 3
ENDMDL