MODEL 3
REMARK VINA RESULT: -7.474566988      1.409      5.220
REMARK  7 active torsions:
REMARK  status: ('A' for Active; 'I' for Inactive)
REMARK    1  A    between atoms: C2_2  and  C3_3
REMARK    2  A    between atoms: C3_3  and  C4_4
REMARK    3  A    between atoms: C4_4  and  C5_5
REMARK    4  A    between atoms: C10_11  and  C11_12
REMARK    5  A    between atoms: C11_12  and  C12_14
REMARK    6  A    between atoms: C12_14  and  C13_15
REMARK    7  A    between atoms: C13_15  and  C15_17
ROOT
HETATM    1  C5  UNL     1     -33.761 122.581   6.526  1.00  0.00    -0.012 A
HETATM    2  C6  UNL     1     -34.360 121.391   6.793  1.00  0.00     0.056 A
HETATM    3  C7  UNL     1     -34.155 120.526   7.973  1.00  0.00     0.077 C
HETATM    4  O1  UNL     1     -35.212 121.046   5.816  1.00  0.00    -0.319 OA
HETATM    5  C8  UNL     1     -35.209 121.961   4.895  1.00  0.00     0.064 A
HETATM    6  C9  UNL     1     -36.025 121.960   3.624  1.00  0.00     0.077 C
HETATM    7  C10 UNL     1     -34.321 122.955   5.273  1.00  0.00     0.048 A
ENDROOT
BRANCH   7   8
HETATM    8  C11 UNL     1     -34.030 124.155   4.516  1.00  0.00     0.163 C
HETATM    9  O2  UNL     1     -33.469 124.035   3.414  1.00  0.00    -0.292 OA
BRANCH   8  10
HETATM   10  C12 UNL     1     -34.407 125.458   5.069  1.00  0.00     0.088 C
BRANCH  10  11
HETATM   11  C13 UNL     1     -35.303 126.269   4.174  1.00  0.00    -0.012 C
HETATM   12  C14 UNL     1     -36.158 125.471   3.252  1.00  0.00     0.010 C
BRANCH  11  13
HETATM   13  C15 UNL     1     -34.572 127.403   3.485  1.00  0.00     0.000 C
HETATM   14  C16 UNL     1     -33.416 127.843   4.380  1.00  0.00     0.005 C
ENDBRANCH  11  13
ENDBRANCH  10  11
ENDBRANCH   8  10
ENDBRANCH   7   8
BRANCH   1  15
HETATM   15  C4  UNL     1     -32.793 123.416   7.217  1.00  0.00     0.042 C
BRANCH  15  16
HETATM   16  C3  UNL     1     -31.674 122.822   7.945  1.00  0.00     0.004 C
BRANCH  16  17
HETATM   17  C2  UNL     1     -30.726 121.893   7.257  1.00  0.00    -0.004 C
HETATM   18  C1  UNL     1     -29.272 122.275   7.440  1.00  0.00     0.005 C
ENDBRANCH  16  17
ENDBRANCH  15  16
ENDBRANCH   1  15
TORSDOF 7
ENDMDL