MODEL 3
REMARK VINA RESULT: -7.229315000      1.594      5.328
REMARK  7 active torsions:
REMARK  status: ('A' for Active; 'I' for Inactive)
REMARK    1  A    between atoms: C2_2  and  C3_3
REMARK    2  A    between atoms: C3_3  and  C4_4
REMARK    3  A    between atoms: C4_4  and  C5_5
REMARK    4  A    between atoms: C5_5  and  C6_6
REMARK    5  A    between atoms: C6_6  and  C7_8
REMARK    6  A    between atoms: C12_14  and  C13_15
REMARK    7  A    between atoms: C13_15  and  C14_16
ROOT
HETATM    1  C7  UNL     1     -34.159 122.954   5.520  1.00  0.00     0.048 A
HETATM    2  C8  UNL     1     -35.164 122.032   5.171  1.00  0.00     0.064 A
HETATM    3  C9  UNL     1     -36.060 122.115   3.959  1.00  0.00     0.077 C
HETATM    4  O2  UNL     1     -35.146 121.125   6.094  1.00  0.00    -0.319 OA
HETATM    5  C10 UNL     1     -34.252 121.343   7.004  1.00  0.00     0.056 A
HETATM    6  C11 UNL     1     -33.963 120.498   8.211  1.00  0.00     0.077 C
HETATM    7  C12 UNL     1     -33.574 122.541   6.666  1.00  0.00    -0.012 A
ENDROOT
BRANCH   1   8
HETATM    8  C6  UNL     1     -33.967 124.156   4.762  1.00  0.00     0.162 C
HETATM    9  O1  UNL     1     -33.579 123.972   3.536  1.00  0.00    -0.292 OA
BRANCH   8  10
HETATM   10  C5  UNL     1     -34.129 125.551   5.146  1.00  0.00     0.084 C
BRANCH  10  11
HETATM   11  C4  UNL     1     -33.622 126.487   4.041  1.00  0.00     0.008 C
BRANCH  11  12
HETATM   12  C3  UNL     1     -32.991 127.684   4.681  1.00  0.00     0.000 C
BRANCH  12  13
HETATM   13  C2  UNL     1     -32.752 127.524   6.149  1.00  0.00    -0.005 C
HETATM   14  C1  UNL     1     -32.516 128.821   6.870  1.00  0.00     0.005 C
ENDBRANCH  12  13
ENDBRANCH  11  12
ENDBRANCH  10  11
ENDBRANCH   8  10
ENDBRANCH   1   8
BRANCH   7  15
HETATM   15  C13 UNL     1     -32.449 123.049   7.474  1.00  0.00     0.046 C
BRANCH  15  16
HETATM   16  C14 UNL     1     -31.246 122.206   7.590  1.00  0.00    -0.018 C
HETATM   17  C15 UNL     1     -30.913 121.318   6.443  1.00  0.00     0.010 C
HETATM   18  C16 UNL     1     -29.998 123.097   7.809  1.00  0.00     0.010 C
ENDBRANCH  15  16
ENDBRANCH   7  15
TORSDOF 7
ENDMDL