MODEL 1
REMARK VINA RESULT: -8.459037379      0.000      0.000
REMARK  7 active torsions:
REMARK  status: ('A' for Active; 'I' for Inactive)
REMARK    1  A    between atoms: C2_2  and  C3_3
REMARK    2  A    between atoms: C3_3  and  C4_4
REMARK    3  A    between atoms: C4_4  and  O1_6
REMARK    4  A    between atoms: O1_6  and  C6_7
REMARK    5  A    between atoms: C6_7  and  C7_8
REMARK    6  A    between atoms: C11_12  and  O2_13
REMARK    7  A    between atoms: C12_15  and  C13_16
ROOT
HETATM    1  C7  UNL     1     -33.630 124.621   6.167  1.00  0.00    -0.033 A
HETATM    2  C8  UNL     1     -33.160 125.868   6.517  1.00  0.00     0.019 A
HETATM    3  C9  UNL     1     -33.483 127.010   5.811  1.00  0.00    -0.028 A
HETATM    4  C10 UNL     1     -32.991 128.365   6.162  1.00  0.00     0.051 C
HETATM    5  C11 UNL     1     -34.312 126.871   4.711  1.00  0.00     0.078 A
HETATM    6  C12 UNL     1     -34.813 125.661   4.309  1.00  0.00    -0.021 A
HETATM    7  C16 UNL     1     -34.466 124.544   5.045  1.00  0.00     0.019 A
ENDROOT
BRANCH   1   8
HETATM    8  C6  UNL     1     -33.247 123.435   6.938  1.00  0.00     0.206 C
BRANCH   8   9
HETATM    9  O1  UNL     1     -32.638 122.418   6.275  1.00  0.00    -0.382 OA
BRANCH   9  10
HETATM   10  C4  UNL     1     -32.000 121.457   7.075  1.00  0.00     0.117 C
HETATM   11  C5  UNL     1     -30.594 121.366   6.592  1.00  0.00     0.039 C
BRANCH  10  12
HETATM   12  C3  UNL     1     -32.129 121.903   8.486  1.00  0.00     0.031 C
BRANCH  12  13
HETATM   13  C2  UNL     1     -32.639 120.980   9.513  1.00  0.00    -0.002 C
HETATM   14  C1  UNL     1     -33.839 120.216   9.129  1.00  0.00     0.005 C
ENDBRANCH  12  13
ENDBRANCH  10  12
ENDBRANCH   9  10
ENDBRANCH   8   9
ENDBRANCH   1   8
BRANCH   6  15
HETATM   15  C13 UNL     1     -35.670 125.491   3.148  1.00  0.00     0.013 C
HETATM   16  C14 UNL     1     -36.963 124.747   3.496  1.00  0.00     0.015 C
HETATM   17  C15 UNL     1     -35.036 124.768   1.995  1.00  0.00     0.015 C
ENDBRANCH   6  15
BRANCH   5  18
HETATM   18  O2  UNL     1     -34.648 127.985   3.998  1.00  0.00    -0.360 OA
ATOM     19  H2  UNL     1     -34.240 128.127   3.152  1.00  0.00     0.217 HD
ENDBRANCH   5  18
TORSDOF 7
ENDMDL