MODEL 3
REMARK VINA RESULT: -7.519224402      3.316      5.686
REMARK  6 active torsions:
REMARK  status: ('A' for Active; 'I' for Inactive)
REMARK    1  A    between atoms: C2_2  and  C3_3
REMARK    2  A    between atoms: C3_3  and  C4_4
REMARK    3  A    between atoms: C10_10  and  O1_11
REMARK    4  A    between atoms: C10_10  and  C11_13
REMARK    5  A    between atoms: C11_13  and  C12_14
REMARK    6  A    between atoms: C12_14  and  C13_15
ROOT
HETATM    1  C3  UNL     1     -32.545 121.424   7.703  1.00  0.00    -0.041 C
HETATM    2  C6  UNL     1     -32.118 122.817   8.111  1.00  0.00     0.009 C
HETATM    3  C7  UNL     1     -32.975 123.954   7.709  1.00  0.00     0.001 C
HETATM    4  C8  UNL     1     -33.230 124.134   6.253  1.00  0.00     0.003 C
HETATM    5  C9  UNL     1     -34.611 123.724   5.834  1.00  0.00     0.038 C
HETATM    6  C10 UNL     1     -34.577 122.421   5.022  1.00  0.00     0.058 C
HETATM    7  C15 UNL     1     -34.310 121.227   5.861  1.00  0.00     0.038 C
HETATM    8  C16 UNL     1     -33.999 121.373   7.279  1.00  0.00     0.012 C
ENDROOT
BRANCH   6   9
HETATM    9  O1  UNL     1     -33.614 122.640   4.033  1.00  0.00    -0.390 OA
ATOM     10  H1  UNL     1     -33.156 123.426   4.309  1.00  0.00     0.210 HD
ENDBRANCH   6   9
BRANCH   6  11
HETATM   11  C11 UNL     1     -35.910 122.393   4.307  1.00  0.00     0.045 C
BRANCH  11  12
HETATM   12  C12 UNL     1     -35.870 122.494   2.828  1.00  0.00     0.081 C
BRANCH  12  13
HETATM   13  C13 UNL     1     -36.082 123.938   2.475  1.00  0.00     0.123 C
HETATM   14  C14 UNL     1     -36.945 124.831   3.278  1.00  0.00     0.091 C
HETATM   15  O2  UNL     1     -35.496 124.350   1.469  1.00  0.00    -0.298 OA
ENDBRANCH  12  13
ENDBRANCH  11  12
ENDBRANCH   6  11
BRANCH   1  16
HETATM   16  C2  UNL     1     -31.628 120.795   6.731  1.00  0.00     0.005 C
HETATM   17  C1  UNL     1     -30.205 121.199   6.659  1.00  0.00     0.006 C
ENDBRANCH   1  16
BRANCH   1  18
HETATM   18  C4  UNL     1     -32.494 120.639   8.992  1.00  0.00     0.005 C
HETATM   19  C5  UNL     1     -33.541 119.648   9.264  1.00  0.00     0.006 C
ENDBRANCH   1  18
TORSDOF 6
ENDMDL