MODEL 2
REMARK VINA RESULT: -8.143693908      5.806     10.696
REMARK  9 active torsions:
REMARK  status: ('A' for Active; 'I' for Inactive)
REMARK    1  A    between atoms: C2_2  and  C3_3
REMARK    2  A    between atoms: C3_3  and  C4_4
REMARK    3  A    between atoms: C4_4  and  C5_5
REMARK    4  A    between atoms: C5_5  and  C6_6
REMARK    5  A    between atoms: C6_6  and  C7_7
REMARK    6  A    between atoms: C7_7  and  C8_8
REMARK    7  A    between atoms: C10_10  and  C11_11
REMARK    8  A    between atoms: C11_11  and  O1_12
REMARK    9  A    between atoms: C15_17  and  O2_18
ROOT
HETATM    1  C8  UNL     1     -33.918 124.821   5.810  1.00  0.00    -0.024 A
HETATM    2  C9  UNL     1     -34.673 125.146   4.668  1.00  0.00     0.019 A
HETATM    3  C10 UNL     1     -35.316 124.210   3.900  1.00  0.00    -0.028 A
HETATM    4  C12 UNL     1     -35.251 122.883   4.222  1.00  0.00    -0.051 A
HETATM    5  C13 UNL     1     -35.933 121.843   3.418  1.00  0.00     0.049 C
HETATM    6  C14 UNL     1     -34.529 122.530   5.325  1.00  0.00     0.044 A
HETATM    7  C15 UNL     1     -33.869 123.493   6.113  1.00  0.00     0.075 A
ENDROOT
BRANCH   1   8
HETATM    8  C7  UNL     1     -33.234 125.911   6.538  1.00  0.00     0.041 C
BRANCH   8   9
HETATM    9  C6  UNL     1     -33.137 127.216   5.905  1.00  0.00     0.005 C
BRANCH   9  10
HETATM   10  C5  UNL     1     -32.315 128.323   6.357  1.00  0.00     0.001 C
BRANCH  10  11
HETATM   11  C4  UNL     1     -32.850 129.338   7.284  1.00  0.00     0.004 C
BRANCH  11  12
HETATM   12  C3  UNL     1     -34.082 130.053   6.699  1.00  0.00     0.026 C
BRANCH  12  13
HETATM   13  C2  UNL     1     -34.641 130.861   7.815  1.00  0.00    -0.037 C
HETATM   14  C1  UNL     1     -35.917 131.204   7.814  1.00  0.00     0.007 C
ENDBRANCH  12  13
ENDBRANCH  11  12
ENDBRANCH  10  11
ENDBRANCH   9  10
ENDBRANCH   8   9
ENDBRANCH   1   8
BRANCH   7  15
HETATM   15  O2  UNL     1     -33.161 123.061   7.219  1.00  0.00    -0.355 OA
HETATM   16  C16 UNL     1     -32.100 122.149   7.067  1.00  0.00     0.210 C
ENDBRANCH   7  15
BRANCH   3  17
HETATM   17  C11 UNL     1     -36.082 124.679   2.718  1.00  0.00     0.203 C
BRANCH  17  18
HETATM   18  O1  UNL     1     -35.363 124.550   1.542  1.00  0.00    -0.396 OA
ATOM     19  H1  UNL     1     -34.425 124.560   1.691  1.00  0.00     0.209 HD
ENDBRANCH  17  18
ENDBRANCH   3  17
TORSDOF 9
ENDMDL