MODEL 1
REMARK VINA RESULT: -7.777846389      0.000      0.000
REMARK  8 active torsions:
REMARK  status: ('A' for Active; 'I' for Inactive)
REMARK    1  A    between atoms: C2_2  and  C4_4
REMARK    2  A    between atoms: C4_4  and  C5_5
REMARK    3  A    between atoms: C5_5  and  C6_6
REMARK    4  A    between atoms: C5_5  and  C12_15
REMARK    5  A    between atoms: C6_6  and  C7_7
REMARK    6  A    between atoms: C10_10  and  C11_11
REMARK    7  A    between atoms: C11_11  and  O1_12
REMARK    8  A    between atoms: C12_15  and  C13_16
ROOT
HETATM    1  C5  UNL     1     -33.683 123.222   5.658  1.00  0.00    -0.007 C
ENDROOT
BRANCH   1   2
HETATM    2  C4  UNL     1     -33.081 121.995   6.338  1.00  0.00     0.009 C
BRANCH   2   3
HETATM    3  C2  UNL     1     -32.017 122.313   7.339  1.00  0.00    -0.022 C
HETATM    4  C1  UNL     1     -30.737 121.670   6.814  1.00  0.00     0.009 C
HETATM    5  C3  UNL     1     -32.258 121.762   8.702  1.00  0.00     0.009 C
ENDBRANCH   2   3
ENDBRANCH   1   2
BRANCH   1   6
HETATM    6  C6  UNL     1     -33.654 124.295   6.684  1.00  0.00     0.069 C
BRANCH   6   7
HETATM    7  C7  UNL     1     -33.597 125.687   6.147  1.00  0.00     0.053 A
HETATM    8  C8  UNL     1     -34.300 126.325   5.178  1.00  0.00     0.035 A
HETATM    9  C9  UNL     1     -33.837 127.621   5.083  1.00  0.00     0.037 A
HETATM   10  C10 UNL     1     -32.839 127.688   6.042  1.00  0.00     0.076 A
HETATM   11  O2  UNL     1     -32.726 126.543   6.644  1.00  0.00    -0.317 OA
BRANCH  10  12
HETATM   12  C11 UNL     1     -32.030 128.911   6.320  1.00  0.00     0.229 C
BRANCH  12  13
HETATM   13  O1  UNL     1     -32.010 129.756   5.210  1.00  0.00    -0.394 OA
ATOM     14  H1  UNL     1     -32.092 130.664   5.475  1.00  0.00     0.209 HD
ENDBRANCH  12  13
ENDBRANCH  10  12
ENDBRANCH   6   7
ENDBRANCH   1   6
BRANCH   1  15
HETATM   15  C12 UNL     1     -35.006 122.925   5.101  1.00  0.00     0.013 C
BRANCH  15  16
HETATM   16  C13 UNL     1     -35.385 123.196   3.711  1.00  0.00    -0.051 C
HETATM   17  C14 UNL     1     -36.086 121.911   3.123  1.00  0.00     0.014 C
HETATM   18  C15 UNL     1     -36.411 124.265   3.446  1.00  0.00     0.014 C
HETATM   19  C16 UNL     1     -34.227 123.438   2.776  1.00  0.00     0.014 C
ENDBRANCH  15  16
ENDBRANCH   1  15
TORSDOF 8
ENDMDL