MODEL 1
REMARK VINA RESULT: -8.661668397      0.000      0.000
REMARK  9 active torsions:
REMARK  status: ('A' for Active; 'I' for Inactive)
REMARK    1  A    between atoms: C2_2  and  C3_3
REMARK    2  A    between atoms: C5_5  and  C6_6
REMARK    3  A    between atoms: C6_6  and  C7_7
REMARK    4  A    between atoms: C7_7  and  C8_8
REMARK    5  A    between atoms: C8_8  and  O1_9
REMARK    6  A    between atoms: C8_8  and  C9_11
REMARK    7  A    between atoms: C9_11  and  C10_12
REMARK    8  A    between atoms: C10_12  and  C11_13
REMARK    9  A    between atoms: C11_13  and  O2_14
ROOT
HETATM    1  C6  UNL     1     -34.073 127.267   4.874  1.00  0.00     0.041 C
ENDROOT
BRANCH   1   2
HETATM    2  C5  UNL     1     -34.630 125.981   4.470  1.00  0.00    -0.057 A
HETATM    3  C4  UNL     1     -34.273 124.821   5.130  1.00  0.00     0.019 A
HETATM    4  C3  UNL     1     -34.808 123.603   4.769  1.00  0.00    -0.031 A
HETATM    5  C15 UNL     1     -35.720 123.542   3.727  1.00  0.00    -0.052 A
HETATM    6  C14 UNL     1     -36.093 124.691   3.051  1.00  0.00     0.008 A
HETATM    7  C16 UNL     1     -36.292 122.210   3.348  1.00  0.00     0.049 C
HETATM    8  C13 UNL     1     -35.535 125.914   3.437  1.00  0.00     0.007 A
BRANCH   4   9
HETATM    9  C2  UNL     1     -34.440 122.361   5.460  1.00  0.00     0.002 C
HETATM   10  C1  UNL     1     -33.219 122.034   5.794  1.00  0.00     0.012 C
ENDBRANCH   4   9
ENDBRANCH   1   2
BRANCH   1  11
HETATM   11  C7  UNL     1     -33.078 127.276   5.963  1.00  0.00     0.036 C
BRANCH  11  12
HETATM   12  C8  UNL     1     -32.326 128.520   6.222  1.00  0.00     0.118 C
BRANCH  12  13
HETATM   13  O1  UNL     1     -32.110 129.356   5.161  1.00  0.00    -0.396 OA
ATOM     14  H1  UNL     1     -31.229 129.693   5.044  1.00  0.00     0.210 HD
ENDBRANCH  12  13
BRANCH  12  15
HETATM   15  C9  UNL     1     -32.874 129.339   7.372  1.00  0.00     0.034 C
BRANCH  15  16
HETATM   16  C10 UNL     1     -33.859 130.329   6.763  1.00  0.00     0.029 C
BRANCH  16  17
HETATM   17  C11 UNL     1     -34.809 130.877   7.767  1.00  0.00     0.167 C
BRANCH  17  18
HETATM   18  O2  UNL     1     -36.116 130.866   7.373  1.00  0.00    -0.396 OA
HETATM   19  C12 UNL     1     -36.851 131.762   8.126  1.00  0.00     0.201 C
ENDBRANCH  17  18
ENDBRANCH  16  17
ENDBRANCH  15  16
ENDBRANCH  12  15
ENDBRANCH  11  12
ENDBRANCH   1  11
TORSDOF 9
ENDMDL