MODEL 3
REMARK VINA RESULT: -8.272478213      2.250      3.724
REMARK  8 active torsions:
REMARK  status: ('A' for Active; 'I' for Inactive)
REMARK    1  A    between atoms: C2_2  and  C3_3
REMARK    2  A    between atoms: C3_3  and  C4_4
REMARK    3  A    between atoms: C4_4  and  C5_5
REMARK    4  A    between atoms: C5_5  and  C6_6
REMARK    5  A    between atoms: C6_6  and  C7_7
REMARK    6  A    between atoms: C7_7  and  C8_9
REMARK    7  A    between atoms: C10_11  and  C11_12
REMARK    8  A    between atoms: C13_14  and  O2_15
ROOT
HETATM    1  C8  UNL     1     -34.409 124.106   4.505  1.00  0.00     0.016 A
HETATM    2  C9  UNL     1     -33.631 123.667   5.594  1.00  0.00     0.025 A
HETATM    3  C10 UNL     1     -33.753 122.413   6.151  1.00  0.00    -0.024 A
HETATM    4  C13 UNL     1     -34.689 121.570   5.596  1.00  0.00     0.072 A
HETATM    5  C14 UNL     1     -35.474 121.947   4.532  1.00  0.00     0.044 A
HETATM    6  C15 UNL     1     -35.326 123.240   3.980  1.00  0.00    -0.045 A
HETATM    7  C16 UNL     1     -36.194 123.582   2.853  1.00  0.00     0.049 C
ENDROOT
BRANCH   1   8
HETATM    8  C7  UNL     1     -34.226 125.423   3.963  1.00  0.00     0.160 C
HETATM    9  O1  UNL     1     -33.628 125.569   2.862  1.00  0.00    -0.292 OA
BRANCH   8  10
HETATM   10  C6  UNL     1     -34.680 126.703   4.574  1.00  0.00     0.084 C
BRANCH  10  11
HETATM   11  C5  UNL     1     -33.893 127.865   4.021  1.00  0.00     0.008 C
BRANCH  11  12
HETATM   12  C4  UNL     1     -32.631 128.128   4.803  1.00  0.00     0.004 C
BRANCH  12  13
HETATM   13  C3  UNL     1     -32.725 127.744   6.235  1.00  0.00     0.026 C
BRANCH  13  14
HETATM   14  C2  UNL     1     -32.638 128.987   7.062  1.00  0.00    -0.037 C
HETATM   15  C1  UNL     1     -33.596 129.898   7.122  1.00  0.00     0.007 C
ENDBRANCH  13  14
ENDBRANCH  12  13
ENDBRANCH  11  12
ENDBRANCH  10  11
ENDBRANCH   8  10
ENDBRANCH   1   8
BRANCH   3  16
HETATM   16  C11 UNL     1     -32.909 121.997   7.303  1.00  0.00     0.037 C
HETATM   17  C12 UNL     1     -31.557 121.488   6.862  1.00  0.00     0.010 C
ENDBRANCH   3  16
BRANCH   4  18
HETATM   18  O2  UNL     1     -34.802 120.307   6.169  1.00  0.00    -0.360 OA
ATOM     19  H2  UNL     1     -35.418 120.222   6.887  1.00  0.00     0.217 HD
ENDBRANCH   4  18
TORSDOF 8
ENDMDL