MODEL 1
REMARK VINA RESULT: -7.530035923      0.000      0.000
REMARK  9 active torsions:
REMARK  status: ('A' for Active; 'I' for Inactive)
REMARK    1  A    between atoms: C2_2  and  C3_3
REMARK    2  A    between atoms: C3_3  and  C4_4
REMARK    3  A    between atoms: C4_4  and  C5_5
REMARK    4  A    between atoms: C5_5  and  C6_6
REMARK    5  A    between atoms: C10_10  and  O1_11
REMARK    6  A    between atoms: O1_11  and  C11_12
REMARK    7  A    between atoms: C14_15  and  C15_16
REMARK    8  A    between atoms: C15_16  and  C16_17
REMARK    9  A    between atoms: C16_17  and  O2_18
ROOT
HETATM    1  C6  UNL     1     -34.162 125.704   5.399  1.00  0.00    -0.051 A
HETATM    2  C7  UNL     1     -33.363 125.159   6.414  1.00  0.00     0.017 A
HETATM    3  C8  UNL     1     -33.213 123.815   6.635  1.00  0.00    -0.028 A
HETATM    4  C9  UNL     1     -32.344 123.320   7.737  1.00  0.00     0.051 C
HETATM    5  C10 UNL     1     -33.890 122.958   5.805  1.00  0.00     0.075 A
HETATM    6  C13 UNL     1     -34.680 123.464   4.803  1.00  0.00     0.045 A
HETATM    7  C14 UNL     1     -34.831 124.833   4.584  1.00  0.00    -0.047 A
ENDROOT
BRANCH   1   8
HETATM    8  C5  UNL     1     -34.162 127.177   5.236  1.00  0.00     0.039 C
BRANCH   8   9
HETATM    9  C4  UNL     1     -32.868 127.702   4.675  1.00  0.00     0.005 C
BRANCH   9  10
HETATM   10  C3  UNL     1     -32.414 128.900   5.448  1.00  0.00    -0.000 C
BRANCH  10  11
HETATM   11  C2  UNL     1     -32.644 128.765   6.922  1.00  0.00    -0.005 C
HETATM   12  C1  UNL     1     -33.413 129.943   7.457  1.00  0.00     0.005 C
ENDBRANCH  10  11
ENDBRANCH   9  10
ENDBRANCH   8   9
ENDBRANCH   1   8
BRANCH   7  13
HETATM   13  C15 UNL     1     -35.751 125.331   3.546  1.00  0.00     0.065 C
BRANCH  13  14
HETATM   14  C16 UNL     1     -36.188 124.292   2.548  1.00  0.00     0.168 C
BRANCH  14  15
HETATM   15  O2  UNL     1     -35.341 124.339   1.419  1.00  0.00    -0.401 OA
ATOM     16  H2  UNL     1     -35.809 124.723   0.687  1.00  0.00     0.209 HD
ENDBRANCH  14  15
ENDBRANCH  13  14
ENDBRANCH   7  13
BRANCH   5  17
HETATM   17  O1  UNL     1     -33.792 121.610   5.960  1.00  0.00    -0.351 OA
BRANCH  17  18
HETATM   18  C11 UNL     1     -34.664 120.694   6.502  1.00  0.00     0.171 C
HETATM   19  C12 UNL     1     -34.706 120.594   7.982  1.00  0.00     0.034 C
ENDBRANCH  17  18
ENDBRANCH   5  17
TORSDOF 9
ENDMDL