MODEL 3
REMARK VINA RESULT: -6.712998737      8.007     10.241
REMARK  5 active torsions:
REMARK  status: ('A' for Active; 'I' for Inactive)
REMARK       I    between atoms: C1_4  and  N3_6
REMARK       I    between atoms: N3_6  and  C2_8
REMARK       I    between atoms: C2_8  and  N4_10
REMARK    1  A    between atoms: N4_10  and  S1_12
REMARK    2  A    between atoms: S1_12  and  N5_15
REMARK       I    between atoms: N5_15  and  C3_17
REMARK    3  A    between atoms: C3_17  and  C4_19
REMARK    4  A    between atoms: C5_25  and  C6_26
REMARK    5  A    between atoms: N9_28  and  O6_30
ROOT
HETATM    1  N5  UNL     1     -16.020  45.960  26.925  1.00  0.00    -0.231 N
ATOM      2  H5  UNL     1     -16.342  46.812  27.385  1.00  0.00     0.183 HD
HETATM    3  C3  UNL     1     -14.725  45.896  26.356  1.00  0.00     0.287 C
HETATM    4  O4  UNL     1     -14.395  44.839  25.815  1.00  0.00    -0.265 OA
ENDROOT
BRANCH   1   5
HETATM    5  S1  UNL     1     -17.041  44.578  26.830  1.00  0.00     0.329 S
HETATM    6  O2  UNL     1     -18.443  44.880  27.294  1.00  0.00    -0.182 OA
HETATM    7  O3  UNL     1     -16.527  43.484  27.750  1.00  0.00    -0.182 OA
BRANCH   5   8
HETATM    8  N4  UNL     1     -17.053  43.993  25.200  1.00  0.00    -0.218 N
HETATM    9  C2  UNL     1     -17.390  44.860  24.147  1.00  0.00     0.337 C
HETATM   10  N3  UNL     1     -17.400  44.398  22.807  1.00  0.00    -0.282 N
HETATM   11  O1  UNL     1     -17.686  46.053  24.390  1.00  0.00    -0.246 OA
HETATM   12  C1  UNL     1     -17.740  45.270  21.739  1.00  0.00     0.189 C
ATOM     13  H3  UNL     1     -17.160  43.427  22.607  1.00  0.00     0.173 HD
HETATM   14  N1  UNL     1     -17.750  44.858  20.525  1.00  0.00    -0.373 N
HETATM   15  N2  UNL     1     -18.074  46.616  22.023  1.00  0.00    -0.064 NA
ATOM     16  H12 UNL     1     -17.995  45.485  19.758  1.00  0.00     0.158 HD
ATOM     17  H11 UNL     1     -17.510  43.889  20.321  1.00  0.00     0.158 HD
ATOM     18  H4  UNL     1     -16.815  43.021  25.005  1.00  0.00     0.185 HD
ENDBRANCH   5   8
ENDBRANCH   1   5
BRANCH   3  19
HETATM   19  C4  UNL     1     -13.867  47.050  26.429  1.00  0.00     0.157 A
HETATM   20  N6  UNL     1     -12.511  47.027  26.168  1.00  0.00    -0.234 N
HETATM   21  O5  UNL     1     -12.080  48.201  26.342  1.00  0.00    -0.156 OA
ATOM     22  H6  UNL     1     -11.962  46.215  25.888  1.00  0.00     0.197 HD
HETATM   23  N7  UNL     1     -12.991  49.017  26.691  1.00  0.00    -0.236 N
HETATM   24  C5  UNL     1     -14.178  48.327  26.764  1.00  0.00     0.133 A
ATOM     25  H7  UNL     1     -12.864  50.011  26.882  1.00  0.00     0.197 HD
BRANCH  24  26
HETATM   26  C6  UNL     1     -15.412  48.996  27.152  1.00  0.00     0.167 C
HETATM   27  N8  UNL     1     -16.599  49.101  26.418  1.00  0.00    -0.078 NA
HETATM   28  N9  UNL     1     -15.458  49.581  28.318  1.00  0.00    -0.253 N
ATOM     29  H9  UNL     1     -16.317  50.053  28.600  1.00  0.00     0.195 HD
BRANCH  28  30
HETATM   30  O6  UNL     1     -14.412  49.581  29.156  1.00  0.00    -0.288 OA
ATOM     31  H6  UNL     1     -14.244  50.301  29.752  1.00  0.00     0.244 HD
ENDBRANCH  28  30
ENDBRANCH  24  26
ENDBRANCH   3  19
TORSDOF 5
ENDMDL