MODEL 3
REMARK VINA RESULT: -6.414959146      5.144      9.784
REMARK  6 active torsions:
REMARK  status: ('A' for Active; 'I' for Inactive)
REMARK    1  A    between atoms: C2_2  and  O1_4
REMARK    2  A    between atoms: C2_2  and  C4_6
REMARK    3  A    between atoms: C5_8  and  N1_9
REMARK       I    between atoms: N4_12  and  C6_13
REMARK    4  A    between atoms: N6_15  and  N7_17
REMARK    5  A    between atoms: C8_22  and  N10_23
REMARK    6  A    between atoms: C10_27  and  N11_28
ROOT
HETATM    1  N1  UNL     1     -16.328  42.989  27.087  1.00  0.00    -0.079 N
HETATM    2  N2  UNL     1     -15.980  43.363  28.305  1.00  0.00     0.012 NA
HETATM    3  N3  UNL     1     -15.641  44.640  28.278  1.00  0.00     0.017 NA
HETATM    4  N4  UNL     1     -15.759  45.127  27.047  1.00  0.00    -0.040 N
HETATM    5  C6  UNL     1     -15.496  46.445  26.583  1.00  0.00     0.244 C
HETATM    6  N5  UNL     1     -14.412  46.730  25.703  1.00  0.00    -0.060 NA
HETATM    7  N6  UNL     1     -16.254  47.404  26.966  1.00  0.00    -0.270 N
ATOM      8  H6  UNL     1     -16.083  48.357  26.647  1.00  0.00     0.189 HD
HETATM    9  C8  UNL     1     -16.193  44.074  26.304  1.00  0.00     0.715 A
ENDROOT
BRANCH   1  10
HETATM   10  C5  UNL     1     -16.759  41.706  26.666  1.00  0.00     0.263 C
HETATM   11  O2  UNL     1     -18.080  41.700  26.167  1.00  0.00    -0.354 OA
HETATM   12  C4  UNL     1     -18.241  40.338  25.918  1.00  0.00     0.188 C
HETATM   13  C10 UNL     1     -17.651  39.600  27.093  1.00  0.00     0.219 C
HETATM   14  C9  UNL     1     -16.940  40.734  27.840  1.00  0.00     0.091 C
BRANCH  12  15
HETATM   15  C2  UNL     1     -19.673  39.966  25.659  1.00  0.00     0.079 C
HETATM   16  C1  UNL     1     -20.109  40.506  24.320  1.00  0.00     0.048 C
HETATM   17  C3  UNL     1     -20.614  40.433  26.715  1.00  0.00     0.048 C
BRANCH  15  18
HETATM   18  O1  UNL     1     -19.723  38.568  25.565  1.00  0.00    -0.388 OA
ATOM     19  H1  UNL     1     -20.000  38.363  24.680  1.00  0.00     0.210 HD
ENDBRANCH  15  18
ENDBRANCH  12  15
BRANCH  13  20
HETATM   20  N11 UNL     1     -16.641  38.674  26.623  1.00  0.00    -0.072 N
ATOM     21 3H11 UNL     1     -16.091  38.282  27.388  1.00  0.00     0.274 HD
ATOM     22 2H11 UNL     1     -17.046  37.805  26.275  1.00  0.00     0.274 HD
ATOM     23 1H11 UNL     1     -16.056  39.134  25.924  1.00  0.00     0.274 HD
ENDBRANCH  13  20
ENDBRANCH   1  10
BRANCH   9  24
HETATM   24  N10 UNL     1     -16.432  44.143  25.032  1.00  0.00    -0.232 N
ATOM     25 2H10 UNL     1     -16.590  43.326  24.442  1.00  0.00     0.174 HD
ATOM     26 1H10 UNL     1     -16.492  44.993  24.470  1.00  0.00     0.174 HD
ENDBRANCH   9  24
BRANCH   7  27
HETATM   27  N7  UNL     1     -17.313  47.126  27.825  1.00  0.00    -0.274 N
HETATM   28  C7  UNL     1     -17.344  47.716  28.992  1.00  0.00     0.215 C
HETATM   29  N8  UNL     1     -16.335  48.625  29.400  1.00  0.00    -0.065 NA
HETATM   30  N9  UNL     1     -18.463  47.378  29.819  1.00  0.00    -0.065 NA
ATOM     31  H7  UNL     1     -18.049  46.475  27.551  1.00  0.00     0.189 HD
ENDBRANCH   7  27
TORSDOF 6
ENDMDL