MODEL 3
REMARK VINA RESULT: -5.776429188      3.284      7.321
REMARK  5 active torsions:
REMARK  status: ('A' for Active; 'I' for Inactive)
REMARK    1  A    between atoms: C3_7  and  N4_8
REMARK    2  A    between atoms: N4_8  and  C4_10
REMARK    3  A    between atoms: C7_18  and  O1_19
REMARK    4  A    between atoms: O1_19  and  C8_20
REMARK    5  A    between atoms: C8_20  and  C9_21
ROOT
HETATM    1  C4  UNL     1     -17.359  42.628  26.454  1.00  0.00     0.216 C
HETATM    2  N5  UNL     1     -16.272  43.342  25.823  1.00  0.00    -0.341 N
ATOM      3  H5  UNL     1     -15.844  42.974  24.974  1.00  0.00     0.164 HD
HETATM    4  C5  UNL     1     -15.795  44.573  26.393  1.00  0.00     0.185 C
HETATM    5  N6  UNL     1     -14.551  45.096  25.956  1.00  0.00    -0.064 NA
HETATM    6  N7  UNL     1     -16.457  45.221  27.290  1.00  0.00    -0.362 N
ATOM      7  H7  UNL     1     -16.102  46.093  27.683  1.00  0.00     0.162 HD
HETATM    8  C6  UNL     1     -17.722  44.664  27.716  1.00  0.00     0.158 C
HETATM    9  C7  UNL     1     -17.547  43.147  27.863  1.00  0.00     0.182 C
ENDROOT
BRANCH   1  10
HETATM   10  N4  UNL     1     -17.335  41.225  26.318  1.00  0.00    -0.351 N
ATOM     11  H4  UNL     1     -16.660  40.763  26.928  1.00  0.00     0.163 HD
BRANCH  10  12
HETATM   12  C3  UNL     1     -17.986  40.431  25.588  1.00  0.00     0.136 A
HETATM   13  C2  UNL     1     -17.686  39.089  25.603  1.00  0.00     0.135 A
HETATM   14  N3  UNL     1     -16.783  38.358  26.269  1.00  0.00    -0.277 N
HETATM   15  C11 UNL     1     -18.386  38.177  24.808  1.00  0.00     0.153 A
HETATM   16  N2  UNL     1     -16.908  37.089  25.919  1.00  0.00    -0.018 NA
ATOM     17  H3  UNL     1     -16.107  38.723  26.940  1.00  0.00     0.184 HD
HETATM   18  N1  UNL     1     -17.875  36.946  25.032  1.00  0.00    -0.263 N
HETATM   19  C1  UNL     1     -18.358  35.753  24.376  1.00  0.00     0.177 C
HETATM   20  N11 UNL     1     -19.374  38.654  24.018  1.00  0.00    -0.336 N
HETATM   21  C10 UNL     1     -19.668  39.965  24.002  1.00  0.00     0.183 A
ATOM     22  H11 UNL     1     -19.902  38.012  23.427  1.00  0.00     0.168 HD
HETATM   23  N10 UNL     1     -18.970  40.843  24.790  1.00  0.00    -0.337 N
ATOM     24  H10 UNL     1     -19.210  41.834  24.765  1.00  0.00     0.168 HD
ENDBRANCH  10  12
ENDBRANCH   1  10
BRANCH   9  25
HETATM   25  O1  UNL     1     -18.724  42.665  28.427  1.00  0.00    -0.373 OA
BRANCH  25  26
HETATM   26  C8  UNL     1     -19.609  43.733  28.586  1.00  0.00     0.240 C
BRANCH  26  27
HETATM   27  C9  UNL     1     -20.551  43.411  29.678  1.00  0.00     0.110 C
HETATM   28  N8  UNL     1     -20.856  42.198  29.960  1.00  0.00    -0.389 N
ATOM     29  H82 UNL     1     -20.439  41.440  29.418  1.00  0.00     0.157 HD
ATOM     30  H81 UNL     1     -21.506  41.975  30.714  1.00  0.00     0.157 HD
HETATM   31  N9  UNL     1     -21.128  44.460  30.428  1.00  0.00    -0.086 NA
ENDBRANCH  26  27
ENDBRANCH  25  26
ENDBRANCH   9  25
TORSDOF 5
ENDMDL