MODEL 4
REMARK VINA RESULT: -5.290464336      5.273      8.326
REMARK  9 active torsions:
REMARK  status: ('A' for Active; 'I' for Inactive)
REMARK    1  A    between atoms: C2_2  and  O1_3
REMARK    2  A    between atoms: O1_3  and  C3_4
REMARK    3  A    between atoms: C3_4  and  N1_5
REMARK    4  A    between atoms: C6_10  and  N3_11
REMARK    5  A    between atoms: N3_11  and  N4_13
REMARK    6  A    between atoms: N6_19  and  C8_21
REMARK    7  A    between atoms: C8_21  and  N7_22
REMARK    8  A    between atoms: C8_21  and  O2_26
REMARK    9  A    between atoms: O2_26  and  N8_27
ROOT
HETATM    1  N1  UNL     1     -18.610  47.095  20.494  1.00  0.00    -0.282 N
HETATM    2  C4  UNL     1     -18.544  46.132  19.532  1.00  0.00     0.192 A
HETATM    3  N2  UNL     1     -18.394  44.948  20.148  1.00  0.00    -0.346 N
ATOM      4  H2  UNL     1     -18.316  44.045  19.681  1.00  0.00     0.167 HD
HETATM    5  C5  UNL     1     -18.364  45.140  21.456  1.00  0.00     0.124 A
HETATM    6  C6  UNL     1     -18.214  44.118  22.384  1.00  0.00     0.152 C
HETATM    7  N5  UNL     1     -17.817  44.291  23.658  1.00  0.00    -0.323 N
ATOM      8  H5  UNL     1     -17.654  43.432  24.183  1.00  0.00     0.169 HD
HETATM    9  C7  UNL     1     -17.603  45.442  24.347  1.00  0.00     0.150 C
HETATM   10  N6  UNL     1     -16.791  45.424  25.331  1.00  0.00    -0.323 N
ATOM     11  H6  UNL     1     -16.659  46.309  25.821  1.00  0.00     0.165 HD
HETATM   12  C9  UNL     1     -18.186  46.666  24.092  1.00  0.00     0.147 C
HETATM   13  N9  UNL     1     -18.452  47.478  25.033  1.00  0.00    -0.378 N
ATOM     14  H9  UNL     1     -18.881  48.357  24.744  1.00  0.00     0.160 HD
HETATM   15  C10 UNL     1     -18.238  47.336  26.434  1.00  0.00     0.148 C
HETATM   16  N10 UNL     1     -18.541  47.135  22.854  1.00  0.00    -0.323 N
ATOM     17  H10 UNL     1     -18.883  48.096  22.830  1.00  0.00     0.169 HD
HETATM   18  C11 UNL     1     -18.503  46.517  21.692  1.00  0.00     0.146 A
ENDROOT
BRANCH  10  19
HETATM   19  C8  UNL     1     -16.046  44.315  25.826  1.00  0.00     0.451 C
BRANCH  19  20
HETATM   20  N7  UNL     1     -16.486  44.096  27.212  1.00  0.00    -0.033 N
ATOM     21  H73 UNL     1     -17.478  44.288  27.355  1.00  0.00     0.279 HD
ATOM     22  H72 UNL     1     -16.508  43.111  27.477  1.00  0.00     0.279 HD
ATOM     23  H71 UNL     1     -15.877  44.659  27.805  1.00  0.00     0.279 HD
ENDBRANCH  19  20
BRANCH  19  24
HETATM   24  O2  UNL     1     -14.656  44.581  25.833  1.00  0.00    -0.232 OA
BRANCH  24  25
HETATM   25  N8  UNL     1     -14.445  45.904  25.998  1.00  0.00    -0.307 N
ATOM     26  H82 UNL     1     -15.146  46.559  26.345  1.00  0.00     0.184 HD
ATOM     27  H81 UNL     1     -13.491  46.138  25.725  1.00  0.00     0.184 HD
ENDBRANCH  24  25
ENDBRANCH  19  24
ENDBRANCH  10  19
BRANCH   6  28
HETATM   28  N3  UNL     1     -18.476  42.944  21.977  1.00  0.00    -0.290 N
ATOM     29  H3  UNL     1     -18.273  42.744  20.998  1.00  0.00     0.188 HD
BRANCH  28  30
HETATM   30  N4  UNL     1     -19.005  41.915  22.715  1.00  0.00    -0.344 N
ATOM     31  H42 UNL     1     -18.595  40.997  22.543  1.00  0.00     0.176 HD
ATOM     32  H41 UNL     1     -19.754  41.978  23.405  1.00  0.00     0.176 HD
ENDBRANCH  28  30
ENDBRANCH   6  28
BRANCH   1  33
HETATM   33  C3  UNL     1     -18.748  48.477  20.177  1.00  0.00     0.235 C
BRANCH  33  34
HETATM   34  O1  UNL     1     -18.314  49.346  21.153  1.00  0.00    -0.346 OA
BRANCH  34  35
HETATM   35  C2  UNL     1     -18.711  50.647  21.029  1.00  0.00     0.171 C
HETATM   36  C1  UNL     1     -17.970  51.221  19.816  1.00  0.00     0.034 C
ENDBRANCH  34  35
ENDBRANCH  33  34
ENDBRANCH   1  33
TORSDOF 9
ENDMDL