MODEL 2
REMARK VINA RESULT: -5.780578884      2.510      3.624
REMARK  10 active torsions:
REMARK  status: ('A' for Active; 'I' for Inactive)
REMARK    1  A    between atoms: C2_2  and  O1_3
REMARK    2  A    between atoms: C2_2  and  C3_5
REMARK    3  A    between atoms: C3_5  and  N1_6
REMARK    4  A    between atoms: C4_7  and  C5_8
REMARK    5  A    between atoms: C6_9  and  N2_10
REMARK    6  A    between atoms: N2_10  and  N3_11
REMARK    7  A    between atoms: N2_10  and  O2_14
REMARK    8  A    between atoms: C8_19  and  C9_20
REMARK    9  A    between atoms: N5_21  and  N6_23
REMARK   10  A    between atoms: N6_23  and  C10_25
ROOT
HETATM    1  N1  UNL     1     -18.129  40.790  26.219  1.00  0.00    -0.301 N
HETATM    2  C4  UNL     1     -16.955  41.178  26.727  1.00  0.00     0.109 A
HETATM    3  C7  UNL     1     -16.000  40.208  27.082  1.00  0.00     0.128 A
HETATM    4  N4  UNL     1     -16.244  38.897  26.922  1.00  0.00    -0.357 N
ATOM      5  H4  UNL     1     -15.544  38.202  27.182  1.00  0.00     0.165 HD
HETATM    6  C8  UNL     1     -17.426  38.519  26.411  1.00  0.00     0.118 A
HETATM    7  C13 UNL     1     -18.356  39.477  26.065  1.00  0.00     0.277 A
HETATM    8  O3  UNL     1     -19.443  39.092  25.595  1.00  0.00    -0.265 OA
ENDROOT
BRANCH   6   9
HETATM    9  C9  UNL     1     -17.676  37.093  26.244  1.00  0.00     0.142 C
HETATM   10  N5  UNL     1     -16.879  36.334  25.589  1.00  0.00    -0.308 N
ATOM     11  H5  UNL     1     -16.036  36.721  25.163  1.00  0.00     0.186 HD
BRANCH  10  12
HETATM   12  N6  UNL     1     -17.168  34.981  25.461  1.00  0.00    -0.288 N
ATOM     13  H6  UNL     1     -16.871  34.331  26.189  1.00  0.00     0.188 HD
BRANCH  12  14
HETATM   14  C10 UNL     1     -17.879  34.488  24.316  1.00  0.00     0.119 C
HETATM   15  N7  UNL     1     -18.513  35.202  23.452  1.00  0.00    -0.354 N
HETATM   16  C11 UNL     1     -19.117  34.375  22.424  1.00  0.00     0.356 C
ATOM     17  H7  UNL     1     -18.583  36.219  23.487  1.00  0.00     0.162 HD
HETATM   18  N8  UNL     1     -18.445  33.082  22.530  1.00  0.00    -0.053 N
HETATM   19  C12 UNL     1     -18.024  33.079  23.906  1.00  0.00     0.311 C
ATOM     20  H82 UNL     1     -19.005  32.278  22.246  1.00  0.00     0.279 HD
ATOM     21  H81 UNL     1     -17.701  32.924  21.850  1.00  0.00     0.279 HD
ENDBRANCH  12  14
ENDBRANCH  10  12
ENDBRANCH   6   9
BRANCH   1  22
HETATM   22  C3  UNL     1     -19.115  41.728  25.809  1.00  0.00     0.164 C
BRANCH  22  23
HETATM   23  C2  UNL     1     -18.950  42.352  24.473  1.00  0.00     0.132 C
HETATM   24  C1  UNL     1     -20.023  43.284  24.030  1.00  0.00     0.041 C
BRANCH  23  25
HETATM   25  O1  UNL     1     -18.933  41.289  23.533  1.00  0.00    -0.394 OA
ATOM     26  H1  UNL     1     -18.290  40.665  23.848  1.00  0.00     0.210 HD
ENDBRANCH  23  25
ENDBRANCH  22  23
ENDBRANCH   1  22
BRANCH   2  27
HETATM   27  C5  UNL     1     -16.631  42.561  26.965  1.00  0.00    -0.020 C
HETATM   28  C6  UNL     1     -16.337  43.713  27.171  1.00  0.00     0.066 C
BRANCH  28  29
HETATM   29  N2  UNL     1     -16.017  45.059  27.408  1.00  0.00    -0.123 N
BRANCH  29  30
HETATM   30  N3  UNL     1     -15.462  45.897  26.467  1.00  0.00    -0.311 N
ATOM     31  H32 UNL     1     -15.408  46.898  26.660  1.00  0.00     0.180 HD
ATOM     32  H31 UNL     1     -15.092  45.585  25.570  1.00  0.00     0.180 HD
ENDBRANCH  29  30
BRANCH  29  33
HETATM   33  O2  UNL     1     -16.281  45.535  28.645  1.00  0.00    -0.261 OA
ATOM     34  H2  UNL     1     -15.680  46.186  28.987  1.00  0.00     0.247 HD
ENDBRANCH  29  33
ENDBRANCH  28  29
ENDBRANCH   2  27
TORSDOF 10
ENDMDL