MODEL 3
REMARK VINA RESULT: -6.251067376      1.705      2.827
REMARK  7 active torsions:
REMARK  status: ('A' for Active; 'I' for Inactive)
REMARK    1  A    between atoms: N1_2  and  C2_4
REMARK    2  A    between atoms: C5_11  and  N4_12
REMARK    3  A    between atoms: N4_12  and  C6_14
REMARK    4  A    between atoms: C6_14  and  C7_15
REMARK    5  A    between atoms: C7_15  and  O1_16
REMARK    6  A    between atoms: O1_16  and  N5_17
REMARK    7  A    between atoms: C9_22  and  N9_23
ROOT
HETATM    1  C2  UNL     1     -17.378  39.051  26.161  1.00  0.00     0.131 A
HETATM    2  N2  UNL     1     -16.236  39.244  26.829  1.00  0.00    -0.337 N
ATOM      3  H2  UNL     1     -15.405  38.690  26.623  1.00  0.00     0.168 HD
HETATM    4  C3  UNL     1     -16.219  40.185  27.775  1.00  0.00     0.182 A
HETATM    5  N3  UNL     1     -17.290  40.917  28.058  1.00  0.00    -0.347 N
ATOM      6  H3  UNL     1     -17.212  41.620  28.792  1.00  0.00     0.167 HD
HETATM    7  C4  UNL     1     -18.465  40.783  27.436  1.00  0.00     0.108 A
HETATM    8  C5  UNL     1     -19.554  41.540  27.738  1.00  0.00     0.135 A
HETATM    9  N10 UNL     1     -20.681  41.287  27.016  1.00  0.00    -0.337 N
ATOM     10  H10 UNL     1     -21.523  41.831  27.206  1.00  0.00     0.168 HD
HETATM   11  C10 UNL     1     -20.717  40.345  26.063  1.00  0.00     0.182 A
HETATM   12  N11 UNL     1     -19.636  39.601  25.771  1.00  0.00    -0.347 N
ATOM     13  H11 UNL     1     -19.685  38.891  25.041  1.00  0.00     0.167 HD
HETATM   14  C11 UNL     1     -18.492  39.797  26.442  1.00  0.00     0.108 A
ENDROOT
BRANCH   8  15
HETATM   15  N4  UNL     1     -19.612  42.427  28.597  1.00  0.00    -0.352 N
ATOM     16  H4  UNL     1     -19.163  42.125  29.461  1.00  0.00     0.166 HD
BRANCH  15  17
HETATM   17  C6  UNL     1     -20.115  43.723  28.724  1.00  0.00     0.090 C
BRANCH  17  18
HETATM   18  C7  UNL     1     -19.040  44.747  28.395  1.00  0.00     0.238 C
BRANCH  18  19
HETATM   19  O1  UNL     1     -18.579  44.621  27.085  1.00  0.00    -0.294 OA
BRANCH  19  20
HETATM   20  N5  UNL     1     -17.278  44.297  27.152  1.00  0.00    -0.134 NA
HETATM   21  C8  UNL     1     -16.463  45.378  27.667  1.00  0.00     0.256 C
HETATM   22  N6  UNL     1     -15.077  45.039  27.404  1.00  0.00    -0.113 NA
HETATM   23  N7  UNL     1     -14.791  45.042  26.036  1.00  0.00    -0.035 NA
HETATM   24  N8  UNL     1     -15.834  44.603  25.253  1.00  0.00    -0.079 NA
HETATM   25  C9  UNL     1     -16.755  43.727  25.949  1.00  0.00     0.394 C
BRANCH  25  26
HETATM   26  N9  UNL     1     -17.772  43.327  25.011  1.00  0.00    -0.045 N
ATOM     27  H93 UNL     1     -17.997  42.339  25.123  1.00  0.00     0.278 HD
ATOM     28  H92 UNL     1     -18.673  43.736  25.260  1.00  0.00     0.278 HD
ATOM     29  H91 UNL     1     -17.537  43.536  24.041  1.00  0.00     0.278 HD
ENDBRANCH  25  26
ENDBRANCH  19  20
ENDBRANCH  18  19
ENDBRANCH  17  18
ENDBRANCH  15  17
ENDBRANCH   8  15
BRANCH   1  30
HETATM   30  N1  UNL     1     -17.397  38.137  25.243  1.00  0.00    -0.379 N
HETATM   31  C1  UNL     1     -17.403  36.732  25.568  1.00  0.00     0.147 C
ATOM     32  H1  UNL     1     -17.407  38.419  24.264  1.00  0.00     0.160 HD
ENDBRANCH   1  30
TORSDOF 7
ENDMDL