MODEL 3
REMARK VINA RESULT: -5.744129110      2.944      4.200
REMARK  8 active torsions:
REMARK  status: ('A' for Active; 'I' for Inactive)
REMARK    1  A    between atoms: N2_3  and  O1_4
REMARK       I    between atoms: N2_3  and  C2_6
REMARK    2  A    between atoms: C2_6  and  C3_8
REMARK    3  A    between atoms: N4_12  and  N5_14
REMARK    4  A    between atoms: C6_18  and  N6_19
REMARK    5  A    between atoms: N6_19  and  N8_23
REMARK    6  A    between atoms: N10_28  and  C7_29
REMARK    7  A    between atoms: C7_29  and  C8_30
REMARK    8  A    between atoms: C8_30  and  O3_31
ROOT
HETATM    1  N1  UNL     1     -19.902  45.064  23.058  1.00  0.00    -0.169 NA
HETATM    2  C1  UNL     1     -19.708  43.930  23.041  1.00  0.00     0.214 C
HETATM    3  N2  UNL     1     -19.440  42.515  23.009  1.00  0.00    -0.114 N
HETATM    4  C2  UNL     1     -19.269  41.875  24.239  1.00  0.00     0.325 C
HETATM    5  O2  UNL     1     -19.361  42.592  25.316  1.00  0.00    -0.261 OA
ENDROOT
BRANCH   3   6
HETATM    6  O1  UNL     1     -19.370  41.905  21.816  1.00  0.00    -0.271 OA
ATOM      7  H1  UNL     1     -20.085  42.027  21.203  1.00  0.00     0.246 HD
ENDBRANCH   3   6
BRANCH   4   8
HETATM    8  C3  UNL     1     -18.994  40.477  24.492  1.00  0.00     0.181 A
HETATM    9  N3  UNL     1     -17.965  40.130  25.334  1.00  0.00    -0.322 N
HETATM   10  C4  UNL     1     -17.642  38.874  25.621  1.00  0.00     0.139 A
ATOM     11  H3  UNL     1     -17.420  40.877  25.763  1.00  0.00     0.169 HD
HETATM   12  N4  UNL     1     -16.670  38.560  26.410  1.00  0.00    -0.291 N
HETATM   13  C5  UNL     1     -18.389  37.877  25.034  1.00  0.00     0.104 A
ATOM     14  H4  UNL     1     -16.488  37.571  26.578  1.00  0.00     0.188 HD
HETATM   15  C6  UNL     1     -18.364  36.486  25.080  1.00  0.00     0.176 A
HETATM   16  C9  UNL     1     -19.428  38.178  24.184  1.00  0.00     0.142 A
HETATM   17  N9  UNL     1     -19.335  36.046  24.299  1.00  0.00    -0.278 N
HETATM   18  N10 UNL     1     -20.005  37.034  23.735  1.00  0.00    -0.272 N
ATOM     19  H9  UNL     1     -19.542  35.059  24.149  1.00  0.00     0.189 HD
HETATM   20  N11 UNL     1     -19.690  39.473  23.945  1.00  0.00    -0.322 N
ATOM     21  H11 UNL     1     -20.460  39.703  23.316  1.00  0.00     0.169 HD
BRANCH  12  22
HETATM   22  N5  UNL     1     -15.856  39.495  27.046  1.00  0.00    -0.344 N
ATOM     23  H52 UNL     1     -14.868  39.499  26.792  1.00  0.00     0.176 HD
ATOM     24  H51 UNL     1     -16.194  40.163  27.738  1.00  0.00     0.176 HD
ENDBRANCH  12  22
BRANCH  15  25
HETATM   25  N6  UNL     1     -17.415  35.779  25.867  1.00  0.00    -0.191 N
HETATM   26  N7  UNL     1     -17.719  35.546  27.071  1.00  0.00    -0.323 N
ATOM     27  H72 UNL     1     -18.609  35.855  27.463  1.00  0.00     0.179 HD
ATOM     28  H71 UNL     1     -17.038  35.038  27.636  1.00  0.00     0.179 HD
BRANCH  25  29
HETATM   29  N8  UNL     1     -16.203  35.358  25.332  1.00  0.00    -0.323 N
ATOM     30  H82 UNL     1     -16.147  34.954  24.398  1.00  0.00     0.179 HD
ATOM     31  H81 UNL     1     -15.333  35.445  25.857  1.00  0.00     0.179 HD
ENDBRANCH  25  29
ENDBRANCH  15  25
BRANCH  18  32
HETATM   32  C7  UNL     1     -21.111  36.933  22.833  1.00  0.00     0.177 C
BRANCH  32  33
HETATM   33  C8  UNL     1     -20.761  37.108  21.386  1.00  0.00     0.185 C
BRANCH  33  34
HETATM   34  O3  UNL     1     -20.767  38.489  21.081  1.00  0.00    -0.399 OA
ATOM     35  H3  UNL     1     -19.870  38.803  21.069  1.00  0.00     0.209 HD
ENDBRANCH  33  34
ENDBRANCH  32  33
ENDBRANCH  18  32
ENDBRANCH   4   8
TORSDOF 8
ENDMDL