MODEL 3
REMARK VINA RESULT: -6.132883667      2.190      2.414
REMARK  8 active torsions:
REMARK  status: ('A' for Active; 'I' for Inactive)
REMARK    1  A    between atoms: N1_1  and  C1_4
REMARK    2  A    between atoms: C2_10  and  C3_11
REMARK       I    between atoms: C3_11  and  N5_13
REMARK    3  A    between atoms: N5_13  and  N6_15
REMARK    4  A    between atoms: N8_22  and  C6_23
REMARK    5  A    between atoms: C6_23  and  C7_24
REMARK       I    between atoms: C7_24  and  N9_26
REMARK    6  A    between atoms: N9_26  and  C8_28
REMARK    7  A    between atoms: C8_28  and  C9_29
REMARK    8  A    between atoms: C9_29  and  O3_30
ROOT
HETATM    1  C1  UNL     1     -21.661  38.724  23.778  1.00  0.00     0.164 A
HETATM    2  N2  UNL     1     -21.363  37.617  23.076  1.00  0.00    -0.259 N
ATOM      3  H2  UNL     1     -21.855  37.013  22.419  1.00  0.00     0.191 HD
HETATM    4  N3  UNL     1     -20.153  37.655  23.607  1.00  0.00    -0.173 N
HETATM    5  N4  UNL     1     -18.959  37.040  23.646  1.00  0.00    -0.270 N
ATOM      6  H4  UNL     1     -18.683  36.561  22.789  1.00  0.00     0.189 HD
HETATM    7  C2  UNL     1     -18.076  36.970  24.658  1.00  0.00     0.150 C
HETATM    8  C4  UNL     1     -17.795  37.964  25.566  1.00  0.00     0.112 A
HETATM    9  N7  UNL     1     -16.721  37.975  26.403  1.00  0.00    -0.347 N
ATOM     10  H7  UNL     1     -16.000  37.256  26.460  1.00  0.00     0.167 HD
HETATM   11  C5  UNL     1     -16.777  39.095  27.138  1.00  0.00     0.185 A
HETATM   12  N8  UNL     1     -17.864  39.802  26.787  1.00  0.00    -0.319 N
HETATM   13  C10 UNL     1     -18.502  39.118  25.819  1.00  0.00     0.140 A
HETATM   14  N10 UNL     1     -19.653  39.530  25.215  1.00  0.00    -0.321 N
ATOM     15  H10 UNL     1     -19.960  40.479  25.428  1.00  0.00     0.169 HD
HETATM   16  C11 UNL     1     -20.436  38.824  24.363  1.00  0.00     0.192 A
ENDROOT
BRANCH  12  17
HETATM   17  C6  UNL     1     -18.345  41.067  27.294  1.00  0.00     0.234 C
BRANCH  17  18
HETATM   18  C7  UNL     1     -17.298  42.084  27.394  1.00  0.00     0.235 C
HETATM   19  O2  UNL     1     -16.739  42.340  28.485  1.00  0.00    -0.272 OA
HETATM   20  N9  UNL     1     -16.904  42.795  26.240  1.00  0.00    -0.358 N
ATOM     21  H9  UNL     1     -17.369  42.569  25.361  1.00  0.00     0.162 HD
BRANCH  20  22
HETATM   22  C8  UNL     1     -15.891  43.817  26.218  1.00  0.00     0.148 C
BRANCH  22  23
HETATM   23  C9  UNL     1     -16.275  45.007  27.045  1.00  0.00     0.183 C
BRANCH  23  24
HETATM   24  O3  UNL     1     -15.539  44.970  28.229  1.00  0.00    -0.399 OA
ATOM     25  H3  UNL     1     -16.062  45.368  28.915  1.00  0.00     0.209 HD
ENDBRANCH  23  24
ENDBRANCH  22  23
ENDBRANCH  20  22
ENDBRANCH  17  18
ENDBRANCH  12  17
BRANCH   7  26
HETATM   26  C3  UNL     1     -17.328  35.739  24.841  1.00  0.00     0.290 C
HETATM   27  O1  UNL     1     -16.078  35.779  24.724  1.00  0.00    -0.264 OA
HETATM   28  N5  UNL     1     -17.988  34.503  25.150  1.00  0.00    -0.271 N
ATOM     29  H5  UNL     1     -19.002  34.470  25.246  1.00  0.00     0.189 HD
BRANCH  28  30
HETATM   30  N6  UNL     1     -17.230  33.352  25.316  1.00  0.00    -0.342 N
ATOM     31  H62 UNL     1     -17.345  32.794  26.161  1.00  0.00     0.176 HD
ATOM     32  H61 UNL     1     -16.568  33.082  24.589  1.00  0.00     0.176 HD
ENDBRANCH  28  30
ENDBRANCH   7  26
BRANCH   1  33
HETATM   33  N1  UNL     1     -22.732  39.442  23.869  1.00  0.00    -0.381 N
ATOM     34  H12 UNL     1     -23.712  39.243  23.671  1.00  0.00     0.157 HD
ATOM     35  H11 UNL     1     -22.897  40.405  24.162  1.00  0.00     0.157 HD
ENDBRANCH   1  33
TORSDOF 8
ENDMDL