MODEL 3
REMARK VINA RESULT: -6.105089257      2.457      6.996
REMARK  6 active torsions:
REMARK  status: ('A' for Active; 'I' for Inactive)
REMARK    1  A    between atoms: N1_1  and  N2_4
REMARK       I    between atoms: N6_10  and  C2_12
REMARK    2  A    between atoms: C2_12  and  C3_14
REMARK    3  A    between atoms: C5_16  and  C6_17
REMARK    4  A    between atoms: C6_17  and  O2_18
REMARK    5  A    between atoms: C6_17  and  O3_20
REMARK    6  A    between atoms: C7_22  and  N7_23
ROOT
HETATM    1  C3  UNL     1     -19.039  40.170  24.838  1.00  0.00     0.117 A
HETATM    2  C4  UNL     1     -20.084  39.297  25.022  1.00  0.00     0.052 A
HETATM    3  C5  UNL     1     -19.950  37.912  24.905  1.00  0.00     0.043 A
HETATM    4  C7  UNL     1     -18.716  37.428  24.591  1.00  0.00     0.129 A
HETATM    5  N8  UNL     1     -17.697  38.336  24.416  1.00  0.00    -0.284 N
ATOM      6  H8  UNL     1     -16.770  37.981  24.183  1.00  0.00     0.188 HD
HETATM    7  N9  UNL     1     -17.851  39.631  24.533  1.00  0.00    -0.294 N
ATOM      8  H9  UNL     1     -17.048  40.243  24.388  1.00  0.00     0.187 HD
ENDROOT
BRANCH   1   9
HETATM    9  C2  UNL     1     -19.232  41.613  24.973  1.00  0.00     0.287 C
HETATM   10  N6  UNL     1     -18.140  42.422  25.280  1.00  0.00    -0.150 N
HETATM   11  C1  UNL     1     -17.582  42.570  26.421  1.00  0.00     0.732 C
ATOM     12  H6  UNL     1     -17.742  42.957  24.509  1.00  0.00     0.188 HD
HETATM   13  N2  UNL     1     -17.873  41.991  27.686  1.00  0.00    -0.012 N
HETATM   14  N5  UNL     1     -16.454  43.421  26.687  1.00  0.00    -0.115 N
HETATM   15  N3  UNL     1     -16.767  42.217  28.528  1.00  0.00     0.030 NA
HETATM   16  N4  UNL     1     -16.242  43.432  28.073  1.00  0.00     0.008 NA
ATOM     17  H5  UNL     1     -15.905  43.926  25.991  1.00  0.00     0.203 HD
HETATM   18  O1  UNL     1     -20.389  42.120  24.809  1.00  0.00    -0.265 OA
BRANCH  13  19
HETATM   19  N1  UNL     1     -19.013  41.325  28.064  1.00  0.00    -0.311 N
ATOM     20  H12 UNL     1     -19.287  41.039  29.005  1.00  0.00     0.179 HD
ATOM     21  H11 UNL     1     -19.746  41.026  27.422  1.00  0.00     0.179 HD
ENDBRANCH  13  19
ENDBRANCH   1   9
BRANCH   3  22
HETATM   22  C6  UNL     1     -21.116  37.033  25.128  1.00  0.00     0.292 C
BRANCH  22  23
HETATM   23  O2  UNL     1     -22.320  37.547  24.718  1.00  0.00    -0.367 OA
ATOM     24  H2  UNL     1     -23.000  36.903  24.560  1.00  0.00     0.213 HD
ENDBRANCH  22  23
BRANCH  22  25
HETATM   25  O3  UNL     1     -21.119  36.440  26.386  1.00  0.00    -0.367 OA
ATOM     26  H3  UNL     1     -21.443  35.547  26.376  1.00  0.00     0.213 HD
ENDBRANCH  22  25
ENDBRANCH   3  22
BRANCH   4  27
HETATM   27  N7  UNL     1     -18.422  36.041  24.423  1.00  0.00    -0.366 N
HETATM   28  C8  UNL     1     -18.670  35.131  23.350  1.00  0.00     0.124 C
HETATM   29  C9  UNL     1     -18.680  33.752  23.966  1.00  0.00     0.021 C
HETATM   30  C10 UNL     1     -17.659  33.882  25.066  1.00  0.00     0.021 C
HETATM   31  C11 UNL     1     -17.733  35.320  25.474  1.00  0.00     0.124 C
ENDBRANCH   4  27
TORSDOF 6
ENDMDL