MODEL 2
REMARK VINA RESULT: -5.010679666      1.880      2.189
REMARK  3 active torsions:
REMARK  status: ('A' for Active; 'I' for Inactive)
REMARK    1  A    between atoms: N1_1  and  C1_4
REMARK    2  A    between atoms: N2_7  and  C4_8
REMARK    3  A    between atoms: C4_8  and  C5_9
ROOT
HETATM    1  C1  UNL     1     -63.098 -42.362  49.476  1.00  0.00     0.103 A
HETATM    2  C2  UNL     1     -63.501 -43.344  50.339  1.00  0.00     0.065 A
HETATM    3  C3  UNL     1     -63.280 -43.250  51.688  1.00  0.00     0.099 A
HETATM    4  N2  UNL     1     -62.651 -42.173  52.223  1.00  0.00    -0.307 N
HETATM    5  C8  UNL     1     -62.264 -41.220  51.359  1.00  0.00     0.328 A
HETATM    6  O2  UNL     1     -61.678 -40.196  51.796  1.00  0.00    -0.246 OA
HETATM    7  N6  UNL     1     -62.466 -41.285  50.030  1.00  0.00    -0.295 N
ATOM      8  H6  UNL     1     -62.144 -40.524  49.432  1.00  0.00     0.172 HD
ENDROOT
BRANCH   4   9
HETATM    9  C4  UNL     1     -62.456 -42.168  53.620  1.00  0.00     0.168 C
BRANCH   9  10
HETATM   10  C5  UNL     1     -63.493 -41.591  54.495  1.00  0.00     0.195 C
HETATM   11  N3  UNL     1     -63.533 -40.131  54.322  1.00  0.00    -0.349 N
HETATM   12  C6  UNL     1     -62.482 -39.618  55.125  1.00  0.00     0.191 C
ATOM     13  H3  UNL     1     -64.182 -39.597  53.744  1.00  0.00     0.163 HD
HETATM   14  N4  UNL     1     -61.846 -38.369  54.951  1.00  0.00    -0.063 NA
HETATM   15  N5  UNL     1     -62.198 -40.498  56.055  1.00  0.00    -0.299 N
HETATM   16  C7  UNL     1     -63.056 -41.645  55.913  1.00  0.00     0.248 C
ATOM     17  H5  UNL     1     -61.480 -40.386  56.769  1.00  0.00     0.171 HD
HETATM   18  O1  UNL     1     -63.335 -42.470  56.820  1.00  0.00    -0.271 OA
ENDBRANCH   9  10
ENDBRANCH   4   9
BRANCH   1  19
HETATM   19  N1  UNL     1     -63.282 -42.403  48.200  1.00  0.00    -0.385 N
ATOM     20  H12 UNL     1     -62.847 -43.146  47.653  1.00  0.00     0.157 HD
ATOM     21  H11 UNL     1     -63.846 -41.729  47.683  1.00  0.00     0.157 HD
ENDBRANCH   1  19
TORSDOF 3
ENDMDL