MODEL 2
REMARK VINA RESULT: -5.356876351      2.736      5.761
REMARK  3 active torsions:
REMARK  status: ('A' for Active; 'I' for Inactive)
REMARK    1  A    between atoms: N1_1  and  C1_4
REMARK    2  A    between atoms: C2_7  and  C3_8
REMARK    3  A    between atoms: N3_9  and  N4_11
ROOT
HETATM    1  C1  UNL     1     -63.116 -42.225  49.654  1.00  0.00     0.680 C
HETATM    2  N2  UNL     1     -63.662 -43.370  50.146  1.00  0.00    -0.185 N
ATOM      3  H2  UNL     1     -64.250 -43.913  49.512  1.00  0.00     0.184 HD
HETATM    4  C2  UNL     1     -63.499 -43.847  51.384  1.00  0.00     0.134 C
HETATM    5  C5  UNL     1     -62.752 -43.346  52.422  1.00  0.00     0.278 C
HETATM    6  O1  UNL     1     -62.566 -44.103  53.424  1.00  0.00    -0.265 OA
HETATM    7  N7  UNL     1     -62.159 -42.132  52.555  1.00  0.00    -0.273 N
ATOM      8  H7  UNL     1     -61.593 -41.967  53.387  1.00  0.00     0.173 HD
HETATM    9  C6  UNL     1     -62.270 -41.125  51.655  1.00  0.00     0.341 C
HETATM   10  O2  UNL     1     -62.029 -39.976  52.142  1.00  0.00    -0.246 OA
HETATM   11  N8  UNL     1     -62.595 -41.193  50.352  1.00  0.00    -0.141 N
ATOM     12  H8  UNL     1     -62.424 -40.343  49.815  1.00  0.00     0.189 HD
ENDROOT
BRANCH   4  13
HETATM   13  C3  UNL     1     -64.211 -45.069  51.680  1.00  0.00     0.143 C
HETATM   14  N3  UNL     1     -63.636 -46.201  51.471  1.00  0.00    -0.307 N
ATOM     15  H3  UNL     1     -62.686 -46.193  51.100  1.00  0.00     0.186 HD
BRANCH  14  16
HETATM   16  N4  UNL     1     -64.227 -47.429  51.720  1.00  0.00    -0.276 N
HETATM   17  C4  UNL     1     -63.696 -48.201  52.610  1.00  0.00     0.215 C
HETATM   18  N5  UNL     1     -64.327 -49.451  52.840  1.00  0.00    -0.065 NA
HETATM   19  N6  UNL     1     -62.535 -47.823  53.328  1.00  0.00    -0.065 NA
ATOM     20  H4  UNL     1     -65.064 -47.718  51.212  1.00  0.00     0.189 HD
ENDBRANCH  14  16
ENDBRANCH   4  13
BRANCH   1  21
HETATM   21  N1  UNL     1     -63.077 -42.081  48.393  1.00  0.00    -0.234 N
ATOM     22  H12 UNL     1     -63.990 -42.088  47.938  1.00  0.00     0.174 HD
ATOM     23  H11 UNL     1     -62.162 -41.973  47.955  1.00  0.00     0.174 HD
ENDBRANCH   1  21
TORSDOF 3
ENDMDL