MODEL 5
REMARK VINA RESULT: -4.400411466      2.010      2.083
REMARK  3 active torsions:
REMARK  status: ('A' for Active; 'I' for Inactive)
REMARK    1  A    between atoms: N1_1  and  C1_4
REMARK    2  A    between atoms: C2_7  and  O1_8
REMARK    3  A    between atoms: O1_8  and  C3_9
ROOT
HETATM    1  C1  UNL     1     -63.464 -41.992  49.383  1.00  0.00     0.693 A
HETATM    2  N2  UNL     1     -62.469 -41.282  49.949  1.00  0.00    -0.153 N
ATOM      3  H2  UNL     1     -61.888 -40.602  49.459  1.00  0.00     0.188 HD
HETATM    4  C2  UNL     1     -62.352 -41.595  51.244  1.00  0.00     0.255 A
HETATM    5  N5  UNL     1     -63.285 -42.519  51.509  1.00  0.00    -0.250 N
ATOM      6  H5  UNL     1     -63.454 -42.964  52.411  1.00  0.00     0.191 HD
HETATM    7  N6  UNL     1     -63.947 -42.749  50.388  1.00  0.00    -0.129 N
ATOM      8  H6  UNL     1     -64.717 -43.411  50.296  1.00  0.00     0.205 HD
ENDROOT
BRANCH   4   9
HETATM    9  O1  UNL     1     -61.428 -41.045  52.105  1.00  0.00    -0.296 OA
BRANCH   9  10
HETATM   10  C3  UNL     1     -61.829 -40.488  53.307  1.00  0.00     0.261 C
HETATM   11  C4  UNL     1     -62.716 -39.250  53.123  1.00  0.00     0.216 C
HETATM   12  S1  UNL     1     -62.449 -38.515  54.746  1.00  0.00     0.244 S
HETATM   13  O2  UNL     1     -62.068 -37.088  54.638  1.00  0.00    -0.205 OA
HETATM   14  O3  UNL     1     -63.594 -38.778  55.653  1.00  0.00    -0.205 OA
HETATM   15  N3  UNL     1     -61.094 -39.508  55.239  1.00  0.00    -0.228 N
HETATM   16  N4  UNL     1     -60.663 -40.035  54.027  1.00  0.00    -0.098 NA
ATOM     17  H3  UNL     1     -60.716 -39.661  56.175  1.00  0.00     0.195 HD
ENDBRANCH   9  10
ENDBRANCH   4   9
BRANCH   1  18
HETATM   18  N1  UNL     1     -63.856 -41.944  48.147  1.00  0.00    -0.233 N
ATOM     19  H12 UNL     1     -64.745 -41.609  47.776  1.00  0.00     0.174 HD
ATOM     20  H11 UNL     1     -63.333 -42.240  47.324  1.00  0.00     0.174 HD
ENDBRANCH   1  18
TORSDOF 3
ENDMDL