MODEL 1
REMARK VINA RESULT: -4.669486168      0.000      0.000
REMARK  2 active torsions:
REMARK  status: ('A' for Active; 'I' for Inactive)
REMARK    1  A    between atoms: N4_13  and  C5_14
REMARK    2  A    between atoms: C6_19  and  N7_20
ROOT
HETATM    1  N1  UNL     1     -63.405 -39.616  55.717  1.00  0.00    -0.387 N
ATOM      2  H11 UNL     1     -64.379 -39.314  55.762  1.00  0.00     0.157 HD
ATOM      3  H12 UNL     1     -62.898 -38.845  56.152  1.00  0.00     0.157 HD
HETATM    4  C1  UNL     1     -62.978 -40.721  55.216  1.00  0.00     0.098 C
HETATM    5  N2  UNL     1     -61.608 -41.146  55.152  1.00  0.00    -0.335 N
ATOM      6  H2  UNL     1     -60.802 -40.658  55.542  1.00  0.00     0.164 HD
HETATM    7  C2  UNL     1     -61.591 -42.404  54.424  1.00  0.00     0.394 C
HETATM    8  N3  UNL     1     -62.135 -43.404  55.324  1.00  0.00    -0.034 N
ATOM      9  H31 UNL     1     -61.625 -43.491  56.203  1.00  0.00     0.281 HD
ATOM     10  H32 UNL     1     -61.992 -44.364  55.012  1.00  0.00     0.281 HD
HETATM   11  C3  UNL     1     -63.542 -43.036  55.487  1.00  0.00     0.270 C
HETATM   12  C4  UNL     1     -63.719 -41.850  54.578  1.00  0.00     0.182 C
HETATM   13  N4  UNL     1     -62.733 -42.200  53.538  1.00  0.00    -0.304 N
ENDROOT
BRANCH  13  14
HETATM   14  C5  UNL     1     -62.869 -42.300  52.151  1.00  0.00     0.192 A
HETATM   15  N5  UNL     1     -63.407 -43.339  51.492  1.00  0.00    -0.267 N
HETATM   16  N6  UNL     1     -63.513 -43.386  50.175  1.00  0.00    -0.131 N
ATOM     17  H5  UNL     1     -63.750 -44.132  52.034  1.00  0.00     0.189 HD
HETATM   18  C6  UNL     1     -63.070 -42.356  49.435  1.00  0.00     0.693 A
ATOM     19  H6  UNL     1     -63.929 -44.200  49.723  1.00  0.00     0.205 HD
HETATM   20  N8  UNL     1     -62.528 -41.301  50.037  1.00  0.00    -0.152 N
HETATM   21  C7  UNL     1     -62.410 -41.232  51.376  1.00  0.00     0.305 A
ATOM     22  H8  UNL     1     -62.193 -40.523  49.469  1.00  0.00     0.188 HD
HETATM   23  O1  UNL     1     -61.897 -40.226  51.912  1.00  0.00    -0.263 OA
BRANCH  18  24
HETATM   24  N7  UNL     1     -63.180 -42.414  48.143  1.00  0.00    -0.233 N
ATOM     25  H72 UNL     1     -64.093 -42.414  47.688  1.00  0.00     0.174 HD
ATOM     26  H71 UNL     1     -62.335 -42.462  47.576  1.00  0.00     0.174 HD
ENDBRANCH  18  24
ENDBRANCH  13  14
TORSDOF 2
ENDMDL