MODEL 2
REMARK VINA RESULT: -4.988871590      2.611      7.001
REMARK  7 active torsions:
REMARK  status: ('A' for Active; 'I' for Inactive)
REMARK    1  A    between atoms: N2_4  and  C1_6
REMARK    2  A    between atoms: C2_7  and  C3_8
REMARK    3  A    between atoms: C3_8  and  N3_9
REMARK    4  A    between atoms: C3_8  and  C4_13
REMARK    5  A    between atoms: C4_13  and  O1_14
REMARK    6  A    between atoms: C4_13  and  C5_16
REMARK    7  A    between atoms: C6_17  and  O2_18
ROOT
HETATM    1  C4  UNL     1     -63.762 -44.723  51.673  1.00  0.00     0.105 C
ENDROOT
BRANCH   1   2
HETATM    2  C3  UNL     1     -65.253 -44.779  51.671  1.00  0.00     0.320 C
BRANCH   2   3
HETATM    3  C2  UNL     1     -65.825 -46.138  51.442  1.00  0.00    -0.042 C
HETATM    4  C1  UNL     1     -66.260 -47.202  51.196  1.00  0.00     0.028 C
BRANCH   4   5
HETATM    5  N2  UNL     1     -66.799 -48.495  50.866  1.00  0.00    -0.265 N
HETATM    6  N1  UNL     1     -66.050 -49.525  51.003  1.00  0.00    -0.338 N
ATOM      7  H12 UNL     1     -65.094 -49.414  51.340  1.00  0.00     0.177 HD
ATOM      8  H11 UNL     1     -66.432 -50.441  50.769  1.00  0.00     0.177 HD
ATOM      9  H2  UNL     1     -67.758 -48.589  50.530  1.00  0.00     0.197 HD
ENDBRANCH   4   5
ENDBRANCH   2   3
BRANCH   2  10
HETATM   10  N3  UNL     1     -65.786 -44.331  52.968  1.00  0.00    -0.059 N
ATOM     11  H33 UNL     1     -66.187 -43.393  52.942  1.00  0.00     0.276 HD
ATOM     12  H32 UNL     1     -66.635 -44.819  53.250  1.00  0.00     0.276 HD
ATOM     13  H31 UNL     1     -65.019 -44.428  53.633  1.00  0.00     0.276 HD
ENDBRANCH   2  10
ENDBRANCH   1   2
BRANCH   1  14
HETATM   14  O1  UNL     1     -63.054 -45.827  51.326  1.00  0.00    -0.361 OA
ATOM     15  H1  UNL     1     -63.208 -46.230  50.480  1.00  0.00     0.217 HD
ENDBRANCH   1  14
BRANCH   1  16
HETATM   16  C5  UNL     1     -63.195 -43.382  51.647  1.00  0.00     0.115 A
HETATM   17  C6  UNL     1     -62.882 -42.795  52.855  1.00  0.00     0.162 A
HETATM   18  N4  UNL     1     -62.462 -41.521  52.852  1.00  0.00    -0.288 N
HETATM   19  C7  UNL     1     -62.336 -40.784  51.710  1.00  0.00     0.329 A
ATOM     20  H4  UNL     1     -62.227 -41.083  53.742  1.00  0.00     0.172 HD
HETATM   21  O3  UNL     1     -61.928 -39.576  51.802  1.00  0.00    -0.247 OA
HETATM   22  N5  UNL     1     -62.637 -41.347  50.547  1.00  0.00    -0.275 N
HETATM   23  C8  UNL     1     -63.057 -42.609  50.476  1.00  0.00     0.266 A
ATOM     24  H5  UNL     1     -62.545 -40.802  49.689  1.00  0.00     0.173 HD
HETATM   25  O4  UNL     1     -63.331 -43.122  49.319  1.00  0.00    -0.267 OA
BRANCH  17  26
HETATM   26  O2  UNL     1     -63.005 -43.528  54.047  1.00  0.00    -0.345 OA
ATOM     27  H2  UNL     1     -63.026 -43.077  54.883  1.00  0.00     0.219 HD
ENDBRANCH  17  26
ENDBRANCH   1  16
TORSDOF 7
ENDMDL