MODEL 5
REMARK VINA RESULT: -4.297727448      1.940      3.376
REMARK  5 active torsions:
REMARK  status: ('A' for Active; 'I' for Inactive)
REMARK    1  A    between atoms: C3_6  and  N2_7
REMARK    2  A    between atoms: N2_7  and  O2_8
REMARK    3  A    between atoms: N2_7  and  O3_10
REMARK    4  A    between atoms: C4_12  and  N3_13
REMARK    5  A    between atoms: N3_13  and  C5_15
ROOT
HETATM    1  O1  UNL     1     -64.363 -46.102  53.270  1.00  0.00    -0.247 OA
HETATM    2  C1  UNL     1     -63.984 -45.046  52.697  1.00  0.00     0.325 A
HETATM    3  N1  UNL     1     -64.461 -44.721  51.494  1.00  0.00    -0.317 N
ATOM      4  H1  UNL     1     -65.137 -45.345  51.053  1.00  0.00     0.170 HD
HETATM    5  C2  UNL     1     -64.086 -43.595  50.833  1.00  0.00     0.125 A
HETATM    6  C3  UNL     1     -63.173 -42.741  51.417  1.00  0.00     0.125 A
HETATM    7  C4  UNL     1     -62.683 -43.088  52.667  1.00  0.00     0.135 A
HETATM    8  N6  UNL     1     -63.084 -44.222  53.292  1.00  0.00    -0.293 N
ATOM      9  H6  UNL     1     -62.709 -44.456  54.211  1.00  0.00     0.172 HD
ENDROOT
BRANCH   7  10
HETATM   10  N3  UNL     1     -61.832 -42.288  53.204  1.00  0.00    -0.325 N
ATOM     11  H3  UNL     1     -60.881 -42.222  52.842  1.00  0.00     0.165 HD
BRANCH  10  12
HETATM   12  C5  UNL     1     -62.244 -41.492  54.318  1.00  0.00     0.486 C
HETATM   13  N4  UNL     1     -62.662 -40.152  53.956  1.00  0.00    -0.027 N
HETATM   14  C6  UNL     1     -61.475 -39.346  53.852  1.00  0.00     0.264 C
ATOM     15  H42 UNL     1     -63.236 -40.128  53.112  1.00  0.00     0.281 HD
ATOM     16  H41 UNL     1     -63.353 -39.763  54.597  1.00  0.00     0.281 HD
HETATM   17  C7  UNL     1     -60.406 -40.186  54.524  1.00  0.00     0.264 C
HETATM   18  N5  UNL     1     -61.103 -41.267  55.186  1.00  0.00    -0.027 N
ATOM     19  H52 UNL     1     -61.337 -41.090  56.162  1.00  0.00     0.281 HD
ATOM     20  H51 UNL     1     -60.534 -42.095  55.366  1.00  0.00     0.281 HD
ENDBRANCH  10  12
ENDBRANCH   7  10
BRANCH   6  21
HETATM   21  N2  UNL     1     -62.715 -41.550  50.823  1.00  0.00    -0.031 NA
BRANCH  21  22
HETATM   22  O2  UNL     1     -63.456 -40.475  51.152  1.00  0.00    -0.284 OA
ATOM     23  H2  UNL     1     -64.252 -40.698  51.620  1.00  0.00     0.240 HD
ENDBRANCH  21  22
BRANCH  21  24
HETATM   24  O3  UNL     1     -62.706 -41.731  49.469  1.00  0.00    -0.284 OA
ATOM     25  H3  UNL     1     -63.537 -41.423  49.127  1.00  0.00     0.240 HD
ENDBRANCH  21  24
ENDBRANCH   6  21
TORSDOF 5
ENDMDL