MODEL 3
REMARK VINA RESULT: -5.178266452      4.054      5.783
REMARK  2 active torsions:
REMARK  status: ('A' for Active; 'I' for Inactive)
REMARK    1  A    between atoms: N4_12  and  N5_14
REMARK    2  A    between atoms: N5_14  and  C5_16
ROOT
HETATM    1  O1  UNL     1     -65.266 -44.131  51.398  1.00  0.00    -0.267 OA
HETATM    2  C1  UNL     1     -64.519 -45.095  51.732  1.00  0.00     0.257 A
HETATM    3  N1  UNL     1     -63.217 -45.016  52.295  1.00  0.00    -0.351 N
ATOM      4  H1  UNL     1     -62.726 -44.146  52.497  1.00  0.00     0.163 HD
HETATM    5  C2  UNL     1     -62.685 -46.332  52.541  1.00  0.00     0.182 A
HETATM    6  C3  UNL     1     -63.757 -47.252  52.087  1.00  0.00     0.063 A
HETATM    7  N2  UNL     1     -64.127 -48.560  51.942  1.00  0.00    -0.300 N
ATOM      8  H2  UNL     1     -63.557 -49.366  52.197  1.00  0.00     0.186 HD
HETATM    9  N3  UNL     1     -65.338 -48.617  51.419  1.00  0.00    -0.283 N
ATOM     10  H3  UNL     1     -65.837 -49.482  51.214  1.00  0.00     0.188 HD
HETATM   11  C4  UNL     1     -65.824 -47.394  51.194  1.00  0.00     0.153 A
HETATM   12  N4  UNL     1     -66.948 -46.999  50.703  1.00  0.00    -0.269 N
ATOM     13  H4  UNL     1     -67.104 -45.994  50.623  1.00  0.00     0.189 HD
HETATM   14  C6  UNL     1     -64.824 -46.522  51.616  1.00  0.00     0.104 A
ENDROOT
BRANCH  12  15
HETATM   15  N5  UNL     1     -67.952 -47.839  50.278  1.00  0.00    -0.128 N
ATOM     16  H5  UNL     1     -67.833 -48.846  50.389  1.00  0.00     0.205 HD
BRANCH  15  17
HETATM   17  C5  UNL     1     -69.032 -47.396  49.748  1.00  0.00     0.728 A
HETATM   18  N6  UNL     1     -69.972 -48.198  49.206  1.00  0.00    -0.114 N
HETATM   19  N7  UNL     1     -70.948 -47.447  48.751  1.00  0.00    -0.213 N
ATOM     20  H6  UNL     1     -69.932 -49.217  49.159  1.00  0.00     0.207 HD
HETATM   21  N8  UNL     1     -70.636 -46.191  48.995  1.00  0.00    -0.213 N
ATOM     22  H7  UNL     1     -71.796 -47.777  48.290  1.00  0.00     0.210 HD
HETATM   23  N9  UNL     1     -69.472 -46.128  49.603  1.00  0.00    -0.114 N
ATOM     24  H8  UNL     1     -71.212 -45.386  48.750  1.00  0.00     0.210 HD
ATOM     25  H9  UNL     1     -68.992 -45.281  49.908  1.00  0.00     0.207 HD
ENDBRANCH  15  17
ENDBRANCH  12  15
TORSDOF 2
ENDMDL