MODEL 5
REMARK VINA RESULT: -4.345628766      3.095      5.957
REMARK  6 active torsions:
REMARK  status: ('A' for Active; 'I' for Inactive)
REMARK    1  A    between atoms: C2_3  and  N2_4
REMARK    2  A    between atoms: C6_12  and  C7_13
REMARK    3  A    between atoms: C7_13  and  N4_14
REMARK    4  A    between atoms: C7_13  and  C8_18
REMARK    5  A    between atoms: C8_18  and  N5_19
REMARK    6  A    between atoms: C8_18  and  O1_23
ROOT
HETATM    1  C1  UNL     1     -61.554 -46.108  53.371  1.00  0.00     0.175 C
HETATM    2  N1  UNL     1     -62.768 -45.722  52.633  1.00  0.00    -0.184 N
HETATM    3  C2  UNL     1     -63.633 -46.563  52.040  1.00  0.00     0.679 A
HETATM    4  N3  UNL     1     -64.637 -45.853  51.451  1.00  0.00    -0.175 N
ATOM      5  H3  UNL     1     -65.425 -46.243  50.933  1.00  0.00     0.186 HD
HETATM    6  C3  UNL     1     -64.402 -44.542  51.676  1.00  0.00     0.144 A
HETATM    7  C4  UNL     1     -63.231 -44.463  52.416  1.00  0.00     0.092 A
HETATM    8  C5  UNL     1     -62.706 -43.333  52.813  1.00  0.00     0.016 A
HETATM    9  C6  UNL     1     -63.292 -42.024  52.522  1.00  0.00     0.063 A
HETATM   10  C9  UNL     1     -64.537 -42.131  51.733  1.00  0.00     0.132 A
HETATM   11  N6  UNL     1     -64.957 -43.438  51.392  1.00  0.00    -0.373 N
ATOM     12  H6  UNL     1     -65.817 -43.500  50.848  1.00  0.00     0.161 HD
ENDROOT
BRANCH   9  13
HETATM   13  C7  UNL     1     -62.265 -41.104  51.893  1.00  0.00     0.248 C
BRANCH  13  14
HETATM   14  N4  UNL     1     -62.326 -41.052  50.468  1.00  0.00    -0.070 N
ATOM     15  H43 UNL     1     -63.262 -40.788  50.159  1.00  0.00     0.274 HD
ATOM     16  H42 UNL     1     -61.797 -40.255  50.115  1.00  0.00     0.274 HD
ATOM     17  H41 UNL     1     -62.028 -41.912  50.006  1.00  0.00     0.274 HD
ENDBRANCH  13  14
BRANCH  13  18
HETATM   18  C8  UNL     1     -62.324 -39.726  52.528  1.00  0.00     0.347 C
BRANCH  18  19
HETATM   19  N5  UNL     1     -61.501 -39.637  53.696  1.00  0.00    -0.051 N
ATOM     20  H53 UNL     1     -61.974 -40.025  54.512  1.00  0.00     0.277 HD
ATOM     21  H52 UNL     1     -60.713 -40.282  53.643  1.00  0.00     0.277 HD
ATOM     22  H51 UNL     1     -61.187 -38.683  53.872  1.00  0.00     0.277 HD
ENDBRANCH  18  19
BRANCH  18  23
HETATM   23  O1  UNL     1     -61.882 -38.759  51.625  1.00  0.00    -0.368 OA
ATOM     24  H1  UNL     1     -61.386 -38.087  52.079  1.00  0.00     0.212 HD
ENDBRANCH  18  23
ENDBRANCH  13  18
ENDBRANCH   9  13
BRANCH   3  25
HETATM   25  N2  UNL     1     -63.505 -47.843  52.044  1.00  0.00    -0.234 N
ATOM     26  H22 UNL     1     -63.199 -48.418  52.830  1.00  0.00     0.174 HD
ATOM     27  H21 UNL     1     -63.705 -48.437  51.239  1.00  0.00     0.174 HD
ENDBRANCH   3  25
TORSDOF 6
ENDMDL