MODEL 4
REMARK VINA RESULT: -4.841076837      2.068      5.454
REMARK  3 active torsions:
REMARK  status: ('A' for Active; 'I' for Inactive)
REMARK    1  A    between atoms: N1_1  and  C1_4
REMARK    2  A    between atoms: N6_17  and  C5_18
REMARK    3  A    between atoms: C7_23  and  N8_24
ROOT
HETATM    1  C1  UNL     1     -65.460 -46.702  51.454  1.00  0.00     0.135 A
HETATM    2  N2  UNL     1     -64.294 -47.386  51.487  1.00  0.00    -0.293 N
ATOM      3  H2  UNL     1     -64.305 -48.396  51.350  1.00  0.00     0.172 HD
HETATM    4  C2  UNL     1     -63.134 -46.771  51.693  1.00  0.00     0.327 A
HETATM    5  O1  UNL     1     -62.023 -47.357  51.733  1.00  0.00    -0.247 OA
HETATM    6  N3  UNL     1     -63.120 -45.438  51.872  1.00  0.00    -0.291 N
ATOM      7  H3  UNL     1     -62.226 -44.975  52.029  1.00  0.00     0.172 HD
HETATM    8  C3  UNL     1     -64.255 -44.683  51.852  1.00  0.00     0.162 A
HETATM    9  C4  UNL     1     -65.451 -45.334  51.637  1.00  0.00     0.139 A
HETATM   10  N4  UNL     1     -66.375 -44.360  51.669  1.00  0.00    -0.279 N
ATOM     11  H4  UNL     1     -67.378 -44.496  51.544  1.00  0.00     0.189 HD
HETATM   12  N5  UNL     1     -65.787 -43.199  51.887  1.00  0.00    -0.236 N
ATOM     13  H5  UNL     1     -66.265 -42.301  51.956  1.00  0.00     0.208 HD
HETATM   14  N6  UNL     1     -64.503 -43.376  52.000  1.00  0.00    -0.233 N
ENDROOT
BRANCH  14  15
HETATM   15  C5  UNL     1     -63.452 -42.409  52.241  1.00  0.00     0.251 C
HETATM   16  N7  UNL     1     -63.878 -41.053  52.428  1.00  0.00    -0.334 N
HETATM   17  C6  UNL     1     -62.698 -40.642  51.767  1.00  0.00     0.254 C
ATOM     18  H7  UNL     1     -64.680 -40.588  52.852  1.00  0.00     0.164 HD
HETATM   19  O2  UNL     1     -61.985 -39.630  51.811  1.00  0.00    -0.271 OA
HETATM   20  C7  UNL     1     -62.716 -41.922  51.037  1.00  0.00     0.318 C
BRANCH  20  21
HETATM   21  N8  UNL     1     -63.467 -41.803  49.817  1.00  0.00    -0.063 N
ATOM     22  H83 UNL     1     -64.042 -42.635  49.688  1.00  0.00     0.275 HD
ATOM     23  H82 UNL     1     -64.190 -41.091  49.930  1.00  0.00     0.275 HD
ATOM     24  H81 UNL     1     -62.940 -41.619  48.964  1.00  0.00     0.275 HD
ENDBRANCH  20  21
ENDBRANCH  14  15
BRANCH   1  25
HETATM   25  N1  UNL     1     -66.584 -47.310  51.252  1.00  0.00    -0.383 N
ATOM     26  H12 UNL     1     -67.153 -47.592  52.050  1.00  0.00     0.157 HD
ATOM     27  H11 UNL     1     -66.910 -47.510  50.307  1.00  0.00     0.157 HD
ENDBRANCH   1  25
TORSDOF 3
ENDMDL