MODEL 5
REMARK VINA RESULT: -5.194873691      1.933      2.569
REMARK  3 active torsions:
REMARK  status: ('A' for Active; 'I' for Inactive)
REMARK    1  A    between atoms: C4_12  and  C5_13
REMARK    2  A    between atoms: C5_13  and  O3_14
REMARK    3  A    between atoms: C5_13  and  N4_16
ROOT
HETATM    1  O1  UNL     1     -62.763 -42.093  48.753  1.00  0.00    -0.247 OA
HETATM    2  C1  UNL     1     -63.212 -42.049  49.929  1.00  0.00     0.327 A
HETATM    3  N1  UNL     1     -64.305 -42.781  50.187  1.00  0.00    -0.273 N
ATOM      4  H1  UNL     1     -64.729 -43.337  49.444  1.00  0.00     0.173 HD
HETATM    5  C2  UNL     1     -64.849 -42.789  51.423  1.00  0.00     0.280 A
HETATM    6  O2  UNL     1     -65.869 -43.466  51.680  1.00  0.00    -0.265 OA
HETATM    7  C3  UNL     1     -64.249 -42.027  52.405  1.00  0.00     0.145 A
HETATM    8  N2  UNL     1     -64.544 -41.836  53.682  1.00  0.00    -0.293 N
ATOM      9  H2  UNL     1     -65.326 -42.258  54.183  1.00  0.00     0.187 HD
HETATM   10  N3  UNL     1     -63.656 -41.008  54.199  1.00  0.00    -0.298 N
ATOM     11  H3  UNL     1     -63.654 -40.694  55.170  1.00  0.00     0.187 HD
HETATM   12  C4  UNL     1     -62.754 -40.633  53.274  1.00  0.00     0.099 A
HETATM   13  C7  UNL     1     -63.125 -41.283  52.117  1.00  0.00     0.098 A
HETATM   14  N6  UNL     1     -62.605 -41.295  50.873  1.00  0.00    -0.304 N
ATOM     15  H6  UNL     1     -61.774 -40.748  50.649  1.00  0.00     0.171 HD
ENDROOT
BRANCH  12  16
HETATM   16  C5  UNL     1     -61.606 -39.711  53.483  1.00  0.00     0.264 C
BRANCH  16  17
HETATM   17  O3  UNL     1     -61.590 -38.835  52.385  1.00  0.00    -0.374 OA
ATOM     18  H3  UNL     1     -61.850 -37.984  52.714  1.00  0.00     0.212 HD
ENDBRANCH  16  17
BRANCH  16  19
HETATM   19  N4  UNL     1     -60.406 -40.484  53.497  1.00  0.00    -0.184 NA
HETATM   20  C6  UNL     1     -59.951 -41.231  54.564  1.00  0.00     0.241 A
HETATM   21  N5  UNL     1     -59.245 -40.034  54.086  1.00  0.00    -0.145 NA
ENDBRANCH  16  19
ENDBRANCH  12  16
TORSDOF 3
ENDMDL