MODEL 5
REMARK VINA RESULT: -6.205730005      0.967      1.171
REMARK  5 active torsions:
REMARK  status: ('A' for Active; 'I' for Inactive)
REMARK    1  A    between atoms: O1_1  and  C1_3
REMARK    2  A    between atoms: N1_7  and  C5_8
REMARK    3  A    between atoms: C5_8  and  C6_9
REMARK    4  A    between atoms: C6_9  and  C7_10
REMARK    5  A    between atoms: C7_10  and  N2_11
ROOT
HETATM    1  C1  UNL     1      -4.911   1.216  16.679  1.00  0.00     0.146 C
HETATM    2  C2  UNL     1      -5.989   1.628  17.624  1.00  0.00     0.035 C
HETATM    3  C3  UNL     1      -6.782   2.819  17.146  1.00  0.00     0.033 C
HETATM    4  C4  UNL     1      -6.494   3.025  15.671  1.00  0.00     0.272 C
HETATM    5  N1  UNL     1      -5.105   3.441  15.598  1.00  0.00     0.091 N
HETATM    6  C12 UNL     1      -4.252   2.330  15.933  1.00  0.00     0.303 C
ENDROOT
BRANCH   5   7
HETATM    7  C5  UNL     1      -4.782   4.015  14.311  1.00  0.00     0.277 C
BRANCH   7   8
HETATM    8  C6  UNL     1      -3.487   3.403  13.817  1.00  0.00     0.075 C
BRANCH   8   9
HETATM    9  C7  UNL     1      -3.533   3.184  12.332  1.00  0.00     0.064 C
BRANCH   9  10
HETATM   10  N2  UNL     1      -3.952   1.951  11.861  1.00  0.00    -0.374 N
HETATM   11  C8  UNL     1      -3.949   0.806  12.679  1.00  0.00     0.063 C
HETATM   12  C9  UNL     1      -4.122  -0.311  11.656  1.00  0.00     0.046 C
HETATM   13  C10 UNL     1      -4.951   0.365  10.581  1.00  0.00     0.025 C
HETATM   14  C11 UNL     1      -5.085   1.830  11.031  1.00  0.00     0.127 C
ENDBRANCH   9  10
ENDBRANCH   8   9
ENDBRANCH   7   8
ENDBRANCH   5   7
BRANCH   1  15
HETATM   15  O1  UNL     1      -5.324   0.161  15.830  1.00  0.00    -0.394 OA
ATOM     16  H1  UNL     1      -4.606  -0.421  15.611  1.00  0.00     0.210 HD
ENDBRANCH   1  15
TORSDOF 5
ENDMDL