MODEL 5
REMARK VINA RESULT: -5.679265605      1.065      1.304
REMARK  5 active torsions:
REMARK  status: ('A' for Active; 'I' for Inactive)
REMARK    1  A    between atoms: O1_1  and  C1_3
REMARK    2  A    between atoms: C1_3  and  C2_4
REMARK    3  A    between atoms: C1_3  and  C8_11
REMARK    4  A    between atoms: C2_4  and  N1_5
REMARK    5  A    between atoms: C8_11  and  N2_12
ROOT
HETATM    1  C1  UNL     1      -4.093   2.735  13.654  1.00  0.00     0.184 C
ENDROOT
BRANCH   1   2
HETATM    2  O1  UNL     1      -3.136   3.538  14.325  1.00  0.00    -0.389 OA
ATOM      3  H1  UNL     1      -3.643   4.190  14.795  1.00  0.00     0.210 HD
ENDBRANCH   1   2
BRANCH   1   4
HETATM    4  C2  UNL     1      -4.324   3.415  12.335  1.00  0.00     0.309 C
BRANCH   4   5
HETATM    5  N1  UNL     1      -3.863   2.642  11.184  1.00  0.00     0.091 N
HETATM    6  C3  UNL     1      -2.570   2.117  11.512  1.00  0.00     0.272 C
HETATM    7  C4  UNL     1      -2.208   0.761  11.096  1.00  0.00     0.030 C
HETATM    8  C5  UNL     1      -3.306  -0.249  11.021  1.00  0.00     0.003 C
HETATM    9  C6  UNL     1      -4.524   0.326  11.716  1.00  0.00     0.030 C
HETATM   10  C7  UNL     1      -4.842   1.604  10.936  1.00  0.00     0.272 C
ENDBRANCH   4   5
ENDBRANCH   1   4
BRANCH   1  11
HETATM   11  C8  UNL     1      -5.419   2.788  14.383  1.00  0.00     0.091 C
BRANCH  11  12
HETATM   12  N2  UNL     1      -5.429   2.457  15.741  1.00  0.00    -0.391 N
HETATM   13  C9  UNL     1      -4.941   1.196  16.157  1.00  0.00     0.122 C
HETATM   14  C10 UNL     1      -5.953   0.586  17.108  1.00  0.00     0.021 C
HETATM   15  C11 UNL     1      -7.165   1.485  17.011  1.00  0.00     0.021 C
HETATM   16  C12 UNL     1      -6.585   2.787  16.489  1.00  0.00     0.122 C
ENDBRANCH  11  12
ENDBRANCH   1  11
TORSDOF 5
ENDMDL