MODEL 1
REMARK VINA RESULT: -6.206866191      0.000      0.000
REMARK  5 active torsions:
REMARK  status: ('A' for Active; 'I' for Inactive)
REMARK    1  A    between atoms: C2_2  and  C3_3
REMARK    2  A    between atoms: C3_3  and  N1_4
REMARK    3  A    between atoms: C6_7  and  C7_8
REMARK    4  A    between atoms: C7_8  and  O1_9
REMARK    5  A    between atoms: C7_8  and  C8_11
ROOT
HETATM    1  N1  UNL     1      -3.390   3.944  12.942  1.00  0.00     0.092 N
HETATM    2  C4  UNL     1      -4.064   3.127  11.984  1.00  0.00     0.273 C
HETATM    3  C5  UNL     1      -4.847   2.087  12.821  1.00  0.00     0.039 C
HETATM    4  C6  UNL     1      -3.893   1.962  13.976  1.00  0.00     0.047 C
HETATM    5  C12 UNL     1      -3.657   3.431  14.277  1.00  0.00     0.280 C
ENDROOT
BRANCH   4   6
HETATM    6  C7  UNL     1      -4.322   1.162  15.130  1.00  0.00     0.152 C
BRANCH   6   7
HETATM    7  O1  UNL     1      -3.320   1.358  16.135  1.00  0.00    -0.393 OA
ATOM      8  H1  UNL     1      -3.130   2.289  16.133  1.00  0.00     0.210 HD
ENDBRANCH   6   7
BRANCH   6   9
HETATM    9  C8  UNL     1      -5.597   1.512  15.790  1.00  0.00     0.150 C
HETATM   10  C9  UNL     1      -5.254   2.136  17.153  1.00  0.00     0.036 C
HETATM   11  C10 UNL     1      -6.591   2.083  17.873  1.00  0.00     0.029 C
HETATM   12  C11 UNL     1      -7.343   1.044  17.063  1.00  0.00     0.168 C
HETATM   13  O2  UNL     1      -6.400   0.473  16.196  1.00  0.00    -0.383 OA
ENDBRANCH   6   9
ENDBRANCH   4   6
BRANCH   1  14
HETATM   14  C3  UNL     1      -3.620   5.349  12.806  1.00  0.00     0.299 C
BRANCH  14  15
HETATM   15  C2  UNL     1      -3.471   5.979  14.136  1.00  0.00    -0.007 C
HETATM   16  C1  UNL     1      -2.688   7.033  14.308  1.00  0.00     0.008 C
ENDBRANCH  14  15
ENDBRANCH   1  14
TORSDOF 5
ENDMDL