MODEL 1
REMARK VINA RESULT: -6.285721034      0.000      0.000
REMARK  4 active torsions:
REMARK  status: ('A' for Active; 'I' for Inactive)
REMARK    1  A    between atoms: C2_2  and  C3_3
REMARK    2  A    between atoms: C2_2  and  N2_10
REMARK    3  A    between atoms: C3_3  and  N1_4
REMARK    4  A    between atoms: C8_12  and  C9_13
ROOT
HETATM    1  N2  UNL     1      -3.527   3.381  13.721  1.00  0.00    -0.392 N
ATOM      2  H2  UNL     1      -2.559   3.087  13.851  1.00  0.00     0.159 HD
HETATM    3  C8  UNL     1      -4.083   3.126  12.619  1.00  0.00     0.089 C
ENDROOT
BRANCH   1   4
HETATM    4  C2  UNL     1      -4.184   4.065  14.811  1.00  0.00     0.115 C
HETATM    5  C1  UNL     1      -3.979   5.533  14.764  1.00  0.00     0.038 C
BRANCH   4   6
HETATM    6  C3  UNL     1      -5.606   3.673  14.955  1.00  0.00     0.083 C
BRANCH   6   7
HETATM    7  N1  UNL     1      -5.832   2.683  15.910  1.00  0.00    -0.387 N
HETATM    8  C4  UNL     1      -6.835   2.731  16.876  1.00  0.00     0.148 C
HETATM    9  C5  UNL     1      -7.608   1.394  16.790  1.00  0.00     0.187 C
HETATM   10  O1  UNL     1      -6.804   0.310  17.036  1.00  0.00    -0.388 OA
HETATM   11  C6  UNL     1      -5.452   0.584  16.933  1.00  0.00     0.187 C
HETATM   12  C7  UNL     1      -5.125   1.476  15.729  1.00  0.00     0.148 C
ENDBRANCH   6   7
ENDBRANCH   4   6
ENDBRANCH   1   4
BRANCH   3  13
HETATM   13  C9  UNL     1      -3.381   2.433  11.545  1.00  0.00     0.223 C
HETATM   14  C10 UNL     1      -3.638   0.934  11.486  1.00  0.00     0.040 C
HETATM   15  C11 UNL     1      -2.543   0.521  10.494  1.00  0.00     0.030 C
HETATM   16  C12 UNL     1      -1.390   1.382  10.971  1.00  0.00     0.233 C
HETATM   17  N3  UNL     1      -1.942   2.446  11.768  1.00  0.00    -0.066 N
ATOM     18  H32 UNL     1      -1.514   3.353  11.581  1.00  0.00     0.278 HD
ATOM     19  H31 UNL     1      -1.688   2.385  12.754  1.00  0.00     0.278 HD
ENDBRANCH   3  13
TORSDOF 4
ENDMDL