MODEL 2
REMARK VINA RESULT: -6.026314907      2.347      2.937
REMARK  4 active torsions:
REMARK  status: ('A' for Active; 'I' for Inactive)
REMARK    1  A    between atoms: C1_2  and  C2_4
REMARK    2  A    between atoms: N1_8  and  C5_9
REMARK    3  A    between atoms: C5_9  and  C6_10
REMARK    4  A    between atoms: C7_11  and  C8_12
ROOT
HETATM    1  C2  UNL     1      -3.339   1.978  11.916  1.00  0.00     0.333 C
HETATM    2  C3  UNL     1      -2.682   1.183  10.834  1.00  0.00     0.122 C
HETATM    3  S1  UNL     1      -3.332  -0.507  11.121  1.00  0.00    -0.137 SA
HETATM    4  C4  UNL     1      -4.298  -0.062  12.619  1.00  0.00     0.348 C
HETATM    5  N1  UNL     1      -4.425   1.324  12.476  1.00  0.00     0.116 N
ENDROOT
BRANCH   5   6
HETATM    6  C5  UNL     1      -4.739   1.912  13.781  1.00  0.00     0.301 C
BRANCH   6   7
HETATM    7  C6  UNL     1      -4.228   1.120  14.915  1.00  0.00    -0.001 C
HETATM    8  C7  UNL     1      -4.795   1.205  16.094  1.00  0.00    -0.024 C
BRANCH   8   9
HETATM    9  C8  UNL     1      -5.952   2.042  16.460  1.00  0.00     0.008 A
HETATM   10  C9  UNL     1      -6.345   2.088  17.948  1.00  0.00     0.009 A
HETATM   11  C10 UNL     1      -7.212   1.378  16.941  1.00  0.00     0.009 A
ENDBRANCH   8   9
ENDBRANCH   6   7
ENDBRANCH   5   6
BRANCH   1  12
HETATM   12  C1  UNL     1      -3.819   3.244  11.279  1.00  0.00     0.208 C
HETATM   13  O1  UNL     1      -4.557   3.203  10.264  1.00  0.00    -0.646 OA
HETATM   14  O2  UNL     1      -3.492   4.507  11.754  1.00  0.00    -0.646 OA
ENDBRANCH   1  12
TORSDOF 4
ENDMDL