MODEL 2
REMARK VINA RESULT: -6.116539101      0.619      1.390
REMARK  4 active torsions:
REMARK  status: ('A' for Active; 'I' for Inactive)
REMARK    1  A    between atoms: C4_4  and  N1_5
REMARK    2  A    between atoms: N1_5  and  C5_7
REMARK    3  A    between atoms: C5_7  and  C6_8
REMARK    4  A    between atoms: C6_8  and  N2_9
ROOT
HETATM    1  N1  UNL     1      -3.382   2.913  13.310  1.00  0.00    -0.415 N
ATOM      2  H1  UNL     1      -2.448   2.748  13.686  1.00  0.00     0.153 HD
ENDROOT
BRANCH   1   3
HETATM    3  C4  UNL     1      -3.801   2.384  12.058  1.00  0.00     0.076 C
HETATM    4  C3  UNL     1      -2.762   2.128  11.037  1.00  0.00     0.024 C
HETATM    5  C2  UNL     1      -2.262   0.689  11.077  1.00  0.00     0.002 C
HETATM    6  C1  UNL     1      -3.340  -0.175  10.468  1.00  0.00     0.000 C
HETATM    7  C12 UNL     1      -4.663   0.350  10.926  1.00  0.00     0.002 C
HETATM    8  C11 UNL     1      -4.577   1.081  12.251  1.00  0.00     0.024 C
ENDBRANCH   1   3
BRANCH   1   9
HETATM    9  C5  UNL     1      -4.354   3.686  13.998  1.00  0.00     0.144 C
BRANCH   9  10
HETATM   10  C6  UNL     1      -4.344   3.347  15.467  1.00  0.00     0.291 C
BRANCH  10  11
HETATM   11  N2  UNL     1      -5.258   2.341  15.841  1.00  0.00     0.094 N
HETATM   12  C7  UNL     1      -4.768   1.060  16.195  1.00  0.00     0.298 C
HETATM   13  C8  UNL     1      -5.763   0.340  17.102  1.00  0.00     0.198 C
HETATM   14  O1  UNL     1      -7.068   0.512  16.678  1.00  0.00    -0.388 OA
HETATM   15  C9  UNL     1      -7.453   1.825  16.562  1.00  0.00     0.198 C
HETATM   16  C10 UNL     1      -6.254   2.750  16.799  1.00  0.00     0.298 C
ENDBRANCH  10  11
ENDBRANCH   9  10
ENDBRANCH   1   9
TORSDOF 4
ENDMDL