MODEL 1
REMARK VINA RESULT: -6.344295519      0.000      0.000
REMARK  5 active torsions:
REMARK  status: ('A' for Active; 'I' for Inactive)
REMARK    1  A    between atoms: C2_2  and  C3_3
REMARK    2  A    between atoms: C2_2  and  N2_12
REMARK    3  A    between atoms: C3_3  and  O1_4
REMARK    4  A    between atoms: C3_3  and  C4_6
REMARK    5  A    between atoms: C4_6  and  N1_7
ROOT
HETATM    1  C3  UNL     1      -4.030   2.820  14.459  1.00  0.00     0.179 C
ENDROOT
BRANCH   1   2
HETATM    2  C2  UNL     1      -5.369   3.178  15.053  1.00  0.00     0.249 C
HETATM    3  C1  UNL     1      -5.634   4.633  14.892  1.00  0.00     0.045 C
BRANCH   2   4
HETATM    4  N2  UNL     1      -5.437   2.696  16.408  1.00  0.00     0.095 N
HETATM    5  C9  UNL     1      -5.013   1.307  16.474  1.00  0.00     0.273 C
HETATM    6  C10 UNL     1      -6.099   0.520  17.137  1.00  0.00     0.032 C
HETATM    7  C11 UNL     1      -7.339   1.373  16.977  1.00  0.00     0.032 C
HETATM    8  C12 UNL     1      -6.726   2.768  17.012  1.00  0.00     0.273 C
ENDBRANCH   2   4
ENDBRANCH   1   2
BRANCH   1   9
HETATM    9  O1  UNL     1      -3.073   3.606  15.076  1.00  0.00    -0.392 OA
ATOM     10  H1  UNL     1      -2.648   3.075  15.739  1.00  0.00     0.210 HD
ENDBRANCH   1   9
BRANCH   1  11
HETATM   11  C4  UNL     1      -4.015   2.875  12.973  1.00  0.00     0.306 C
BRANCH  11  12
HETATM   12  N1  UNL     1      -3.810   1.688  12.267  1.00  0.00     0.090 N
HETATM   13  C5  UNL     1      -4.221   0.465  12.833  1.00  0.00     0.272 C
HETATM   14  C6  UNL     1      -4.128  -0.465  11.608  1.00  0.00     0.032 C
HETATM   15  C7  UNL     1      -4.918   0.377  10.608  1.00  0.00     0.032 C
HETATM   16  C8  UNL     1      -4.471   1.767  10.976  1.00  0.00     0.272 C
ENDBRANCH  11  12
ENDBRANCH   1  11
TORSDOF 5
ENDMDL