MODEL 3
REMARK VINA RESULT: -6.268722875      1.980      2.925
REMARK  5 active torsions:
REMARK  status: ('A' for Active; 'I' for Inactive)
REMARK    1  A    between atoms: O1_1  and  C1_3
REMARK    2  A    between atoms: C1_3  and  C2_4
REMARK    3  A    between atoms: C1_3  and  C8_10
REMARK    4  A    between atoms: C2_4  and  C3_5
REMARK    5  A    between atoms: C8_10  and  N1_11
ROOT
HETATM    1  C1  UNL     1      -4.325   0.743  15.180  1.00  0.00     0.146 C
ENDROOT
BRANCH   1   2
HETATM    2  O1  UNL     1      -5.155  -0.115  15.899  1.00  0.00    -0.394 OA
ATOM      3  H1  UNL     1      -5.238  -0.938  15.433  1.00  0.00     0.210 HD
ENDBRANCH   1   2
BRANCH   1   4
HETATM    4  C2  UNL     1      -4.274   2.087  15.870  1.00  0.00     0.038 C
BRANCH   4   5
HETATM    5  C3  UNL     1      -4.830   3.214  15.035  1.00  0.00    -0.012 C
HETATM    6  C4  UNL     1      -6.083   3.791  15.610  1.00  0.00     0.005 C
HETATM    7  C5  UNL     1      -6.047   5.278  15.339  1.00  0.00     0.000 C
HETATM    8  C6  UNL     1      -4.803   5.524  14.524  1.00  0.00     0.000 C
HETATM    9  C7  UNL     1      -3.903   4.371  14.913  1.00  0.00     0.005 C
ENDBRANCH   4   5
ENDBRANCH   1   4
BRANCH   1  10
HETATM   10  C8  UNL     1      -4.716   0.811  13.749  1.00  0.00     0.304 C
BRANCH  10  11
HETATM   11  N1  UNL     1      -3.698   0.705  12.775  1.00  0.00     0.095 N
HETATM   12  C9  UNL     1      -3.412   1.825  11.956  1.00  0.00     0.298 C
HETATM   13  C10 UNL     1      -4.518   2.061  10.941  1.00  0.00     0.198 C
HETATM   14  O2  UNL     1      -4.421   1.046   9.994  1.00  0.00    -0.388 OA
HETATM   15  C11 UNL     1      -3.789  -0.090  10.440  1.00  0.00     0.198 C
HETATM   16  C12 UNL     1      -4.041  -0.408  11.889  1.00  0.00     0.298 C
ENDBRANCH  10  11
ENDBRANCH   1  10
TORSDOF 5
ENDMDL