MODEL 4
REMARK VINA RESULT: -6.161836778      2.265      4.792
REMARK  5 active torsions:
REMARK  status: ('A' for Active; 'I' for Inactive)
REMARK    1  A    between atoms: C2_2  and  C3_3
REMARK    2  A    between atoms: C3_3  and  C4_4
REMARK    3  A    between atoms: C3_3  and  N2_12
REMARK    4  A    between atoms: C4_4  and  O1_5
REMARK    5  A    between atoms: C4_4  and  N1_7
ROOT
HETATM    1  C3  UNL     1      -4.835   2.866  14.514  1.00  0.00     0.055 C
ENDROOT
BRANCH   1   2
HETATM    2  C2  UNL     1      -3.494   3.217  14.993  1.00  0.00     0.019 C
HETATM    3  C1  UNL     1      -2.902   4.387  14.789  1.00  0.00     0.013 C
ENDBRANCH   1   2
BRANCH   1   4
HETATM    4  C4  UNL     1      -4.874   2.492  13.046  1.00  0.00     0.268 C
BRANCH   4   5
HETATM    5  O1  UNL     1      -5.022   3.572  12.199  1.00  0.00    -0.373 OA
ATOM      6  H1  UNL     1      -4.983   3.346  11.277  1.00  0.00     0.212 HD
ENDBRANCH   4   5
BRANCH   4   7
HETATM    7  N1  UNL     1      -3.783   1.640  12.725  1.00  0.00    -0.162 NA
HETATM    8  C5  UNL     1      -4.134   0.312  12.361  1.00  0.00     0.126 C
HETATM    9  C6  UNL     1      -3.185  -0.026  11.223  1.00  0.00     0.045 C
HETATM   10  C7  UNL     1      -2.224   1.114  11.274  1.00  0.00     0.195 C
HETATM   11  O2  UNL     1      -2.998   2.156  11.763  1.00  0.00    -0.301 OA
ENDBRANCH   4   7
ENDBRANCH   1   4
BRANCH   1  12
HETATM   12  N2  UNL     1      -5.620   2.021  15.329  1.00  0.00    -0.361 N
HETATM   13  C8  UNL     1      -6.621   2.656  16.132  1.00  0.00     0.128 C
HETATM   14  C9  UNL     1      -7.148   1.487  16.958  1.00  0.00     0.025 C
HETATM   15  C10 UNL     1      -5.850   0.781  17.278  1.00  0.00     0.046 C
HETATM   16  C11 UNL     1      -5.078   0.933  15.985  1.00  0.00     0.064 C
ENDBRANCH   1  12
TORSDOF 5
ENDMDL