MODEL 3
REMARK VINA RESULT: -6.430636592      1.030      1.043
REMARK  5 active torsions:
REMARK  status: ('A' for Active; 'I' for Inactive)
REMARK    1  A    between atoms: O1_1  and  C1_3
REMARK    2  A    between atoms: C1_3  and  C2_4
REMARK    3  A    between atoms: C2_4  and  C3_5
REMARK    4  A    between atoms: C3_5  and  C4_6
REMARK    5  A    between atoms: C4_6  and  N1_7
ROOT
HETATM    1  C2  UNL     1      -4.649   1.387  16.414  1.00  0.00     0.043 C
ENDROOT
BRANCH   1   2
HETATM    2  C1  UNL     1      -5.913   0.946  17.112  1.00  0.00     0.058 C
HETATM    3  C9  UNL     1      -5.988   1.654  18.446  1.00  0.00     0.038 C
HETATM    4  C10 UNL     1      -6.369   3.062  18.043  1.00  0.00     0.003 C
HETATM    5  C11 UNL     1      -7.179   2.912  16.777  1.00  0.00     0.003 C
HETATM    6  C12 UNL     1      -7.170   1.445  16.437  1.00  0.00     0.038 C
BRANCH   2   7
HETATM    7  O1  UNL     1      -5.951  -0.443  17.276  1.00  0.00    -0.390 OA
ATOM      8  H1  UNL     1      -6.421  -0.687  18.065  1.00  0.00     0.210 HD
ENDBRANCH   2   7
ENDBRANCH   1   2
BRANCH   1   9
HETATM    9  C3  UNL     1      -4.488   0.749  15.050  1.00  0.00     0.047 C
BRANCH   9  10
HETATM   10  C4  UNL     1      -4.490   1.862  14.030  1.00  0.00     0.058 C
BRANCH  10  11
HETATM   11  N1  UNL     1      -3.937   1.544  12.788  1.00  0.00    -0.389 N
HETATM   12  C5  UNL     1      -3.028   2.415  12.168  1.00  0.00     0.148 C
HETATM   13  C6  UNL     1      -2.567   1.747  10.864  1.00  0.00     0.187 C
HETATM   14  O2  UNL     1      -2.220   0.432  11.079  1.00  0.00    -0.388 OA
HETATM   15  C7  UNL     1      -3.310  -0.369  11.400  1.00  0.00     0.187 C
HETATM   16  C8  UNL     1      -4.427   0.442  12.053  1.00  0.00     0.148 C
ENDBRANCH  10  11
ENDBRANCH   9  10
ENDBRANCH   1   9
TORSDOF 5
ENDMDL