MODEL 5
REMARK VINA RESULT: -5.656761837      2.124      5.110
REMARK  4 active torsions:
REMARK  status: ('A' for Active; 'I' for Inactive)
REMARK    1  A    between atoms: N2_11  and  C8_12
REMARK    2  A    between atoms: C8_12  and  C9_13
REMARK    3  A    between atoms: C9_13  and  C10_14
REMARK    4  A    between atoms: C10_14  and  C11_15
ROOT
HETATM    1  C1  UNL     1      -1.782   0.800  10.908  1.00  0.00     0.028 C
HETATM    2  C2  UNL     1      -3.141   0.744  11.586  1.00  0.00     0.235 C
HETATM    3  N1  UNL     1      -3.212   1.727  12.625  1.00  0.00    -0.043 N
ATOM      4  H11 UNL     1      -2.450   1.601  13.291  1.00  0.00     0.279 HD
ATOM      5  H12 UNL     1      -4.007   1.545  13.237  1.00  0.00     0.279 HD
HETATM    6  C3  UNL     1      -3.244   3.106  12.133  1.00  0.00     0.423 C
HETATM    7  C4  UNL     1      -2.200   3.282  11.087  1.00  0.00     0.048 C
HETATM    8  C5  UNL     1      -1.175   2.165  11.031  1.00  0.00     0.010 C
HETATM    9  C6  UNL     1      -1.460   4.550  11.446  1.00  0.00     0.039 C
HETATM   10  C7  UNL     1      -1.675   4.628  12.948  1.00  0.00     0.275 C
HETATM   11  N2  UNL     1      -2.879   3.918  13.275  1.00  0.00     0.119 N
ENDROOT
BRANCH  11  12
HETATM   12  C8  UNL     1      -3.962   4.779  13.691  1.00  0.00     0.275 C
BRANCH  12  13
HETATM   13  C9  UNL     1      -4.291   4.452  15.111  1.00  0.00     0.033 C
BRANCH  13  14
HETATM   14  C10 UNL     1      -5.118   3.197  15.279  1.00  0.00     0.036 C
BRANCH  14  15
HETATM   15  C11 UNL     1      -4.523   2.208  16.229  1.00  0.00     0.145 A
HETATM   16  C12 UNL     1      -4.459   0.790  15.724  1.00  0.00     0.200 A
HETATM   17  O1  UNL     1      -3.295   1.615  15.923  1.00  0.00    -0.381 OA
ENDBRANCH  14  15
ENDBRANCH  13  14
ENDBRANCH  12  13
ENDBRANCH  11  12
TORSDOF 4
ENDMDL