MODEL 3
REMARK VINA RESULT: -6.560973425      1.271      1.725
REMARK  5 active torsions:
REMARK  status: ('A' for Active; 'I' for Inactive)
REMARK    1  A    between atoms: O1_1  and  C1_3
REMARK    2  A    between atoms: C1_3  and  C2_4
REMARK    3  A    between atoms: C1_3  and  C8_12
REMARK    4  A    between atoms: C2_4  and  C3_5
REMARK    5  A    between atoms: C3_5  and  N1_6
ROOT
HETATM    1  C1  UNL     1      -4.402   1.106  15.083  1.00  0.00     0.123 C
ENDROOT
BRANCH   1   2
HETATM    2  O1  UNL     1      -4.790  -0.219  15.209  1.00  0.00    -0.395 OA
ATOM      3  H1  UNL     1      -4.115  -0.753  15.611  1.00  0.00     0.210 HD
ENDBRANCH   1   2
BRANCH   1   4
HETATM    4  C2  UNL     1      -4.725   1.650  13.772  1.00  0.00     0.062 C
BRANCH   4   5
HETATM    5  C3  UNL     1      -3.605   2.061  12.896  1.00  0.00     0.275 C
BRANCH   5   6
HETATM    6  N1  UNL     1      -3.824   2.249  11.494  1.00  0.00     0.092 N
HETATM    7  C4  UNL     1      -2.663   1.600  10.810  1.00  0.00     0.298 C
HETATM    8  C5  UNL     1      -2.555   0.204  11.287  1.00  0.00     0.198 C
HETATM    9  O2  UNL     1      -3.658  -0.524  10.849  1.00  0.00    -0.388 OA
HETATM   10  C6  UNL     1      -4.605   0.260  10.241  1.00  0.00     0.198 C
HETATM   11  C7  UNL     1      -5.002   1.453  11.088  1.00  0.00     0.298 C
ENDBRANCH   5   6
ENDBRANCH   4   5
ENDBRANCH   1   4
BRANCH   1  12
HETATM   12  C8  UNL     1      -5.041   1.842  16.242  1.00  0.00     0.014 C
HETATM   13  C9  UNL     1      -5.719   0.922  17.211  1.00  0.00     0.007 C
HETATM   14  C10 UNL     1      -6.385   1.953  18.137  1.00  0.00     0.000 C
HETATM   15  C11 UNL     1      -6.708   3.142  17.226  1.00  0.00     0.000 C
HETATM   16  C12 UNL     1      -6.174   2.742  15.841  1.00  0.00     0.007 C
ENDBRANCH   1  12
TORSDOF 5
ENDMDL