MODEL 2
REMARK VINA RESULT: -5.928029347      2.335      5.581
REMARK  4 active torsions:
REMARK  status: ('A' for Active; 'I' for Inactive)
REMARK    1  A    between atoms: C1_1  and  C2_2
REMARK    2  A    between atoms: C1_1  and  C8_11
REMARK    3  A    between atoms: C2_2  and  C3_3
REMARK    4  A    between atoms: C8_11  and  N2_12
ROOT
HETATM    1  C2  UNL     1      -3.813   3.527  13.099  1.00  0.00     0.006 C
ENDROOT
BRANCH   1   2
HETATM    2  C1  UNL     1      -3.884   3.490  14.613  1.00  0.00     0.030 C
BRANCH   2   3
HETATM    3  C8  UNL     1      -5.302   3.712  15.102  1.00  0.00     0.272 C
BRANCH   3   4
HETATM    4  N2  UNL     1      -5.867   2.497  15.583  1.00  0.00     0.092 N
HETATM    5  C9  UNL     1      -4.906   1.502  15.967  1.00  0.00     0.298 C
HETATM    6  C10 UNL     1      -5.459   0.557  17.009  1.00  0.00     0.198 C
HETATM    7  O1  UNL     1      -6.802   0.302  16.899  1.00  0.00    -0.388 OA
HETATM    8  C11 UNL     1      -7.597   1.410  16.769  1.00  0.00     0.198 C
HETATM    9  C12 UNL     1      -6.782   2.703  16.679  1.00  0.00     0.298 C
ENDBRANCH   3   4
ENDBRANCH   2   3
ENDBRANCH   1   2
BRANCH   1  10
HETATM   10  C3  UNL     1      -3.438   2.163  12.544  1.00  0.00    -0.011 C
HETATM   11  C4  UNL     1      -4.680   1.373  12.195  1.00  0.00     0.032 C
HETATM   12  C5  UNL     1      -4.606   0.744  10.850  1.00  0.00     0.232 C
HETATM   13  N1  UNL     1      -3.372   0.123  10.507  1.00  0.00    -0.075 N
HETATM   14  C6  UNL     1      -2.209   0.903  10.869  1.00  0.00     0.232 C
ATOM     15  H12 UNL     1      -3.317  -0.813  10.908  1.00  0.00     0.277 HD
ATOM     16  H11 UNL     1      -3.352  -0.115   9.515  1.00  0.00     0.277 HD
HETATM   17  C7  UNL     1      -2.649   2.309  11.256  1.00  0.00     0.032 C
ENDBRANCH   1  10
TORSDOF 4
ENDMDL