MODEL 1
REMARK VINA RESULT: -6.664270923      0.000      0.000
REMARK  5 active torsions:
REMARK  status: ('A' for Active; 'I' for Inactive)
REMARK    1  A    between atoms: O1_1  and  C1_3
REMARK    2  A    between atoms: C1_3  and  C2_4
REMARK    3  A    between atoms: N1_8  and  C6_9
REMARK    4  A    between atoms: C6_9  and  C7_10
REMARK    5  A    between atoms: C7_10  and  C8_11
ROOT
HETATM    1  C2  UNL     1      -6.031   1.870  16.335  1.00  0.00     0.037 C
HETATM    2  C3  UNL     1      -6.774   3.075  16.788  1.00  0.00     0.010 C
HETATM    3  C4  UNL     1      -6.531   4.282  15.904  1.00  0.00     0.031 C
HETATM    4  C5  UNL     1      -5.876   3.745  14.646  1.00  0.00     0.272 C
HETATM    5  N1  UNL     1      -4.513   3.355  15.053  1.00  0.00     0.088 N
HETATM    6  C12 UNL     1      -4.630   2.140  15.850  1.00  0.00     0.279 C
ENDROOT
BRANCH   5   7
HETATM    7  C6  UNL     1      -3.717   3.115  13.857  1.00  0.00     0.275 C
BRANCH   7   8
HETATM    8  C7  UNL     1      -4.603   2.787  12.676  1.00  0.00     0.062 C
BRANCH   8   9
HETATM    9  C8  UNL     1      -3.846   1.823  11.830  1.00  0.00     0.123 C
HETATM   10  C9  UNL     1      -4.347   0.401  11.893  1.00  0.00     0.034 C
HETATM   11  C10 UNL     1      -3.208  -0.333  11.172  1.00  0.00     0.029 C
HETATM   12  C11 UNL     1      -2.171   0.784  11.024  1.00  0.00     0.168 C
HETATM   13  O2  UNL     1      -2.501   1.684  12.078  1.00  0.00    -0.386 OA
ENDBRANCH   8   9
ENDBRANCH   7   8
ENDBRANCH   5   7
BRANCH   1  14
HETATM   14  C1  UNL     1      -5.983   0.872  17.474  1.00  0.00     0.170 C
BRANCH  14  15
HETATM   15  O1  UNL     1      -5.810  -0.440  17.052  1.00  0.00    -0.400 OA
ATOM     16  H1  UNL     1      -6.606  -0.957  17.090  1.00  0.00     0.209 HD
ENDBRANCH  14  15
ENDBRANCH   1  14
TORSDOF 5
ENDMDL