MODEL 4
REMARK VINA RESULT: -5.152259726      1.329      5.345
REMARK  5 active torsions:
REMARK  status: ('A' for Active; 'I' for Inactive)
REMARK    1  A    between atoms: C2_2  and  C3_3
REMARK    2  A    between atoms: C2_2  and  C6_7
REMARK    3  A    between atoms: C3_3  and  N1_4
REMARK    4  A    between atoms: C6_7  and  O1_8
REMARK    5  A    between atoms: C6_7  and  C7_10
ROOT
HETATM    1  C6  UNL     1      -3.145   2.561  13.259  1.00  0.00     0.131 C
ENDROOT
BRANCH   1   2
HETATM    2  C2  UNL     1      -3.168   2.398  11.768  1.00  0.00     0.049 C
HETATM    3  C1  UNL     1      -2.247   3.461  11.209  1.00  0.00     0.018 C
BRANCH   2   4
HETATM    4  C3  UNL     1      -2.739   1.056  11.320  1.00  0.00     0.064 C
BRANCH   4   5
HETATM    5  N1  UNL     1      -3.644  -0.008  11.314  1.00  0.00    -0.401 N
HETATM    6  C4  UNL     1      -3.210  -1.342  11.243  1.00  0.00     0.148 C
HETATM    7  C5  UNL     1      -4.900   0.254  10.650  1.00  0.00     0.148 C
ENDBRANCH   4   5
ENDBRANCH   2   4
ENDBRANCH   1   2
BRANCH   1   8
HETATM    8  O1  UNL     1      -2.651   3.829  13.629  1.00  0.00    -0.394 OA
ATOM      9  H1  UNL     1      -3.255   4.281  14.206  1.00  0.00     0.210 HD
ENDBRANCH   1   8
BRANCH   1  10
HETATM   10  C7  UNL     1      -4.475   2.390  13.949  1.00  0.00     0.021 C
HETATM   11  C8  UNL     1      -4.779   3.550  14.869  1.00  0.00     0.027 C
HETATM   12  C9  UNL     1      -5.969   3.122  15.706  1.00  0.00     0.122 C
HETATM   13  N2  UNL     1      -5.473   2.184  16.652  1.00  0.00    -0.398 N
HETATM   14  C10 UNL     1      -6.252   1.967  17.817  1.00  0.00     0.148 C
HETATM   15  C11 UNL     1      -4.716   1.115  16.132  1.00  0.00     0.058 C
HETATM   16  C12 UNL     1      -4.539   1.084  14.650  1.00  0.00     0.051 C
ENDBRANCH   1  10
TORSDOF 5
ENDMDL