MODEL 4
REMARK VINA RESULT: -5.305460192      2.422      4.851
REMARK  3 active torsions:
REMARK  status: ('A' for Active; 'I' for Inactive)
REMARK    1  A    between atoms: C2_2  and  C3_3
REMARK    2  A    between atoms: C3_3  and  N1_4
REMARK    3  A    between atoms: C7_9  and  C8_10
ROOT
HETATM    1  N1  UNL     1      -3.802   2.573  12.714  1.00  0.00     0.093 N
HETATM    2  C4  UNL     1      -3.625   3.966  12.478  1.00  0.00     0.303 C
HETATM    3  C5  UNL     1      -4.669   4.869  13.049  1.00  0.00     0.302 C
HETATM    4  N2  UNL     1      -4.552   5.057  14.476  1.00  0.00     0.091 N
HETATM    5  C6  UNL     1      -5.875   4.958  15.088  1.00  0.00     0.278 C
HETATM    6  C7  UNL     1      -6.192   3.485  15.204  1.00  0.00     0.031 C
HETATM    7  C9  UNL     1      -4.848   2.842  14.941  1.00  0.00     0.049 C
HETATM    8  C10 UNL     1      -4.846   2.200  13.602  1.00  0.00     0.279 C
HETATM    9  C11 UNL     1      -3.846   3.959  15.110  1.00  0.00     0.279 C
ENDROOT
BRANCH   1  10
HETATM   10  C3  UNL     1      -3.811   1.802  11.518  1.00  0.00     0.299 C
BRANCH  10  11
HETATM   11  C2  UNL     1      -2.667   0.905  11.305  1.00  0.00    -0.007 C
HETATM   12  C1  UNL     1      -1.453   1.335  10.976  1.00  0.00     0.008 C
ENDBRANCH  10  11
ENDBRANCH   1  10
BRANCH   6  13
HETATM   13  C8  UNL     1      -6.703   3.144  16.588  1.00  0.00     0.093 C
HETATM   14  S1  UNL     1      -6.762   1.369  16.825  1.00  0.00    -0.097 SA
ENDBRANCH   6  13
TORSDOF 3
ENDMDL