MODEL 4
REMARK VINA RESULT: -6.168624703      1.369      1.794
REMARK  5 active torsions:
REMARK  status: ('A' for Active; 'I' for Inactive)
REMARK    1  A    between atoms: O1_1  and  C1_3
REMARK    2  A    between atoms: N1_6  and  C4_7
REMARK    3  A    between atoms: C4_7  and  C5_8
REMARK    4  A    between atoms: C5_8  and  C6_9
REMARK    5  A    between atoms: C6_9  and  N2_10
ROOT
HETATM    1  C1  UNL     1      -2.066   2.735  10.639  1.00  0.00     0.121 C
HETATM    2  C2  UNL     1      -3.525   3.194  10.722  1.00  0.00     0.062 C
HETATM    3  C3  UNL     1      -4.042   2.589  12.006  1.00  0.00     0.275 C
HETATM    4  N1  UNL     1      -4.372   1.188  11.726  1.00  0.00     0.088 N
HETATM    5  C11 UNL     1      -3.438   0.661  10.730  1.00  0.00     0.275 C
HETATM    6  C12 UNL     1      -2.073   1.271  10.986  1.00  0.00     0.062 C
ENDROOT
BRANCH   4   7
HETATM    7  C4  UNL     1      -4.248   0.401  12.945  1.00  0.00     0.274 C
BRANCH   7   8
HETATM    8  C5  UNL     1      -4.424   1.373  14.102  1.00  0.00     0.060 C
BRANCH   8   9
HETATM    9  C6  UNL     1      -4.603   0.552  15.378  1.00  0.00     0.274 C
BRANCH   9  10
HETATM   10  N2  UNL     1      -4.883   1.448  16.461  1.00  0.00     0.088 N
HETATM   11  C7  UNL     1      -5.511   2.680  16.060  1.00  0.00     0.272 C
HETATM   12  C8  UNL     1      -6.930   2.683  16.533  1.00  0.00     0.032 C
HETATM   13  C9  UNL     1      -7.174   1.267  16.966  1.00  0.00     0.032 C
HETATM   14  C10 UNL     1      -5.795   0.837  17.426  1.00  0.00     0.272 C
ENDBRANCH   9  10
ENDBRANCH   8   9
ENDBRANCH   7   8
ENDBRANCH   4   7
BRANCH   1  15
HETATM   15  O1  UNL     1      -1.512   2.902   9.388  1.00  0.00    -0.395 OA
ATOM     16  H1  UNL     1      -1.642   2.153   8.817  1.00  0.00     0.210 HD
ENDBRANCH   1  15
TORSDOF 5
ENDMDL