MODEL 5
REMARK VINA RESULT: -5.840696702      2.332      5.212
REMARK  4 active torsions:
REMARK  status: ('A' for Active; 'I' for Inactive)
REMARK    1  A    between atoms: C2_2  and  C3_3
REMARK    2  A    between atoms: C3_3  and  C4_4
REMARK    3  A    between atoms: C8_9  and  N1_10
REMARK    4  A    between atoms: C11_13  and  N2_14
ROOT
HETATM    1  C4  UNL     1      -2.918   1.944  12.025  1.00  0.00     0.046 C
HETATM    2  C5  UNL     1      -3.153   1.069  10.804  1.00  0.00     0.174 C
HETATM    3  O1  UNL     1      -3.079  -0.283  11.163  1.00  0.00    -0.391 OA
HETATM    4  C6  UNL     1      -4.233  -0.535  11.900  1.00  0.00     0.169 C
HETATM    5  C7  UNL     1      -4.240   0.307  13.153  1.00  0.00     0.062 C
HETATM    6  C8  UNL     1      -4.168   1.805  12.806  1.00  0.00     0.231 C
ENDROOT
BRANCH   6   7
HETATM    7  N1  UNL     1      -4.379   2.511  13.992  1.00  0.00     0.095 N
HETATM    8  C9  UNL     1      -5.607   3.164  14.230  1.00  0.00     0.275 C
HETATM    9  C10 UNL     1      -5.936   3.060  15.721  1.00  0.00     0.065 C
HETATM   10  C11 UNL     1      -5.070   1.958  16.205  1.00  0.00     0.215 C
HETATM   11  C13 UNL     1      -4.161   1.566  15.098  1.00  0.00     0.305 C
BRANCH  10  12
HETATM   12  N2  UNL     1      -5.898   0.861  16.656  1.00  0.00    -0.073 N
HETATM   13  C12 UNL     1      -7.241   1.244  16.962  1.00  0.00     0.267 C
ATOM     14  H22 UNL     1      -5.886   0.098  15.979  1.00  0.00     0.277 HD
ATOM     15  H21 UNL     1      -5.468   0.389  17.452  1.00  0.00     0.277 HD
ENDBRANCH  10  12
ENDBRANCH   6   7
BRANCH   1  16
HETATM   16  C3  UNL     1      -2.458   3.245  11.567  1.00  0.00     0.035 C
BRANCH  16  17
HETATM   17  C2  UNL     1      -1.282   3.107  10.668  1.00  0.00    -0.036 C
HETATM   18  C1  UNL     1      -0.046   3.519  11.024  1.00  0.00     0.007 C
ENDBRANCH  16  17
ENDBRANCH   1  16
TORSDOF 4
ENDMDL