MODEL 2
REMARK VINA RESULT: -5.574355393      0.604      1.377
REMARK  4 active torsions:
REMARK  status: ('A' for Active; 'I' for Inactive)
REMARK    1  A    between atoms: C2_2  and  C3_3
REMARK    2  A    between atoms: C3_3  and  N1_5
REMARK    3  A    between atoms: N2_8  and  C6_9
REMARK    4  A    between atoms: C6_9  and  C7_10
ROOT
HETATM    1  N1  UNL     1      -3.774   1.792  12.202  1.00  0.00    -0.353 N
HETATM    2  C4  UNL     1      -3.625   2.938  12.957  1.00  0.00     0.094 C
HETATM    3  C5  UNL     1      -4.819   3.145  13.874  1.00  0.00     0.317 C
HETATM    4  N2  UNL     1      -5.038   2.049  14.771  1.00  0.00     0.098 N
HETATM    5  C10 UNL     1      -4.372   0.852  14.381  1.00  0.00     0.317 C
HETATM    6  C11 UNL     1      -4.375   0.714  12.863  1.00  0.00     0.094 C
ENDROOT
BRANCH   1   7
HETATM    7  C3  UNL     1      -3.120   1.588  10.996  1.00  0.00     0.183 C
HETATM    8  S1  UNL     1      -3.333  -0.081  10.255  1.00  0.00    -0.065 SA
BRANCH   7   9
HETATM    9  C2  UNL     1      -1.590   1.693  11.192  1.00  0.00    -0.000 C
HETATM   10  C1  UNL     1      -0.916   2.526  10.536  1.00  0.00     0.010 C
ENDBRANCH   7   9
ENDBRANCH   1   7
BRANCH   4  11
HETATM   11  C6  UNL     1      -4.897   2.424  16.126  1.00  0.00     0.277 C
BRANCH  11  12
HETATM   12  C7  UNL     1      -5.547   1.443  17.083  1.00  0.00     0.014 A
HETATM   13  C8  UNL     1      -6.388   2.141  18.180  1.00  0.00     0.007 A
HETATM   14  C9  UNL     1      -7.020   1.265  17.144  1.00  0.00     0.007 A
ENDBRANCH  11  12
ENDBRANCH   4  11
TORSDOF 4
ENDMDL