MODEL 4
REMARK VINA RESULT: -5.498169149      2.330      5.743
REMARK  5 active torsions:
REMARK  status: ('A' for Active; 'I' for Inactive)
REMARK    1  A    between atoms: O1_1  and  C1_3
REMARK    2  A    between atoms: C1_3  and  C2_4
REMARK    3  A    between atoms: C2_4  and  C3_5
REMARK    4  A    between atoms: C3_5  and  N1_6
REMARK    5  A    between atoms: C6_9  and  N2_10
ROOT
HETATM    1  N1  UNL     1      -5.225   3.254  15.205  1.00  0.00    -0.412 N
HETATM    2  C4  UNL     1      -4.955   4.577  14.785  1.00  0.00     0.119 C
HETATM    3  C5  UNL     1      -3.718   4.566  13.912  1.00  0.00     0.055 C
HETATM    4  C6  UNL     1      -3.930   3.703  12.677  1.00  0.00     0.226 C
HETATM    5  C11 UNL     1      -4.891   2.597  12.940  1.00  0.00     0.055 C
HETATM    6  C12 UNL     1      -4.767   2.192  14.391  1.00  0.00     0.119 C
ENDROOT
BRANCH   1   7
HETATM    7  C3  UNL     1      -6.389   3.047  15.978  1.00  0.00     0.119 C
BRANCH   7   8
HETATM    8  C2  UNL     1      -6.196   2.263  17.242  1.00  0.00     0.045 C
BRANCH   8   9
HETATM    9  C1  UNL     1      -6.939   0.936  17.081  1.00  0.00     0.165 C
BRANCH   9  10
HETATM   10  O1  UNL     1      -6.043  -0.133  17.064  1.00  0.00    -0.401 OA
ATOM     11  H1  UNL     1      -6.380  -0.863  17.570  1.00  0.00     0.209 HD
ENDBRANCH   9  10
ENDBRANCH   8   9
ENDBRANCH   7   8
ENDBRANCH   1   7
BRANCH   4  12
HETATM   12  N2  UNL     1      -2.620   3.135  12.388  1.00  0.00     0.093 N
HETATM   13  C7  UNL     1      -2.625   2.122  11.385  1.00  0.00     0.273 C
HETATM   14  C8  UNL     1      -1.266   2.215  10.676  1.00  0.00     0.032 C
HETATM   15  C9  UNL     1      -0.564   3.354  11.376  1.00  0.00     0.032 C
HETATM   16  C10 UNL     1      -1.727   4.184  11.870  1.00  0.00     0.273 C
ENDBRANCH   4  12
TORSDOF 5
ENDMDL