MODEL 1
REMARK VINA RESULT: -5.311507484      0.000      0.000
REMARK  3 active torsions:
REMARK  status: ('A' for Active; 'I' for Inactive)
REMARK    1  A    between atoms: C4_5  and  C5_6
REMARK    2  A    between atoms: C5_6  and  S1_7
REMARK    3  A    between atoms: S1_7  and  C6_8
ROOT
HETATM    1  C1  UNL     1      -6.511   2.460  18.051  1.00  0.00     0.262 C
HETATM    2  C2  UNL     1      -5.769   1.267  17.592  1.00  0.00     0.300 C
HETATM    3  N1  UNL     1      -5.244   1.279  16.293  1.00  0.00     0.097 N
HETATM    4  C3  UNL     1      -3.940   1.819  16.070  1.00  0.00     0.280 C
HETATM    5  C4  UNL     1      -4.417   2.242  14.696  1.00  0.00     0.058 C
HETATM    6  C9  UNL     1      -5.780   2.209  15.366  1.00  0.00     0.255 C
HETATM    7  C10 UNL     1      -6.207   3.524  15.960  1.00  0.00     0.268 C
HETATM    8  N2  UNL     1      -7.130   3.239  17.021  1.00  0.00    -0.071 N
ATOM      9  H21 UNL     1      -7.547   4.091  17.395  1.00  0.00     0.277 HD
ATOM     10  H22 UNL     1      -7.977   2.791  16.670  1.00  0.00     0.277 HD
ENDROOT
BRANCH   5  11
HETATM   11  C5  UNL     1      -4.294   1.132  13.694  1.00  0.00     0.082 C
BRANCH  11  12
HETATM   12  S1  UNL     1      -4.666   1.778  12.024  1.00  0.00    -0.164 SA
BRANCH  12  13
HETATM   13  C6  UNL     1      -4.649   0.375  10.879  1.00  0.00     0.047 A
HETATM   14  C7  UNL     1      -3.288  -0.008  10.347  1.00  0.00     0.016 A
HETATM   15  C8  UNL     1      -4.006  -0.888  11.295  1.00  0.00     0.016 A
ENDBRANCH  12  13
ENDBRANCH  11  12
ENDBRANCH   5  11
TORSDOF 3
ENDMDL