MODEL 5
REMARK VINA RESULT: -5.818317468      1.746      2.224
REMARK  3 active torsions:
REMARK  status: ('A' for Active; 'I' for Inactive)
REMARK    1  A    between atoms: C3_4  and  C4_5
REMARK    2  A    between atoms: C4_5  and  C5_6
REMARK    3  A    between atoms: C5_6  and  N1_7
ROOT
HETATM    1  N1  UNL     1      -4.351   3.528  12.735  1.00  0.00     0.090 N
HETATM    2  C6  UNL     1      -4.206   4.777  13.396  1.00  0.00     0.274 C
HETATM    3  C7  UNL     1      -3.155   4.818  14.455  1.00  0.00     0.057 C
HETATM    4  C8  UNL     1      -1.814   5.313  13.900  1.00  0.00     0.234 C
HETATM    5  N2  UNL     1      -1.188   4.260  13.121  1.00  0.00    -0.073 N
ATOM      6  H21 UNL     1      -0.930   3.465  13.705  1.00  0.00     0.277 HD
ATOM      7  H22 UNL     1      -0.257   4.532  12.805  1.00  0.00     0.277 HD
HETATM    8  C9  UNL     1      -2.028   3.851  12.007  1.00  0.00     0.262 C
HETATM    9  C10 UNL     1      -3.103   2.891  12.395  1.00  0.00     0.299 C
ENDROOT
BRANCH   1  10
HETATM   10  C5  UNL     1      -5.192   2.559  13.371  1.00  0.00     0.275 C
BRANCH  10  11
HETATM   11  C4  UNL     1      -4.464   1.623  14.267  1.00  0.00     0.062 C
BRANCH  11  12
HETATM   12  C3  UNL     1      -4.921   1.655  15.698  1.00  0.00     0.123 C
HETATM   13  O1  UNL     1      -5.421   0.383  15.985  1.00  0.00    -0.386 OA
HETATM   14  C2  UNL     1      -5.974   0.575  17.252  1.00  0.00     0.168 C
HETATM   15  C1  UNL     1      -6.900   1.761  16.951  1.00  0.00     0.029 C
HETATM   16  C11 UNL     1      -6.079   2.552  15.947  1.00  0.00     0.034 C
ENDBRANCH  11  12
ENDBRANCH  10  11
ENDBRANCH   1  10
TORSDOF 3
ENDMDL