MODEL 1
REMARK VINA RESULT: -6.079588386      0.000      0.000
REMARK  3 active torsions:
REMARK  status: ('A' for Active; 'I' for Inactive)
REMARK    1  A    between atoms: C4_6  and  C5_7
REMARK    2  A    between atoms: C5_7  and  C6_8
REMARK    3  A    between atoms: C6_8  and  N2_9
ROOT
HETATM    1  C5  UNL     1      -4.013   2.851  14.832  1.00  0.00     0.036 C
ENDROOT
BRANCH   1   2
HETATM    2  C4  UNL     1      -4.898   2.478  15.973  1.00  0.00     0.005 C
HETATM    3  C3  UNL     1      -6.235   3.116  15.759  1.00  0.00     0.118 C
HETATM    4  N1  UNL     1      -7.259   2.713  16.679  1.00  0.00    -0.421 N
HETATM    5  C2  UNL     1      -7.265   1.323  17.025  1.00  0.00     0.113 C
ATOM      6  H1  UNL     1      -7.938   3.372  17.061  1.00  0.00     0.153 HD
HETATM    7  C1  UNL     1      -5.885   0.875  17.489  1.00  0.00     0.020 C
HETATM    8  C11 UNL     1      -5.009   1.004  16.236  1.00  0.00     0.008 C
ENDBRANCH   1   2
BRANCH   1   9
HETATM    9  C6  UNL     1      -4.633   2.589  13.478  1.00  0.00     0.273 C
BRANCH   9  10
HETATM   10  N2  UNL     1      -3.769   1.639  12.814  1.00  0.00     0.092 N
HETATM   11  C7  UNL     1      -4.339   0.339  12.674  1.00  0.00     0.298 C
HETATM   12  C8  UNL     1      -4.307  -0.078  11.194  1.00  0.00     0.198 C
HETATM   13  O1  UNL     1      -2.976  -0.083  10.842  1.00  0.00    -0.388 OA
HETATM   14  C9  UNL     1      -2.485   1.193  10.770  1.00  0.00     0.198 C
HETATM   15  C10 UNL     1      -3.136   2.195  11.676  1.00  0.00     0.298 C
ENDBRANCH   9  10
ENDBRANCH   1   9
TORSDOF 3
ENDMDL