MODEL 2
REMARK VINA RESULT: -6.288255597      0.875      1.139
REMARK  3 active torsions:
REMARK  status: ('A' for Active; 'I' for Inactive)
REMARK    1  A    between atoms: C2_2  and  C3_3
REMARK    2  A    between atoms: C3_3  and  C4_4
REMARK    3  A    between atoms: C5_6  and  C6_7
ROOT
HETATM    1  C4  UNL     1      -4.648   2.349  12.573  1.00  0.00     0.222 C
HETATM    2  O1  UNL     1      -4.527   1.825  13.858  1.00  0.00    -0.359 OA
HETATM    3  C5  UNL     1      -4.667   2.930  14.732  1.00  0.00     0.156 C
HETATM    4  C10 UNL     1      -3.528   3.877  14.624  1.00  0.00     0.053 C
HETATM    5  C11 UNL     1      -3.272   4.215  13.173  1.00  0.00     0.121 C
HETATM    6  N2  UNL     1      -3.426   3.079  12.347  1.00  0.00    -0.392 N
HETATM    7  C12 UNL     1      -3.040   3.211  10.997  1.00  0.00     0.145 C
ENDROOT
BRANCH   3   8
HETATM    8  C6  UNL     1      -4.998   2.437  16.091  1.00  0.00     0.214 C
HETATM    9  C7  UNL     1      -5.087   0.947  16.221  1.00  0.00     0.037 C
HETATM   10  C8  UNL     1      -6.098   0.706  17.336  1.00  0.00     0.029 C
HETATM   11  C9  UNL     1      -6.360   2.107  17.837  1.00  0.00     0.233 C
HETATM   12  N1  UNL     1      -6.292   2.877  16.590  1.00  0.00    -0.069 N
ATOM     13  H12 UNL     1      -6.414   3.886  16.684  1.00  0.00     0.277 HD
ATOM     14  H11 UNL     1      -7.079   2.760  15.951  1.00  0.00     0.277 HD
ENDBRANCH   3   8
BRANCH   1  15
HETATM   15  C3  UNL     1      -4.770   1.204  11.602  1.00  0.00     0.080 C
BRANCH  15  16
HETATM   16  C2  UNL     1      -4.232  -0.007  12.275  1.00  0.00    -0.033 C
HETATM   17  C1  UNL     1      -3.666  -0.965  11.551  1.00  0.00     0.007 C
ENDBRANCH  15  16
ENDBRANCH   1  15
TORSDOF 3
ENDMDL