MODEL 3
REMARK VINA RESULT: -5.755311011      2.658      3.657
REMARK  3 active torsions:
REMARK  status: ('A' for Active; 'I' for Inactive)
REMARK    1  A    between atoms: C3_3  and  C4_4
REMARK    2  A    between atoms: C4_4  and  N1_5
REMARK    3  A    between atoms: N1_5  and  C5_7
ROOT
HETATM    1  C5  UNL     1      -4.589   1.538  13.277  1.00  0.00     0.318 C
HETATM    2  C6  UNL     1      -4.202   0.123  12.876  1.00  0.00     0.061 C
HETATM    3  C7  UNL     1      -3.421   0.225  11.556  1.00  0.00    -0.008 C
HETATM    4  C8  UNL     1      -4.465   0.475  10.482  1.00  0.00     0.035 C
HETATM    5  C9  UNL     1      -5.275   1.669  10.982  1.00  0.00     0.275 C
HETATM    6  N2  UNL     1      -4.628   2.341  12.098  1.00  0.00     0.111 N
HETATM    7  C10 UNL     1      -3.259   2.678  11.757  1.00  0.00     0.275 C
HETATM    8  C11 UNL     1      -2.488   1.397  11.526  1.00  0.00     0.035 C
ENDROOT
BRANCH   1   9
HETATM    9  N1  UNL     1      -3.629   2.008  14.221  1.00  0.00    -0.391 N
ATOM     10  H1  UNL     1      -2.628   1.871  14.079  1.00  0.00     0.155 HD
BRANCH   9  11
HETATM   11  C4  UNL     1      -4.135   2.677  15.371  1.00  0.00     0.147 C
BRANCH  11  12
HETATM   12  C3  UNL     1      -5.500   2.058  15.731  1.00  0.00     0.140 C
HETATM   13  C2  UNL     1      -5.561   1.839  17.216  1.00  0.00     0.060 C
HETATM   14  C1  UNL     1      -6.661   2.839  17.119  1.00  0.00     0.170 C
HETATM   15  O1  UNL     1      -6.413   3.129  15.792  1.00  0.00    -0.384 OA
ENDBRANCH  11  12
ENDBRANCH   9  11
ENDBRANCH   1   9
TORSDOF 3
ENDMDL