MODEL 5
REMARK VINA RESULT: -5.550982242      2.880      4.364
REMARK  4 active torsions:
REMARK  status: ('A' for Active; 'I' for Inactive)
REMARK    1  A    between atoms: O1_1  and  C1_3
REMARK    2  A    between atoms: C1_3  and  C2_4
REMARK    3  A    between atoms: C2_4  and  N1_5
REMARK    4  A    between atoms: C5_8  and  N2_9
ROOT
HETATM    1  N1  UNL     1      -5.651   2.663  15.622  1.00  0.00    -0.391 N
HETATM    2  C3  UNL     1      -6.358   3.842  15.325  1.00  0.00     0.060 C
HETATM    3  C4  UNL     1      -5.580   5.084  15.076  1.00  0.00     0.080 C
HETATM    4  C5  UNL     1      -4.334   4.775  14.311  1.00  0.00     0.229 C
HETATM    5  C10 UNL     1      -3.545   3.788  15.096  1.00  0.00     0.056 C
HETATM    6  C11 UNL     1      -4.363   2.489  15.021  1.00  0.00     0.124 C
ENDROOT
BRANCH   4   7
HETATM    7  N2  UNL     1      -3.686   5.966  13.911  1.00  0.00     0.093 N
HETATM    8  C6  UNL     1      -2.254   5.977  14.079  1.00  0.00     0.273 C
HETATM    9  C7  UNL     1      -1.946   7.370  13.502  1.00  0.00     0.032 C
HETATM   10  C8  UNL     1      -2.826   7.364  12.263  1.00  0.00     0.032 C
HETATM   11  C9  UNL     1      -3.946   6.373  12.553  1.00  0.00     0.273 C
ENDBRANCH   4   7
BRANCH   1  12
HETATM   12  C2  UNL     1      -5.721   2.197  16.985  1.00  0.00     0.148 C
BRANCH  12  13
HETATM   13  C1  UNL     1      -6.684   1.036  17.110  1.00  0.00     0.183 C
BRANCH  13  14
HETATM   14  O1  UNL     1      -5.954  -0.159  17.181  1.00  0.00    -0.399 OA
ATOM     15  H1  UNL     1      -6.273  -0.675  17.911  1.00  0.00     0.209 HD
ENDBRANCH  13  14
ENDBRANCH  12  13
ENDBRANCH   1  12
TORSDOF 4
ENDMDL