MODEL 3
REMARK VINA RESULT: -5.784399817      1.401      1.533
REMARK  4 active torsions:
REMARK  status: ('A' for Active; 'I' for Inactive)
REMARK    1  A    between atoms: O1_1  and  C1_3
REMARK    2  A    between atoms: C1_3  and  C2_4
REMARK    3  A    between atoms: C2_4  and  N1_5
REMARK    4  A    between atoms: N2_8  and  C5_9
ROOT
HETATM    1  N1  UNL     1      -4.174   2.823  11.779  1.00  0.00    -0.388 N
HETATM    2  C3  UNL     1      -4.524   1.567  12.291  1.00  0.00     0.077 C
HETATM    3  C4  UNL     1      -4.356   1.336  13.747  1.00  0.00     0.161 C
HETATM    4  N2  UNL     1      -4.624   2.510  14.482  1.00  0.00    -0.402 N
HETATM    5  C10 UNL     1      -3.829   3.569  14.055  1.00  0.00     0.137 C
HETATM    6  C11 UNL     1      -4.333   3.947  12.655  1.00  0.00     0.141 C
ENDROOT
BRANCH   4   7
HETATM    7  C5  UNL     1      -5.041   2.330  15.788  1.00  0.00     0.079 C
HETATM    8  C6  UNL     1      -6.418   2.930  16.110  1.00  0.00     0.025 C
HETATM    9  C7  UNL     1      -6.533   2.473  17.567  1.00  0.00     0.002 C
HETATM   10  C8  UNL     1      -6.271   0.980  17.385  1.00  0.00     0.002 C
HETATM   11  C9  UNL     1      -5.179   0.956  16.305  1.00  0.00     0.025 C
ENDBRANCH   4   7
BRANCH   1  12
HETATM   12  C2  UNL     1      -2.943   2.904  11.051  1.00  0.00     0.148 C
BRANCH  12  13
HETATM   13  C1  UNL     1      -2.370   1.550  10.700  1.00  0.00     0.183 C
BRANCH  13  14
HETATM   14  O1  UNL     1      -1.173   1.393  11.405  1.00  0.00    -0.399 OA
ATOM     15  H1  UNL     1      -1.153   0.510  11.755  1.00  0.00     0.209 HD
ENDBRANCH  13  14
ENDBRANCH  12  13
ENDBRANCH   1  12
TORSDOF 4
ENDMDL