MODEL 3
REMARK VINA RESULT: -6.426645687      1.377      1.513
REMARK  4 active torsions:
REMARK  status: ('A' for Active; 'I' for Inactive)
REMARK    1  A    between atoms: O1_1  and  C1_3
REMARK    2  A    between atoms: C1_3  and  C2_4
REMARK    3  A    between atoms: C1_3  and  C7_11
REMARK    4  A    between atoms: C2_4  and  N1_5
ROOT
HETATM    1  C1  UNL     1      -4.994   1.208  14.795  1.00  0.00     0.150 C
ENDROOT
BRANCH   1   2
HETATM    2  O1  UNL     1      -4.632  -0.163  14.605  1.00  0.00    -0.393 OA
ATOM      3  H1  UNL     1      -5.228  -0.710  15.103  1.00  0.00     0.210 HD
ENDBRANCH   1   2
BRANCH   1   4
HETATM    4  C2  UNL     1      -4.312   2.032  13.762  1.00  0.00     0.304 C
BRANCH   4   5
HETATM    5  N1  UNL     1      -4.032   1.355  12.578  1.00  0.00     0.095 N
HETATM    6  C3  UNL     1      -5.004   1.633  11.513  1.00  0.00     0.298 C
HETATM    7  C4  UNL     1      -4.943   0.368  10.647  1.00  0.00     0.198 C
HETATM    8  O2  UNL     1      -3.742   0.390   9.965  1.00  0.00    -0.388 OA
HETATM    9  C5  UNL     1      -2.799   1.218  10.470  1.00  0.00     0.198 C
HETATM   10  C6  UNL     1      -2.762   1.334  11.989  1.00  0.00     0.298 C
ENDBRANCH   4   5
ENDBRANCH   1   4
BRANCH   1  11
HETATM   11  C7  UNL     1      -4.909   1.632  16.193  1.00  0.00     0.016 C
HETATM   12  C8  UNL     1      -5.455   3.010  16.417  1.00  0.00     0.007 C
HETATM   13  C9  UNL     1      -6.922   2.835  16.787  1.00  0.00     0.000 C
HETATM   14  C10 UNL     1      -7.154   1.343  16.879  1.00  0.00     0.000 C
HETATM   15  C11 UNL     1      -5.786   0.807  17.123  1.00  0.00     0.007 C
ENDBRANCH   1  11
TORSDOF 4
ENDMDL