MODEL 3
REMARK VINA RESULT: -5.944473980      1.408      1.461
REMARK  4 active torsions:
REMARK  status: ('A' for Active; 'I' for Inactive)
REMARK    1  A    between atoms: C2_2  and  C3_3
REMARK    2  A    between atoms: C5_5  and  C6_6
REMARK    3  A    between atoms: N1_7  and  O1_9
REMARK    4  A    between atoms: N2_11  and  C7_12
ROOT
HETATM    1  C3  UNL     1      -5.958   3.813  14.954  1.00  0.00     0.016 C
HETATM    2  C4  UNL     1      -5.554   2.551  14.188  1.00  0.00     0.039 C
HETATM    3  C5  UNL     1      -5.017   3.041  12.836  1.00  0.00     0.128 C
HETATM    4  N2  UNL     1      -3.867   3.834  13.202  1.00  0.00    -0.345 N
HETATM    5  C8  UNL     1      -3.899   4.365  14.556  1.00  0.00     0.092 A
HETATM    6  C9  UNL     1      -3.888   5.686  14.795  1.00  0.00     0.033 A
HETATM    7  C10 UNL     1      -5.149   4.994  14.823  1.00  0.00     0.018 A
ENDROOT
BRANCH   3   8
HETATM    8  C6  UNL     1      -4.713   1.874  12.030  1.00  0.00     0.112 C
HETATM    9  N1  UNL     1      -5.269   1.702  10.888  1.00  0.00    -0.282 N
ATOM     10  H1  UNL     1      -5.931   2.405  10.559  1.00  0.00     0.192 HD
BRANCH   9  11
HETATM   11  O1  UNL     1      -5.017   0.611  10.081  1.00  0.00    -0.290 OA
ATOM     12  H1  UNL     1      -4.460   0.650   9.312  1.00  0.00     0.244 HD
ENDBRANCH   9  11
ENDBRANCH   3   8
BRANCH   4  13
HETATM   13  C7  UNL     1      -2.833   4.044  12.293  1.00  0.00     0.351 C
HETATM   14  O2  UNL     1      -1.646   3.691  12.508  1.00  0.00    -0.283 OA
ENDBRANCH   4  13
BRANCH   1  15
HETATM   15  C2  UNL     1      -6.284   3.412  16.346  1.00  0.00    -0.032 C
HETATM   16  C1  UNL     1      -6.949   2.302  16.595  1.00  0.00     0.007 C
ENDBRANCH   1  15
TORSDOF 4
ENDMDL