MODEL 4
REMARK VINA RESULT: -6.003656191      2.521      5.449
REMARK  3 active torsions:
REMARK  status: ('A' for Active; 'I' for Inactive)
REMARK    1  A    between atoms: C2_3  and  N2_4
REMARK    2  A    between atoms: C2_3  and  C8_13
REMARK       I    between atoms: N2_4  and  C3_6
REMARK    3  A    between atoms: C3_6  and  C4_8
ROOT
HETATM    1  N1  UNL     1      -2.794   4.900  12.667  1.00  0.00    -0.195 NA
HETATM    2  C1  UNL     1      -3.531   4.005  12.756  1.00  0.00     0.085 C
HETATM    3  C2  UNL     1      -4.479   2.878  12.866  1.00  0.00     0.196 C
ENDROOT
BRANCH   3   4
HETATM    4  N2  UNL     1      -4.726   2.529  14.229  1.00  0.00    -0.343 N
HETATM    5  C3  UNL     1      -5.800   3.066  14.979  1.00  0.00     0.225 C
HETATM    6  O1  UNL     1      -6.578   3.887  14.433  1.00  0.00    -0.273 OA
ATOM      7  H2  UNL     1      -4.100   1.863  14.682  1.00  0.00     0.163 HD
BRANCH   5   8
HETATM    8  C4  UNL     1      -6.043   2.696  16.389  1.00  0.00     0.103 C
HETATM    9  C5  UNL     1      -5.067   1.672  16.861  1.00  0.00     0.042 C
HETATM   10  C6  UNL     1      -5.936   0.571  17.470  1.00  0.00     0.168 C
HETATM   11  O2  UNL     1      -7.088   0.627  16.665  1.00  0.00    -0.390 OA
HETATM   12  C7  UNL     1      -7.369   1.968  16.521  1.00  0.00     0.181 C
ENDBRANCH   5   8
ENDBRANCH   3   4
BRANCH   3  13
HETATM   13  C8  UNL     1      -3.911   1.753  12.048  1.00  0.00     0.022 A
HETATM   14  C9  UNL     1      -4.916   1.134  11.082  1.00  0.00     0.008 A
HETATM   15  C10 UNL     1      -4.325   0.352  12.243  1.00  0.00     0.008 A
ENDBRANCH   3  13
TORSDOF 3
ENDMDL