MODEL 1
REMARK VINA RESULT: -7.440963889      0.000      0.000
REMARK  7 active torsions:
REMARK  status: ('A' for Active; 'I' for Inactive)
REMARK    1  A    between atoms: C2_2  and  C3_3
REMARK    2  A    between atoms: C3_3  and  C4_4
REMARK    3  A    between atoms: C4_4  and  C6_6
REMARK    4  A    between atoms: C6_6  and  C7_8
REMARK    5  A    between atoms: C8_9  and  C9_10
REMARK    6  A    between atoms: C9_10  and  O3_12
REMARK    7  A    between atoms: O3_12  and  C10_13
ROOT
HETATM    1  C10 UNL     1      72.076  39.329  -0.294  1.00  0.00     0.148 C
HETATM    2  C11 UNL     1      71.543  39.338   1.101  1.00  0.00     0.042 C
HETATM    3  C12 UNL     1      70.793  38.020   1.382  1.00  0.00     0.175 C
HETATM    4  O4  UNL     1      71.556  36.919   1.221  1.00  0.00    -0.385 OA
HETATM    5  C13 UNL     1      72.457  36.901   0.200  1.00  0.00     0.131 C
HETATM    6  C14 UNL     1      73.846  36.847   0.795  1.00  0.00     0.036 C
HETATM    7  C15 UNL     1      73.854  37.222   2.278  1.00  0.00     0.043 C
HETATM    8  C16 UNL     1      74.544  38.504   2.560  1.00  0.00     0.084 A
HETATM    9  C17 UNL     1      75.636  38.540   3.640  1.00  0.00     0.049 C
HETATM   10  O5  UNL     1      74.798  39.217   1.407  1.00  0.00    -0.370 OA
HETATM   11  C18 UNL     1      73.848  39.768   2.174  1.00  0.00     0.157 A
HETATM   12  C19 UNL     1      72.412  39.667   2.228  1.00  0.00     0.044 C
HETATM   13  C20 UNL     1      72.280  37.933  -0.852  1.00  0.00     0.006 C
HETATM   14  C21 UNL     1      73.533  37.914  -1.745  1.00  0.00     0.020 C
HETATM   15  C22 UNL     1      71.158  37.501  -1.767  1.00  0.00     0.020 C
ENDROOT
BRANCH   1  16
HETATM   16  O3  UNL     1      71.436  40.180  -1.189  1.00  0.00    -0.311 OA
BRANCH  16  17
HETATM   17  C9  UNL     1      70.559  41.185  -0.909  1.00  0.00     0.283 C
HETATM   18  O2  UNL     1      71.108  42.312  -0.891  1.00  0.00    -0.260 OA
BRANCH  17  19
HETATM   19  C8  UNL     1      69.148  40.982  -0.658  1.00  0.00     0.086 C
HETATM   20  C7  UNL     1      68.501  39.965  -1.189  1.00  0.00     0.056 C
BRANCH  20  21
HETATM   21  C6  UNL     1      67.084  39.732  -0.957  1.00  0.00     0.153 C
HETATM   22  O1  UNL     1      66.275  40.672  -1.118  1.00  0.00    -0.293 OA
BRANCH  21  23
HETATM   23  C4  UNL     1      66.564  38.407  -0.533  1.00  0.00     0.055 C
HETATM   24  C5  UNL     1      67.018  37.325  -1.484  1.00  0.00     0.018 C
BRANCH  23  25
HETATM   25  C3  UNL     1      65.060  38.484  -0.463  1.00  0.00     0.011 C
BRANCH  25  26
HETATM   26  C2  UNL     1      64.424  37.133  -0.287  1.00  0.00    -0.004 C
HETATM   27  C1  UNL     1      64.408  36.687   1.141  1.00  0.00     0.005 C
ENDBRANCH  25  26
ENDBRANCH  23  25
ENDBRANCH  21  23
ENDBRANCH  20  21
ENDBRANCH  17  19
ENDBRANCH  16  17
ENDBRANCH   1  16
TORSDOF 7
ENDMDL