MODEL 4
REMARK VINA RESULT: -5.965804347      1.964      3.057
REMARK  5 active torsions:
REMARK  status: ('A' for Active; 'I' for Inactive)
REMARK    1  A    between atoms: C2_2  and  C3_3
REMARK    2  A    between atoms: C7_10  and  C8_11
REMARK    3  A    between atoms: C7_10  and  C11_14
REMARK    4  A    between atoms: C11_14  and  C12_16
REMARK    5  A    between atoms: C20_24  and  O5_25
ROOT
HETATM    1  C3  UNL     1      74.646  35.875   3.829  1.00  0.00     0.177 C
HETATM    2  O1  UNL     1      75.970  35.992   4.096  1.00  0.00    -0.373 OA
HETATM    3  C4  UNL     1      76.606  36.992   3.349  1.00  0.00     0.248 C
HETATM    4  C5  UNL     1      76.009  38.341   3.687  1.00  0.00     0.278 A
HETATM    5  O2  UNL     1      76.573  39.362   4.242  1.00  0.00    -0.187 OA
HETATM    6  O3  UNL     1      76.085  38.545   5.101  1.00  0.00    -0.187 OA
HETATM    7  C6  UNL     1      74.542  38.216   3.293  1.00  0.00     0.034 C
HETATM    8  C7  UNL     1      74.070  38.968   2.242  1.00  0.00     0.021 C
HETATM    9  C20 UNL     1      73.867  37.206   4.088  1.00  0.00     0.189 C
ENDROOT
BRANCH   8  10
HETATM   10  C8  UNL     1      75.094  39.774   1.651  1.00  0.00     0.011 C
HETATM   11  C9  UNL     1      75.153  40.998   1.293  1.00  0.00    -0.030 C
HETATM   12  C10 UNL     1      76.434  41.572   0.669  1.00  0.00     0.036 C
ENDBRANCH   8  10
BRANCH   8  13
HETATM   13  C11 UNL     1      72.670  38.887   1.940  1.00  0.00     0.169 C
HETATM   14  O4  UNL     1      71.874  39.678   2.592  1.00  0.00    -0.291 OA
BRANCH  13  15
HETATM   15  C12 UNL     1      71.920  38.048   1.005  1.00  0.00     0.032 C
HETATM   16  C13 UNL     1      70.763  37.295   1.548  1.00  0.00     0.025 C
HETATM   17  C14 UNL     1      72.862  37.318   0.088  1.00  0.00     0.045 C
HETATM   18  C15 UNL     1      73.362  38.429  -0.812  1.00  0.00    -0.023 C
HETATM   19  C16 UNL     1      72.432  39.366  -0.878  1.00  0.00    -0.083 C
HETATM   20  C17 UNL     1      72.523  40.650  -1.665  1.00  0.00     0.043 C
HETATM   21  C18 UNL     1      71.281  38.968  -0.093  1.00  0.00     0.026 C
HETATM   22  C19 UNL     1      70.422  40.023   0.479  1.00  0.00     0.016 C
ENDBRANCH  13  15
ENDBRANCH   8  13
BRANCH   9  23
HETATM   23  O5  UNL     1      74.080  37.541   5.453  1.00  0.00    -0.383 OA
HETATM   24  C21 UNL     1      73.515  36.580   6.287  1.00  0.00     0.202 C
ENDBRANCH   9  23
BRANCH   1  25
HETATM   25  C2  UNL     1      74.332  35.473   2.439  1.00  0.00    -0.003 C
HETATM   26  C1  UNL     1      73.525  34.456   2.177  1.00  0.00     0.009 C
ENDBRANCH   1  25
TORSDOF 5
ENDMDL