MODEL 4
REMARK VINA RESULT: -6.621946781      3.443      7.576
REMARK  7 active torsions:
REMARK  status: ('A' for Active; 'I' for Inactive)
REMARK    1  A    between atoms: C2_2  and  C5_5
REMARK    2  A    between atoms: C6_10  and  S1_11
REMARK    3  A    between atoms: S1_11  and  C7_12
REMARK    4  A    between atoms: C7_12  and  C8_13
REMARK       I    between atoms: C8_13  and  N3_15
REMARK    5  A    between atoms: N3_15  and  C9_16
REMARK    6  A    between atoms: N3_15  and  C14_22
REMARK    7  A    between atoms: C9_16  and  C10_17
ROOT
HETATM    1  C8  UNL     1      69.997  40.946  -1.036  1.00  0.00     0.230 C
HETATM    2  O1  UNL     1      71.225  41.182  -1.282  1.00  0.00    -0.273 OA
HETATM    3  N3  UNL     1      69.610  39.684  -0.543  1.00  0.00    -0.344 N
ENDROOT
BRANCH   1   4
HETATM    4  C7  UNL     1      68.996  42.009  -1.276  1.00  0.00     0.185 C
BRANCH   4   5
HETATM    5  S1  UNL     1      69.788  43.500  -1.960  1.00  0.00    -0.075 SA
BRANCH   5   6
HETATM    6  C6  UNL     1      69.922  43.333  -3.732  1.00  0.00     0.203 A
HETATM    7  N2  UNL     1      68.957  43.685  -4.600  1.00  0.00    -0.272 N
HETATM    8  N1  UNL     1      69.367  43.435  -5.843  1.00  0.00    -0.280 N
ATOM      9  H2  UNL     1      68.053  44.082  -4.347  1.00  0.00     0.189 HD
HETATM   10  C5  UNL     1      70.603  42.923  -5.729  1.00  0.00     0.148 A
ATOM     11  H1  UNL     1      68.848  43.599  -6.706  1.00  0.00     0.189 HD
HETATM   12  O3  UNL     1      70.910  42.872  -4.447  1.00  0.00    -0.271 OA
BRANCH  10  13
HETATM   13  C2  UNL     1      71.442  42.499  -6.866  1.00  0.00     0.016 C
HETATM   14  C1  UNL     1      71.535  43.595  -7.925  1.00  0.00     0.023 C
HETATM   15  C3  UNL     1      72.847  42.185  -6.407  1.00  0.00     0.023 C
HETATM   16  C4  UNL     1      70.888  41.280  -7.564  1.00  0.00     0.023 C
ENDBRANCH  10  13
ENDBRANCH   5   6
ENDBRANCH   4   5
ENDBRANCH   1   4
BRANCH   3  17
HETATM   17  C9  UNL     1      68.210  39.445  -0.274  1.00  0.00     0.158 C
BRANCH  17  18
HETATM   18  C10 UNL     1      67.415  38.885  -1.395  1.00  0.00     0.139 C
HETATM   19  C11 UNL     1      67.166  37.418  -1.119  1.00  0.00     0.035 C
HETATM   20  C12 UNL     1      65.828  37.405  -0.459  1.00  0.00     0.029 C
HETATM   21  C13 UNL     1      65.335  38.817  -0.561  1.00  0.00     0.168 C
HETATM   22  O2  UNL     1      66.170  39.453  -1.438  1.00  0.00    -0.384 OA
ENDBRANCH  17  18
ENDBRANCH   3  17
BRANCH   3  23
HETATM   23  C14 UNL     1      70.624  38.679  -0.329  1.00  0.00     0.087 C
HETATM   24  C15 UNL     1      70.401  37.815   0.889  1.00  0.00     0.025 C
HETATM   25  C16 UNL     1      71.736  37.163   1.180  1.00  0.00     0.002 C
HETATM   26  C17 UNL     1      72.427  36.560   0.027  1.00  0.00     0.000 C
HETATM   27  C18 UNL     1      72.179  37.116  -1.319  1.00  0.00     0.002 C
HETATM   28  C19 UNL     1      70.808  37.735  -1.491  1.00  0.00     0.025 C
ENDBRANCH   3  23
TORSDOF 7
ENDMDL