MODEL 4
REMARK VINA RESULT: -6.454321525      2.113      6.242
REMARK  6 active torsions:
REMARK  status: ('A' for Active; 'I' for Inactive)
REMARK    1  A    between atoms: N1_2  and  C2_3
REMARK    2  A    between atoms: N1_2  and  C11_12
REMARK    3  A    between atoms: C2_3  and  C3_4
REMARK    4  A    between atoms: C14_17  and  N3_18
REMARK    5  A    between atoms: N3_18  and  C16_20
REMARK    6  A    between atoms: C19_23  and  N4_24
ROOT
HETATM    1  C11 UNL     1      71.113  41.732  -1.076  1.00  0.00     0.123 A
HETATM    2  C12 UNL     1      71.951  42.806  -0.894  1.00  0.00     0.067 A
HETATM    3  C13 UNL     1      73.293  42.585  -0.889  1.00  0.00     0.110 A
HETATM    4  N2  UNL     1      73.746  41.337  -1.059  1.00  0.00    -0.202 N
ATOM      5  H2  UNL     1      74.757  41.197  -1.050  1.00  0.00     0.183 HD
HETATM    6  C14 UNL     1      72.972  40.254  -1.241  1.00  0.00     0.681 A
HETATM    7  N5  UNL     1      71.629  40.507  -1.242  1.00  0.00    -0.176 N
ATOM      8  H5  UNL     1      70.989  39.725  -1.376  1.00  0.00     0.186 HD
ENDROOT
BRANCH   1   9
HETATM    9  N1  UNL     1      69.720  41.942  -1.069  1.00  0.00    -0.351 N
HETATM   10  C1  UNL     1      69.303  43.135  -1.858  1.00  0.00     0.156 C
BRANCH   9  11
HETATM   11  C2  UNL     1      68.683  41.242  -0.424  1.00  0.00     0.069 C
BRANCH  11  12
HETATM   12  C3  UNL     1      67.504  40.778  -1.185  1.00  0.00     0.024 C
HETATM   13  C4  UNL     1      67.930  39.613  -2.059  1.00  0.00     0.010 C
HETATM   14  C5  UNL     1      68.719  38.556  -1.389  1.00  0.00     0.001 C
HETATM   15  C6  UNL     1      68.036  37.738  -0.360  1.00  0.00     0.000 C
HETATM   16  C7  UNL     1      66.687  37.215  -0.777  1.00  0.00     0.000 C
HETATM   17  C8  UNL     1      65.649  38.099  -0.181  1.00  0.00     0.000 C
HETATM   18  C9  UNL     1      65.399  39.390  -0.895  1.00  0.00     0.001 C
HETATM   19  C10 UNL     1      66.291  40.497  -0.381  1.00  0.00     0.010 C
ENDBRANCH  11  12
ENDBRANCH   9  11
ENDBRANCH   1   9
BRANCH   6  20
HETATM   20  N3  UNL     1      73.462  38.932  -1.410  1.00  0.00    -0.217 N
HETATM   21  C15 UNL     1      74.110  38.615  -2.693  1.00  0.00     0.169 C
BRANCH  20  22
HETATM   22  C16 UNL     1      73.397  37.867  -0.473  1.00  0.00     0.103 C
HETATM   23  C17 UNL     1      74.131  36.669  -1.110  1.00  0.00     0.028 C
HETATM   24  C18 UNL     1      73.802  35.585  -0.107  1.00  0.00     0.038 C
HETATM   25  C19 UNL     1      72.386  35.867   0.268  1.00  0.00     0.224 C
HETATM   26  C22 UNL     1      72.029  37.234  -0.312  1.00  0.00     0.061 C
BRANCH  25  27
HETATM   27  N4  UNL     1      72.253  35.815   1.694  1.00  0.00     0.084 N
HETATM   28  C20 UNL     1      71.092  36.575   2.131  1.00  0.00     0.309 C
HETATM   29  C21 UNL     1      72.029  34.424   2.048  1.00  0.00     0.309 C
ENDBRANCH  25  27
ENDBRANCH  20  22
ENDBRANCH   6  20
TORSDOF 6
ENDMDL