MODEL 5
REMARK VINA RESULT: -7.259908501      1.087      1.997
REMARK  9 active torsions:
REMARK  status: ('A' for Active; 'I' for Inactive)
REMARK    1  A    between atoms: C2_2  and  C3_3
REMARK    2  A    between atoms: C3_3  and  C5_5
REMARK    3  A    between atoms: C5_5  and  O1_6
REMARK    4  A    between atoms: C5_5  and  N1_8
REMARK    5  A    between atoms: C8_11  and  C9_12
REMARK    6  A    between atoms: N4_17  and  C10_18
REMARK    7  A    between atoms: C10_18  and  C11_19
REMARK    8  A    between atoms: C11_19  and  C12_20
REMARK    9  A    between atoms: C17_25  and  C18_26
ROOT
HETATM    1  C9  UNL     1      69.009  40.139  -0.811  1.00  0.00     0.117 A
HETATM    2  N2  UNL     1      69.623  41.253  -1.172  1.00  0.00    -0.272 N
ATOM      3  H2  UNL     1      69.301  41.931  -1.864  1.00  0.00     0.190 HD
HETATM    4  N3  UNL     1      70.762  41.320  -0.446  1.00  0.00    -0.225 N
ATOM      5  H3  UNL     1      71.447  42.073  -0.507  1.00  0.00     0.210 HD
HETATM    6  N4  UNL     1      70.860  40.307   0.328  1.00  0.00    -0.218 N
HETATM    7  N5  UNL     1      69.778  39.544   0.130  1.00  0.00    -0.270 N
ATOM      8  H5  UNL     1      69.569  38.667   0.607  1.00  0.00     0.190 HD
ENDROOT
BRANCH   1   9
HETATM    9  C8  UNL     1      67.711  39.597  -1.341  1.00  0.00     0.059 C
HETATM   10  C7  UNL     1      67.798  38.139  -1.554  1.00  0.00     0.032 C
HETATM   11  C6  UNL     1      66.888  37.295  -0.785  1.00  0.00     0.125 C
HETATM   12  N1  UNL     1      65.542  37.861  -0.511  1.00  0.00    -0.362 N
HETATM   13  C21 UNL     1      65.317  39.238  -0.864  1.00  0.00     0.125 C
HETATM   14  C20 UNL     1      66.606  39.978  -0.418  1.00  0.00     0.032 C
BRANCH  12  15
HETATM   15  C5  UNL     1      64.668  37.040   0.173  1.00  0.00     0.143 C
BRANCH  15  16
HETATM   16  C3  UNL     1      64.759  36.353   1.393  1.00  0.00    -0.015 C
HETATM   17  C4  UNL     1      64.099  36.975   2.650  1.00  0.00     0.052 C
BRANCH  16  18
HETATM   18  C2  UNL     1      65.302  35.175   1.620  1.00  0.00    -0.020 C
HETATM   19  C1  UNL     1      66.672  35.087   2.228  1.00  0.00     0.036 C
ENDBRANCH  16  18
ENDBRANCH  15  16
BRANCH  15  20
HETATM   20  O1  UNL     1      63.522  36.869  -0.468  1.00  0.00    -0.346 OA
ATOM     21  H1  UNL     1      63.136  36.008  -0.358  1.00  0.00     0.219 HD
ENDBRANCH  15  20
ENDBRANCH  12  15
ENDBRANCH   1   9
BRANCH   6  22
HETATM   22  C10 UNL     1      71.930  39.922   1.263  1.00  0.00     0.171 C
BRANCH  22  23
HETATM   23  C11 UNL     1      71.802  38.420   1.452  1.00  0.00     0.028 C
BRANCH  23  24
HETATM   24  C12 UNL     1      72.785  37.601   0.695  1.00  0.00    -0.009 C
HETATM   25  C13 UNL     1      72.249  37.064  -0.583  1.00  0.00     0.005 C
HETATM   26  C14 UNL     1      73.119  36.062  -1.253  1.00  0.00     0.000 C
HETATM   27  C15 UNL     1      74.285  35.565  -0.493  1.00  0.00     0.000 C
HETATM   28  C16 UNL     1      74.283  35.702   0.978  1.00  0.00     0.005 C
HETATM   29  C17 UNL     1      73.097  36.394   1.588  1.00  0.00    -0.011 C
BRANCH  29  30
HETATM   30  C18 UNL     1      71.942  35.445   1.692  1.00  0.00     0.000 C
HETATM   31  C19 UNL     1      72.498  34.074   2.088  1.00  0.00     0.005 C
ENDBRANCH  29  30
ENDBRANCH  23  24
ENDBRANCH  22  23
ENDBRANCH   6  22
TORSDOF 9
ENDMDL