MODEL 4
REMARK VINA RESULT: -6.940134116      1.453      2.086
REMARK  6 active torsions:
REMARK  status: ('A' for Active; 'I' for Inactive)
REMARK    1  A    between atoms: C1_2  and  C2_3
REMARK       I    between atoms: C1_2  and  N2_12
REMARK    2  A    between atoms: C2_3  and  C3_4
REMARK    3  A    between atoms: C3_4  and  C4_5
REMARK    4  A    between atoms: C4_5  and  N1_6
REMARK    5  A    between atoms: C13_16  and  C14_17
REMARK    6  A    between atoms: C15_21  and  C16_22
ROOT
HETATM    1  O1  UNL     1      72.088  39.675   2.282  1.00  0.00    -0.273 OA
HETATM    2  C1  UNL     1      73.200  39.125   2.023  1.00  0.00     0.220 C
HETATM    3  N2  UNL     1      73.652  39.154   0.663  1.00  0.00    -0.340 N
HETATM    4  C10 UNL     1      74.894  38.567   0.241  1.00  0.00     0.127 C
HETATM    5  C11 UNL     1      74.657  38.224  -1.201  1.00  0.00     0.022 C
HETATM    6  C12 UNL     1      73.881  39.466  -1.657  1.00  0.00     0.035 C
HETATM    7  C13 UNL     1      72.979  39.745  -0.446  1.00  0.00     0.156 C
ENDROOT
BRANCH   7   8
HETATM    8  C14 UNL     1      71.660  39.063  -0.703  1.00  0.00     0.127 A
HETATM    9  N3  UNL     1      71.458  37.945  -1.410  1.00  0.00    -0.245 N
HETATM   10  O2  UNL     1      70.166  37.667  -1.400  1.00  0.00    -0.222 OA
ATOM     11  H3  UNL     1      72.180  37.398  -1.879  1.00  0.00     0.196 HD
HETATM   12  C15 UNL     1      69.521  38.566  -0.712  1.00  0.00     0.152 A
HETATM   13  N4  UNL     1      70.444  39.437  -0.275  1.00  0.00    -0.325 N
ATOM     14  H4  UNL     1      70.251  40.261   0.296  1.00  0.00     0.169 HD
BRANCH  12  15
HETATM   15  C16 UNL     1      68.055  38.567  -0.492  1.00  0.00     0.063 C
HETATM   16  C17 UNL     1      67.452  39.888  -0.983  1.00  0.00     0.013 C
HETATM   17  C18 UNL     1      66.031  39.923  -0.529  1.00  0.00     0.001 C
HETATM   18  C19 UNL     1      65.207  38.752  -0.949  1.00  0.00     0.000 C
HETATM   19  C20 UNL     1      65.910  37.429  -0.800  1.00  0.00     0.001 C
HETATM   20  C21 UNL     1      67.347  37.473  -1.254  1.00  0.00     0.013 C
ENDBRANCH  12  15
ENDBRANCH   7   8
BRANCH   2  21
HETATM   21  C2  UNL     1      73.974  38.488   3.098  1.00  0.00     0.104 C
BRANCH  21  22
HETATM   22  C3  UNL     1      73.195  37.286   3.608  1.00  0.00     0.028 C
BRANCH  22  23
HETATM   23  C4  UNL     1      73.969  36.037   3.322  1.00  0.00     0.117 C
BRANCH  23  24
HETATM   24  N1  UNL     1      73.897  35.698   1.950  1.00  0.00    -0.412 N
HETATM   25  C5  UNL     1      74.945  34.796   1.518  1.00  0.00     0.117 C
HETATM   26  C6  UNL     1      74.446  33.390   1.320  1.00  0.00     0.019 C
HETATM   27  C7  UNL     1      73.206  33.066   2.118  1.00  0.00     0.003 C
HETATM   28  C8  UNL     1      72.089  34.049   1.846  1.00  0.00     0.019 C
HETATM   29  C9  UNL     1      72.627  35.389   1.401  1.00  0.00     0.117 C
ENDBRANCH  23  24
ENDBRANCH  22  23
ENDBRANCH  21  22
ENDBRANCH   2  21
TORSDOF 6
ENDMDL