MODEL 5
REMARK VINA RESULT: -7.476009550      1.405      2.225
REMARK  7 active torsions:
REMARK  status: ('A' for Active; 'I' for Inactive)
REMARK    1  A    between atoms: C3_3  and  C4_5
REMARK    2  A    between atoms: C6_7  and  C7_8
REMARK    3  A    between atoms: C8_9  and  C9_10
REMARK    4  A    between atoms: C11_12  and  C12_13
REMARK    5  A    between atoms: C12_13  and  O2_15
REMARK    6  A    between atoms: O2_15  and  C14_16
REMARK    7  A    between atoms: C18_22  and  C19_23
ROOT
HETATM    1  C1  UNL     1      64.047  36.641   0.671  1.00  0.00     0.021 C
HETATM    2  C2  UNL     1      64.564  37.562   0.093  1.00  0.00    -0.035 C
HETATM    3  C3  UNL     1      65.222  38.674  -0.611  1.00  0.00     0.230 C
HETATM    4  O1  UNL     1      64.465  39.648  -0.796  1.00  0.00    -0.278 OA
ENDROOT
BRANCH   3   5
HETATM    5  C4  UNL     1      66.599  38.577  -1.014  1.00  0.00    -0.003 C
HETATM    6  C5  UNL     1      67.007  37.243  -1.621  1.00  0.00     0.053 C
HETATM    7  C6  UNL     1      67.540  39.485  -0.928  1.00  0.00     0.011 C
BRANCH   7   8
HETATM    8  C7  UNL     1      67.463  40.815  -0.412  1.00  0.00     0.001 C
HETATM    9  C8  UNL     1      68.173  41.872  -0.570  1.00  0.00     0.006 C
BRANCH   9  10
HETATM   10  C9  UNL     1      69.356  42.178  -1.334  1.00  0.00    -0.063 C
HETATM   11  C10 UNL     1      69.359  43.166  -2.416  1.00  0.00     0.048 C
HETATM   12  C11 UNL     1      70.494  41.519  -1.023  1.00  0.00     0.011 C
BRANCH  12  13
HETATM   13  C12 UNL     1      71.770  41.705  -1.689  1.00  0.00     0.144 C
HETATM   14  C13 UNL     1      72.626  42.589  -0.761  1.00  0.00     0.044 C
BRANCH  13  15
HETATM   15  O2  UNL     1      72.450  40.518  -1.961  1.00  0.00    -0.348 OA
BRANCH  15  16
HETATM   16  C14 UNL     1      73.178  40.033  -0.921  1.00  0.00     0.300 C
HETATM   17  O3  UNL     1      72.236  39.782   0.135  1.00  0.00    -0.286 OA
HETATM   18  C15 UNL     1      72.490  39.300   1.392  1.00  0.00     0.261 C
HETATM   19  O4  UNL     1      71.598  39.596   2.259  1.00  0.00    -0.265 OA
HETATM   20  C16 UNL     1      73.593  38.511   1.918  1.00  0.00     0.112 C
HETATM   21  C17 UNL     1      74.703  38.305   0.986  1.00  0.00     0.019 C
HETATM   22  C18 UNL     1      74.456  37.759  -0.368  1.00  0.00     0.022 C
HETATM   23  C22 UNL     1      73.849  38.772  -1.290  1.00  0.00    -0.030 C
HETATM   24  C23 UNL     1      73.917  38.515  -2.569  1.00  0.00     0.020 C
BRANCH  22  25
HETATM   25  C19 UNL     1      73.827  36.435  -0.492  1.00  0.00    -0.014 C
HETATM   26  C20 UNL     1      74.586  35.427   0.385  1.00  0.00     0.010 C
HETATM   27  C21 UNL     1      72.384  36.270  -0.249  1.00  0.00     0.010 C
ENDBRANCH  22  25
ENDBRANCH  15  16
ENDBRANCH  13  15
ENDBRANCH  12  13
ENDBRANCH   9  10
ENDBRANCH   7   8
ENDBRANCH   3   5
TORSDOF 7
ENDMDL