MODEL 4
REMARK VINA RESULT: -6.025254835      1.920      4.997
REMARK  6 active torsions:
REMARK  status: ('A' for Active; 'I' for Inactive)
REMARK    1  A    between atoms: C2_2  and  C3_3
REMARK    2  A    between atoms: C3_3  and  C4_4
REMARK    3  A    between atoms: C3_3  and  C6_6
REMARK    4  A    between atoms: C9_12  and  N3_13
REMARK    5  A    between atoms: N4_19  and  C15_20
REMARK    6  A    between atoms: C15_20  and  C16_21
ROOT
HETATM    1  C6  UNL     1      70.530  39.964  -0.518  1.00  0.00     0.112 A
HETATM    2  N1  UNL     1      70.997  41.126  -1.103  1.00  0.00    -0.330 N
ATOM      3  H1  UNL     1      70.457  41.693  -1.758  1.00  0.00     0.168 HD
HETATM    4  C7  UNL     1      72.211  41.410  -0.717  1.00  0.00     0.160 A
HETATM    5  C8  UNL     1      73.032  42.526  -1.105  1.00  0.00     0.121 C
HETATM    6  N2  UNL     1      73.681  43.426  -1.437  1.00  0.00    -0.190 NA
HETATM    7  C9  UNL     1      72.619  40.403   0.182  1.00  0.00     0.145 A
HETATM    8  N4  UNL     1      71.577  39.558   0.267  1.00  0.00    -0.314 N
ENDROOT
BRANCH   7   9
HETATM    9  N3  UNL     1      73.905  40.441   0.806  1.00  0.00    -0.364 N
HETATM   10  C10 UNL     1      74.172  40.863   2.149  1.00  0.00     0.125 C
HETATM   11  C11 UNL     1      75.660  40.995   2.257  1.00  0.00     0.026 C
HETATM   12  C12 UNL     1      76.141  39.887   1.309  1.00  0.00     0.001 C
HETATM   13  C13 UNL     1      77.551  40.130   0.855  1.00  0.00     0.011 C
HETATM   14  C14 UNL     1      75.125  40.010   0.194  1.00  0.00     0.128 C
ENDBRANCH   7   9
BRANCH   1  15
HETATM   15  C3  UNL     1      69.178  39.488  -0.750  1.00  0.00    -0.036 C
BRANCH  15  16
HETATM   16  C2  UNL     1      68.992  38.095  -1.273  1.00  0.00     0.033 C
HETATM   17  C1  UNL     1      67.494  37.709  -1.254  1.00  0.00     0.010 C
ENDBRANCH  15  16
BRANCH  15  18
HETATM   18  C4  UNL     1      68.156  40.405  -1.325  1.00  0.00     0.033 C
HETATM   19  C5  UNL     1      67.579  41.401  -0.367  1.00  0.00     0.010 C
ENDBRANCH  15  18
ENDBRANCH   1  15
BRANCH   8  20
HETATM   20  C15 UNL     1      71.535  38.383   1.063  1.00  0.00     0.174 C
BRANCH  20  21
HETATM   21  C16 UNL     1      72.315  37.182   0.703  1.00  0.00     0.176 C
HETATM   22  C17 UNL     1      72.386  36.798  -0.732  1.00  0.00     0.045 C
HETATM   23  C18 UNL     1      73.479  35.758  -0.778  1.00  0.00     0.033 C
HETATM   24  C19 UNL     1      74.254  35.971   0.483  1.00  0.00     0.273 C
HETATM   25  N5  UNL     1      73.638  37.061   1.196  1.00  0.00     0.099 N
HETATM   26  C20 UNL     1      73.594  36.705   2.593  1.00  0.00     0.273 C
HETATM   27  C21 UNL     1      72.265  36.010   2.814  1.00  0.00     0.033 C
HETATM   28  C22 UNL     1      71.665  35.950   1.457  1.00  0.00     0.045 C
ENDBRANCH  20  21
ENDBRANCH   8  20
TORSDOF 6
ENDMDL