MODEL 1
REMARK VINA RESULT: -6.893075337      0.000      0.000
REMARK  6 active torsions:
REMARK  status: ('A' for Active; 'I' for Inactive)
REMARK    1  A    between atoms: C2_2  and  N1_3
REMARK    2  A    between atoms: N1_3  and  C3_4
REMARK    3  A    between atoms: N1_3  and  C9_11
REMARK    4  A    between atoms: C3_4  and  C4_5
REMARK    5  A    between atoms: C11_13  and  N2_14
REMARK    6  A    between atoms: C17_22  and  N4_23
ROOT
HETATM    1  C9  UNL     1      71.114  39.942  -0.552  1.00  0.00     0.037 A
HETATM    2  C10 UNL     1      71.733  38.880   0.069  1.00  0.00     0.077 A
HETATM    3  C11 UNL     1      71.031  37.738   0.381  1.00  0.00     0.106 A
HETATM    4  N3  UNL     1      69.726  37.699   0.060  1.00  0.00    -0.329 N
ATOM      5  H3  UNL     1      69.205  36.854   0.293  1.00  0.00     0.169 HD
HETATM    6  C17 UNL     1      69.057  38.698  -0.547  1.00  0.00     0.106 A
HETATM    7  C22 UNL     1      69.786  39.839  -0.852  1.00  0.00     0.077 A
ENDROOT
BRANCH   1   8
HETATM    8  N1  UNL     1      71.924  41.089  -0.824  1.00  0.00    -0.381 N
BRANCH   8   9
HETATM    9  C2  UNL     1      73.127  41.231  -0.075  1.00  0.00     0.118 C
HETATM   10  C1  UNL     1      74.213  42.002  -0.782  1.00  0.00     0.026 C
ENDBRANCH   8   9
BRANCH   8  11
HETATM   11  C3  UNL     1      71.464  41.977  -1.830  1.00  0.00     0.129 C
BRANCH  11  12
HETATM   12  C4  UNL     1      70.739  43.207  -1.382  1.00  0.00     0.027 C
HETATM   13  C5  UNL     1      71.396  44.504  -1.712  1.00  0.00     0.010 C
HETATM   14  C6  UNL     1      70.282  45.512  -2.035  1.00  0.00     0.027 C
HETATM   15  C7  UNL     1      69.695  45.112  -3.360  1.00  0.00     0.167 C
HETATM   16  O1  UNL     1      69.584  43.726  -3.404  1.00  0.00    -0.391 OA
HETATM   17  C8  UNL     1      69.393  43.185  -2.134  1.00  0.00     0.173 C
ENDBRANCH  11  12
ENDBRANCH   8  11
ENDBRANCH   1   8
BRANCH   3  18
HETATM   18  N2  UNL     1      71.692  36.664   0.995  1.00  0.00    -0.367 N
HETATM   19  C12 UNL     1      72.695  35.875   0.336  1.00  0.00     0.124 C
HETATM   20  C13 UNL     1      74.005  36.157   1.054  1.00  0.00     0.020 C
HETATM   21  C14 UNL     1      73.824  35.710   2.485  1.00  0.00     0.003 C
HETATM   22  C15 UNL     1      72.703  36.464   3.130  1.00  0.00     0.020 C
HETATM   23  C16 UNL     1      71.395  36.285   2.377  1.00  0.00     0.124 C
ENDBRANCH   3  18
BRANCH   6  24
HETATM   24  N4  UNL     1      67.676  38.589  -0.849  1.00  0.00    -0.367 N
HETATM   25  C18 UNL     1      66.734  39.672  -0.893  1.00  0.00     0.124 C
HETATM   26  C19 UNL     1      65.415  39.059  -0.542  1.00  0.00     0.021 C
HETATM   27  C20 UNL     1      65.513  37.726  -1.285  1.00  0.00     0.021 C
HETATM   28  C21 UNL     1      66.991  37.368  -1.166  1.00  0.00     0.124 C
ENDBRANCH   6  24
TORSDOF 6
ENDMDL