MODEL 2
REMARK VINA RESULT: -7.534966596      2.394      7.452
REMARK  6 active torsions:
REMARK  status: ('A' for Active; 'I' for Inactive)
REMARK    1  A    between atoms: C2_2  and  C4_4
REMARK    2  A    between atoms: N1_7  and  C7_8
REMARK    3  A    between atoms: C7_8  and  C8_9
REMARK    4  A    between atoms: C8_9  and  C9_10
REMARK    5  A    between atoms: C9_10  and  C10_11
REMARK    6  A    between atoms: C11_12  and  C12_13
ROOT
HETATM    1  C12 UNL     1      73.021  37.753  -0.999  1.00  0.00     0.063 A
HETATM    2  N2  UNL     1      74.057  38.613  -0.785  1.00  0.00    -0.350 N
ATOM      3  H2  UNL     1      75.018  38.282  -0.873  1.00  0.00     0.166 HD
HETATM    4  C13 UNL     1      73.820  39.890  -0.459  1.00  0.00     0.182 A
HETATM    5  N3  UNL     1      72.551  40.303  -0.350  1.00  0.00    -0.336 N
ATOM      6  H3  UNL     1      72.378  41.278  -0.103  1.00  0.00     0.168 HD
HETATM    7  C14 UNL     1      71.497  39.502  -0.550  1.00  0.00     0.139 A
HETATM    8  C15 UNL     1      71.735  38.174  -0.886  1.00  0.00     0.105 A
HETATM    9  N4  UNL     1      70.559  37.543  -1.052  1.00  0.00    -0.341 N
ATOM     10  H4  UNL     1      70.433  36.562  -1.301  1.00  0.00     0.167 HD
HETATM   11  C16 UNL     1      69.577  38.439  -0.831  1.00  0.00     0.085 A
HETATM   12  N5  UNL     1      70.163  39.620  -0.528  1.00  0.00    -0.321 N
HETATM   13  C17 UNL     1      69.302  40.746  -0.266  1.00  0.00     0.132 C
HETATM   14  C18 UNL     1      68.118  40.838  -1.188  1.00  0.00     0.021 C
HETATM   15  C19 UNL     1      67.599  39.531  -1.677  1.00  0.00     0.009 C
HETATM   16  C20 UNL     1      68.086  38.348  -0.865  1.00  0.00     0.077 C
ENDROOT
BRANCH   1  17
HETATM   17  C11 UNL     1      73.282  36.354  -1.406  1.00  0.00     0.028 C
HETATM   18  C10 UNL     1      74.476  35.885  -1.117  1.00  0.00    -0.024 C
BRANCH  18  19
HETATM   19  C9  UNL     1      74.977  34.519  -1.421  1.00  0.00     0.029 C
BRANCH  19  20
HETATM   20  C8  UNL     1      75.889  34.135  -0.224  1.00  0.00     0.034 C
BRANCH  20  21
HETATM   21  C7  UNL     1      75.149  33.092   0.522  1.00  0.00     0.272 C
BRANCH  21  22
HETATM   22  N1  UNL     1      74.713  33.405   1.842  1.00  0.00     0.088 N
HETATM   23  C6  UNL     1      75.258  34.624   2.368  1.00  0.00     0.272 C
HETATM   24  C5  UNL     1      74.242  35.414   3.167  1.00  0.00     0.035 C
HETATM   25  C4  UNL     1      73.130  35.741   2.191  1.00  0.00    -0.008 C
HETATM   26  C22 UNL     1      72.449  34.425   1.877  1.00  0.00     0.035 C
HETATM   27  C21 UNL     1      73.319  33.232   2.089  1.00  0.00     0.272 C
BRANCH  25  28
HETATM   28  C2  UNL     1      72.203  36.728   2.813  1.00  0.00    -0.019 C
HETATM   29  C1  UNL     1      70.795  36.701   2.300  1.00  0.00     0.010 C
HETATM   30  C3  UNL     1      72.714  38.142   2.752  1.00  0.00     0.010 C
ENDBRANCH  25  28
ENDBRANCH  21  22
ENDBRANCH  20  21
ENDBRANCH  19  20
ENDBRANCH  18  19
ENDBRANCH   1  17
TORSDOF 6
ENDMDL