MODEL 1
REMARK VINA RESULT: -7.914975358      0.000      0.000
REMARK  9 active torsions:
REMARK  status: ('A' for Active; 'I' for Inactive)
REMARK       I    between atoms: C1_2  and  N1_3
REMARK    1  A    between atoms: C1_2  and  C10_18
REMARK    2  A    between atoms: N1_3  and  C2_5
REMARK    3  A    between atoms: C2_5  and  C3_6
REMARK       I    between atoms: C3_6  and  N2_8
REMARK    4  A    between atoms: N2_8  and  C4_10
REMARK    5  A    between atoms: C4_10  and  C5_11
REMARK    6  A    between atoms: C5_11  and  O3_12
REMARK    7  A    between atoms: C10_18  and  C11_19
REMARK    8  A    between atoms: C10_18  and  N4_30
REMARK    9  A    between atoms: C11_19  and  C12_20
ROOT
HETATM    1  C10 UNL     1     -26.374  -5.475  15.879  1.00  0.00     0.083 C
ENDROOT
BRANCH   1   2
HETATM    2  C1  UNL     1     -25.231  -6.068  16.581  1.00  0.00     0.265 C
HETATM    3  O1  UNL     1     -25.285  -6.245  17.813  1.00  0.00    -0.266 OA
HETATM    4  N1  UNL     1     -24.070  -6.448  15.880  1.00  0.00    -0.338 N
ATOM      5  H1  UNL     1     -24.085  -6.277  14.875  1.00  0.00     0.164 HD
BRANCH   4   6
HETATM    6  C2  UNL     1     -22.882  -7.037  16.388  1.00  0.00     0.114 C
HETATM    7  C6  UNL     1     -22.180  -6.170  17.404  1.00  0.00     0.041 C
HETATM    8  C7  UNL     1     -22.015  -7.029  18.617  1.00  0.00     0.003 C
HETATM    9  C8  UNL     1     -22.858  -8.247  18.482  1.00  0.00     0.003 C
HETATM   10  C9  UNL     1     -23.187  -8.359  17.033  1.00  0.00     0.041 C
BRANCH   6  11
HETATM   11  C3  UNL     1     -21.882  -7.232  15.271  1.00  0.00     0.246 C
HETATM   12  O2  UNL     1     -21.634  -8.385  14.885  1.00  0.00    -0.271 OA
HETATM   13  N2  UNL     1     -21.243  -6.131  14.682  1.00  0.00    -0.357 N
ATOM     14  H2  UNL     1     -21.470  -5.199  15.029  1.00  0.00     0.162 HD
BRANCH  13  15
HETATM   15  C4  UNL     1     -20.293  -6.243  13.625  1.00  0.00     0.148 C
BRANCH  15  16
HETATM   16  C5  UNL     1     -18.899  -6.321  14.158  1.00  0.00     0.183 C
BRANCH  16  17
HETATM   17  O3  UNL     1     -18.547  -5.110  14.792  1.00  0.00    -0.399 OA
ATOM     18  H3  UNL     1     -17.738  -4.769  14.427  1.00  0.00     0.209 HD
ENDBRANCH  16  17
ENDBRANCH  15  16
ENDBRANCH  13  15
ENDBRANCH   6  11
ENDBRANCH   4   6
ENDBRANCH   1   2
BRANCH   1  19
HETATM   19  C11 UNL     1     -26.840  -6.084  14.620  1.00  0.00     0.120 C
BRANCH  19  20
HETATM   20  C12 UNL     1     -28.214  -5.829  14.195  1.00  0.00     0.017 A
HETATM   21  C13 UNL     1     -28.566  -4.623  13.556  1.00  0.00     0.027 A
HETATM   22  C14 UNL     1     -29.906  -4.638  13.360  1.00  0.00     0.027 A
HETATM   23  C15 UNL     1     -30.350  -5.855  13.886  1.00  0.00     0.011 A
HETATM   24  N3  UNL     1     -29.313  -6.554  14.382  1.00  0.00    -0.353 N
HETATM   25  C20 UNL     1     -31.791  -6.208  13.865  1.00  0.00     0.057 C
HETATM   26  C16 UNL     1     -29.397  -7.816  15.033  1.00  0.00     0.129 C
HETATM   27  C17 UNL     1     -30.089  -8.867  14.212  1.00  0.00     0.020 C
HETATM   28  C18 UNL     1     -31.585  -8.646  14.201  1.00  0.00     0.002 C
HETATM   29  C19 UNL     1     -31.959  -7.547  13.222  1.00  0.00     0.006 C
ENDBRANCH  19  20
ENDBRANCH   1  19
BRANCH   1  30
HETATM   30  N4  UNL     1     -27.430  -5.129  16.777  1.00  0.00    -0.361 N
HETATM   31  C21 UNL     1     -28.059  -4.098  16.983  1.00  0.00    -0.009 C
HETATM   32  C22 UNL     1     -27.965  -2.759  16.359  1.00  0.00     0.057 C
HETATM   33  C26 UNL     1     -29.156  -3.992  18.002  1.00  0.00     0.032 C
HETATM   34  C23 UNL     1     -29.116  -1.977  16.970  1.00  0.00    -0.009 C
HETATM   35  C24 UNL     1     -30.396  -2.585  16.515  1.00  0.00     0.005 C
HETATM   36  C27 UNL     1     -29.019  -2.535  18.404  1.00  0.00     0.015 C
HETATM   37  C25 UNL     1     -30.464  -3.917  17.247  1.00  0.00     0.011 C
ATOM     38  H4  UNL     1     -27.720  -5.905  17.372  1.00  0.00     0.165 HD
ENDBRANCH   1  30
TORSDOF 9
ENDMDL