MODEL 3
REMARK VINA RESULT: -6.056239319      1.894      2.846
REMARK  10 active torsions:
REMARK  status: ('A' for Active; 'I' for Inactive)
REMARK    1  A    between atoms: C2_2  and  C4_4
REMARK    2  A    between atoms: C4_4  and  N1_5
REMARK    3  A    between atoms: C4_4  and  C10_14
REMARK       I    between atoms: N1_5  and  C5_7
REMARK    4  A    between atoms: C5_7  and  O2_9
REMARK    5  A    between atoms: O2_9  and  C6_10
REMARK       I    between atoms: C10_14  and  N2_16
REMARK    6  A    between atoms: N2_16  and  C11_18
REMARK    7  A    between atoms: C11_18  and  C12_19
REMARK    8  A    between atoms: C11_18  and  C23_34
REMARK       I    between atoms: C12_19  and  N3_21
REMARK    9  A    between atoms: N3_21  and  C13_23
REMARK   10  A    between atoms: C18_28  and  C19_29
ROOT
HETATM    1  C11 UNL     1     -28.370  -4.953  15.888  1.00  0.00     0.180 C
ENDROOT
BRANCH   1   2
HETATM    2  N2  UNL     1     -29.476  -5.262  14.998  1.00  0.00    -0.346 N
HETATM    3  C10 UNL     1     -30.341  -6.356  15.238  1.00  0.00     0.241 C
HETATM    4  O3  UNL     1     -30.106  -7.042  16.291  1.00  0.00    -0.271 OA
ATOM      5  H2  UNL     1     -29.633  -4.675  14.179  1.00  0.00     0.163 HD
BRANCH   3   6
HETATM    6  C4  UNL     1     -31.473  -6.791  14.420  1.00  0.00     0.182 C
BRANCH   6   7
HETATM    7  C2  UNL     1     -31.187  -6.809  12.925  1.00  0.00     0.009 C
HETATM    8  C1  UNL     1     -32.486  -6.603  12.138  1.00  0.00     0.012 C
HETATM    9  C3  UNL     1     -30.811  -8.260  12.523  1.00  0.00     0.012 C
ENDBRANCH   6   7
BRANCH   6  10
HETATM   10  N1  UNL     1     -31.962  -8.064  14.880  1.00  0.00    -0.323 N
HETATM   11  C5  UNL     1     -33.067  -8.481  15.588  1.00  0.00     0.362 C
HETATM   12  O1  UNL     1     -34.031  -7.809  16.048  1.00  0.00    -0.238 OA
ATOM     13  H1  UNL     1     -31.347  -8.837  14.622  1.00  0.00     0.165 HD
BRANCH  11  14
HETATM   14  O2  UNL     1     -33.226  -9.867  15.891  1.00  0.00    -0.294 OA
BRANCH  14  15
HETATM   15  C6  UNL     1     -33.815 -10.787  15.037  1.00  0.00     0.061 C
HETATM   16  C7  UNL     1     -34.287 -10.268  13.718  1.00  0.00     0.046 C
HETATM   17  C8  UNL     1     -34.974 -11.526  15.687  1.00  0.00     0.046 C
HETATM   18  C9  UNL     1     -32.741 -11.840  14.730  1.00  0.00     0.046 C
ENDBRANCH  14  15
ENDBRANCH  11  14
ENDBRANCH   6  10
ENDBRANCH   3   6
ENDBRANCH   1   2
BRANCH   1  19
HETATM   19  C12 UNL     1     -27.152  -5.609  15.379  1.00  0.00     0.241 C
HETATM   20  O4  UNL     1     -26.912  -5.599  14.139  1.00  0.00    -0.271 OA
HETATM   21  N3  UNL     1     -26.256  -6.249  16.273  1.00  0.00    -0.353 N
ATOM     22  H3  UNL     1     -26.449  -6.272  17.274  1.00  0.00     0.163 HD
BRANCH  21  23
HETATM   23  C13 UNL     1     -25.085  -6.856  15.748  1.00  0.00     0.100 C
HETATM   24  C14 UNL     1     -23.780  -6.297  16.164  1.00  0.00     0.018 C
HETATM   25  C15 UNL     1     -22.843  -7.387  15.569  1.00  0.00     0.018 C
HETATM   26  C20 UNL     1     -23.394  -6.922  17.474  1.00  0.00    -0.034 C
HETATM   27  C16 UNL     1     -23.453  -8.214  16.680  1.00  0.00    -0.025 C
HETATM   28  C17 UNL     1     -22.771  -9.395  17.158  1.00  0.00     0.017 C
HETATM   29  C18 UNL     1     -24.895  -8.304  16.259  1.00  0.00     0.079 C
HETATM   30  C21 UNL     1     -24.311  -6.829  18.632  1.00  0.00     0.016 C
HETATM   31  C22 UNL     1     -21.991  -6.507  17.865  1.00  0.00     0.016 C
BRANCH  29  32
HETATM   32  C19 UNL     1     -25.098  -9.275  15.146  1.00  0.00     0.238 C
HETATM   33  O5  UNL     1     -25.978  -9.035  14.344  1.00  0.00    -0.306 OA
ENDBRANCH  29  32
ENDBRANCH  21  23
ENDBRANCH   1  19
BRANCH   1  34
HETATM   34  C23 UNL     1     -28.068  -3.453  15.866  1.00  0.00     0.009 C
HETATM   35  C24 UNL     1     -29.137  -2.653  15.181  1.00  0.00     0.012 C
HETATM   36  C25 UNL     1     -27.818  -2.973  17.283  1.00  0.00     0.012 C
ENDBRANCH   1  34
TORSDOF 10
ENDMDL