MODEL 4
REMARK VINA RESULT: -6.513282359      2.088      3.167
REMARK  12 active torsions:
REMARK  status: ('A' for Active; 'I' for Inactive)
REMARK    1  A    between atoms: C2_2  and  C3_3
REMARK    2  A    between atoms: N1_6  and  C6_7
REMARK    3  A    between atoms: C6_7  and  O1_8
REMARK    4  A    between atoms: C7_10  and  N2_11
REMARK    5  A    between atoms: C7_10  and  C13_20
REMARK       I    between atoms: N2_11  and  C8_13
REMARK    6  A    between atoms: C8_13  and  O3_15
REMARK    7  A    between atoms: O3_15  and  C9_16
REMARK    8  A    between atoms: C17_24  and  C18_25
REMARK       I    between atoms: C18_25  and  N3_27
REMARK    9  A    between atoms: N3_27  and  C19_29
REMARK   10  A    between atoms: C19_29  and  C20_30
REMARK   11  A    between atoms: C19_29  and  C24_34
REMARK   12  A    between atoms: C20_30  and  C21_31
ROOT
HETATM    1  C3  UNL     1     -25.515 -10.764  13.727  1.00  0.00     0.019 C
HETATM    2  C4  UNL     1     -26.978 -10.903  14.049  1.00  0.00     0.027 C
HETATM    3  C5  UNL     1     -27.152  -9.901  15.211  1.00  0.00     0.126 C
HETATM    4  N1  UNL     1     -26.319  -8.841  14.855  1.00  0.00    -0.346 N
HETATM    5  C17 UNL     1     -25.253  -9.349  13.961  1.00  0.00     0.182 C
ENDROOT
BRANCH   4   6
HETATM    6  C6  UNL     1     -26.325  -7.477  15.234  1.00  0.00     0.163 C
HETATM    7  C7  UNL     1     -26.392  -6.731  16.453  1.00  0.00     0.072 C
BRANCH   6   8
HETATM    8  O1  UNL     1     -26.246  -6.641  14.178  1.00  0.00    -0.345 OA
ATOM      9  H1  UNL     1     -25.577  -5.975  14.286  1.00  0.00     0.219 HD
ENDBRANCH   6   8
BRANCH   7  10
HETATM   10  N2  UNL     1     -26.798  -5.325  16.195  1.00  0.00    -0.301 N
HETATM   11  C8  UNL     1     -27.987  -4.966  15.513  1.00  0.00     0.365 C
HETATM   12  O2  UNL     1     -28.820  -5.787  15.062  1.00  0.00    -0.238 OA
ATOM     13  H2  UNL     1     -26.188  -4.578  16.527  1.00  0.00     0.171 HD
BRANCH  11  14
HETATM   14  O3  UNL     1     -28.287  -3.602  15.313  1.00  0.00    -0.294 OA
BRANCH  14  15
HETATM   15  C9  UNL     1     -29.287  -2.958  16.039  1.00  0.00     0.061 C
HETATM   16  C10 UNL     1     -29.485  -3.604  17.407  1.00  0.00     0.046 C
HETATM   17  C11 UNL     1     -30.589  -2.797  15.308  1.00  0.00     0.046 C
HETATM   18  C12 UNL     1     -28.765  -1.538  16.328  1.00  0.00     0.046 C
ENDBRANCH  14  15
ENDBRANCH  11  14
ENDBRANCH   7  10
BRANCH   7  19
HETATM   19  C13 UNL     1     -26.972  -7.193  17.722  1.00  0.00    -0.004 C
HETATM   20  C14 UNL     1     -26.883  -5.952  18.704  1.00  0.00     0.021 C
HETATM   21  C15 UNL     1     -28.434  -7.522  17.711  1.00  0.00     0.021 C
HETATM   22  C16 UNL     1     -26.217  -8.253  18.473  1.00  0.00     0.021 C
ENDBRANCH   7  19
ENDBRANCH   4   6
BRANCH   5  23
HETATM   23  C18 UNL     1     -23.927  -9.068  14.559  1.00  0.00     0.241 C
HETATM   24  O4  UNL     1     -23.427  -9.883  15.349  1.00  0.00    -0.271 OA
HETATM   25  N3  UNL     1     -23.248  -7.884  14.233  1.00  0.00    -0.345 N
ATOM     26  H3  UNL     1     -23.687  -7.225  13.589  1.00  0.00     0.163 HD
BRANCH  25  27
HETATM   27  C19 UNL     1     -21.935  -7.567  14.783  1.00  0.00     0.186 C
BRANCH  27  28
HETATM   28  C20 UNL     1     -21.010  -7.033  13.750  1.00  0.00     0.041 C
BRANCH  28  29
HETATM   29  C21 UNL     1     -19.550  -7.376  13.984  1.00  0.00    -0.012 A
HETATM   30  C22 UNL     1     -18.586  -6.176  14.006  1.00  0.00     0.005 A
HETATM   31  C23 UNL     1     -18.575  -7.186  12.877  1.00  0.00     0.005 A
ENDBRANCH  28  29
ENDBRANCH  27  28
BRANCH  27  32
HETATM   32  C24 UNL     1     -22.063  -6.532  15.848  1.00  0.00     0.196 C
HETATM   33  O5  UNL     1     -21.225  -6.467  16.771  1.00  0.00    -0.646 OA
HETATM   34  O6  UNL     1     -23.110  -5.638  15.820  1.00  0.00    -0.646 OA
ENDBRANCH  27  32
ENDBRANCH  25  27
ENDBRANCH   5  23
BRANCH   1  35
HETATM   35  C2  UNL     1     -25.218 -11.230  12.309  1.00  0.00     0.002 C
HETATM   36  C1  UNL     1     -26.498 -11.594  11.584  1.00  0.00     0.005 C
ENDBRANCH   1  35
TORSDOF 12
ENDMDL