MODEL 3
REMARK VINA RESULT: -8.011754714      1.744      4.749
REMARK  10 active torsions:
REMARK  status: ('A' for Active; 'I' for Inactive)
REMARK    1  A    between atoms: C5_5  and  N1_6
REMARK    2  A    between atoms: N1_6  and  C6_7
REMARK    3  A    between atoms: C6_7  and  C7_8
REMARK    4  A    between atoms: C6_7  and  N3_16
REMARK    5  A    between atoms: C7_8  and  N2_9
REMARK    6  A    between atoms: N3_16  and  C14_18
REMARK    7  A    between atoms: C14_18  and  C16_20
REMARK    8  A    between atoms: C16_20  and  N4_21
REMARK       I    between atoms: C17_23  and  N5_24
REMARK       I    between atoms: C17_23  and  N7_28
REMARK    9  A    between atoms: N7_28  and  C19_30
REMARK   10  A    between atoms: C19_30  and  C20_31
ROOT
HETATM    1  N4  UNL     1     -22.731  -5.954  16.674  1.00  0.00    -0.224 N
ATOM      2  H4  UNL     1     -22.751  -4.934  16.663  1.00  0.00     0.177 HD
HETATM    3  C17 UNL     1     -22.106  -6.583  15.764  1.00  0.00     0.683 C
HETATM    4  N5  UNL     1     -22.077  -8.006  15.776  1.00  0.00    -0.126 N
ATOM      5  H5  UNL     1     -21.264  -8.514  16.125  1.00  0.00     0.197 HD
HETATM    6  C18 UNL     1     -23.201  -8.685  15.294  1.00  0.00     0.196 C
HETATM    7  N6  UNL     1     -24.139  -9.229  14.890  1.00  0.00    -0.171 NA
HETATM    8  N7  UNL     1     -21.416  -5.920  14.709  1.00  0.00    -0.223 N
ATOM      9  H7  UNL     1     -21.429  -4.900  14.674  1.00  0.00     0.177 HD
ENDROOT
BRANCH   1  10
HETATM   10  C16 UNL     1     -23.416  -6.676  17.726  1.00  0.00     0.163 C
BRANCH  10  11
HETATM   11  C14 UNL     1     -24.886  -6.321  17.598  1.00  0.00     0.098 C
HETATM   12  C15 UNL     1     -25.757  -7.516  17.902  1.00  0.00     0.034 C
BRANCH  11  13
HETATM   13  N3  UNL     1     -25.169  -5.828  16.289  1.00  0.00    -0.362 N
ATOM     14  H3  UNL     1     -24.423  -5.864  15.593  1.00  0.00     0.162 HD
BRANCH  13  15
HETATM   15  C6  UNL     1     -26.423  -5.293  15.892  1.00  0.00     0.163 C
BRANCH  15  16
HETATM   16  N1  UNL     1     -27.004  -4.421  16.449  1.00  0.00    -0.428 NA
BRANCH  16  17
HETATM   17  C5  UNL     1     -27.607  -3.416  17.091  1.00  0.00     0.165 C
HETATM   18  C4  UNL     1     -28.645  -2.619  16.294  1.00  0.00     0.040 C
HETATM   19  C3  UNL     1     -28.768  -1.237  16.897  1.00  0.00     0.007 C
HETATM   20  C2  UNL     1     -28.855  -1.267  18.392  1.00  0.00    -0.019 C
HETATM   21  C1  UNL     1     -27.620  -0.725  19.080  1.00  0.00     0.010 C
HETATM   22  C25 UNL     1     -29.211  -2.637  18.863  1.00  0.00     0.007 C
HETATM   23  C24 UNL     1     -28.264  -3.720  18.432  1.00  0.00     0.040 C
ENDBRANCH  16  17
ENDBRANCH  15  16
BRANCH  15  24
HETATM   24  C7  UNL     1     -27.027  -5.926  14.651  1.00  0.00     0.208 C
BRANCH  24  25
HETATM   25  N2  UNL     1     -28.449  -5.921  14.704  1.00  0.00    -0.405 N
HETATM   26  C8  UNL     1     -29.096  -5.246  13.629  1.00  0.00     0.117 C
HETATM   27  C9  UNL     1     -30.533  -4.961  13.908  1.00  0.00     0.019 C
HETATM   28  C10 UNL     1     -31.444  -6.053  13.374  1.00  0.00     0.002 C
HETATM   29  C11 UNL     1     -31.358  -7.237  14.319  1.00  0.00     0.002 C
HETATM   30  C12 UNL     1     -29.952  -7.819  14.230  1.00  0.00     0.019 C
HETATM   31  C13 UNL     1     -29.063  -7.099  15.195  1.00  0.00     0.117 C
ENDBRANCH  24  25
ENDBRANCH  15  24
ENDBRANCH  13  15
ENDBRANCH  11  13
ENDBRANCH  10  11
ENDBRANCH   1  10
BRANCH   8  32
HETATM   32  C19 UNL     1     -20.701  -6.646  13.690  1.00  0.00     0.170 C
BRANCH  32  33
HETATM   33  C20 UNL     1     -19.302  -6.896  14.172  1.00  0.00     0.139 C
HETATM   34  C21 UNL     1     -18.509  -7.754  13.210  1.00  0.00     0.035 C
HETATM   35  C22 UNL     1     -17.087  -7.430  13.682  1.00  0.00     0.029 C
HETATM   36  C23 UNL     1     -17.258  -5.965  14.005  1.00  0.00     0.168 C
HETATM   37  O1  UNL     1     -18.579  -5.740  14.267  1.00  0.00    -0.384 OA
ENDBRANCH  32  33
ENDBRANCH   8  32
TORSDOF 10
ENDMDL