MODEL 1
REMARK VINA RESULT: -9.228039844      0.000      0.000
REMARK  9 active torsions:
REMARK  status: ('A' for Active; 'I' for Inactive)
REMARK    1  A    between atoms: C2_2  and  C3_3
REMARK    2  A    between atoms: C3_3  and  C4_4
REMARK    3  A    between atoms: C3_3  and  N1_15
REMARK    4  A    between atoms: C5_5  and  S1_6
REMARK    5  A    between atoms: S1_6  and  C6_9
REMARK       I    between atoms: N1_15  and  C12_17
REMARK    6  A    between atoms: C12_17  and  C13_19
REMARK    7  A    between atoms: C13_19  and  N2_20
REMARK    8  A    between atoms: C13_19  and  C23_32
REMARK       I    between atoms: N2_20  and  C14_22
REMARK    9  A    between atoms: C14_22  and  C15_24
ROOT
HETATM    1  N1  UNL     1     -19.464  -6.916  13.375  1.00  0.00    -0.351 N
ATOM      2  H1  UNL     1     -19.488  -5.899  13.450  1.00  0.00     0.163 HD
HETATM    3  C12 UNL     1     -18.233  -7.574  13.524  1.00  0.00     0.251 C
HETATM    4  O3  UNL     1     -18.142  -8.819  13.442  1.00  0.00    -0.271 OA
ENDROOT
BRANCH   3   5
HETATM    5  C13 UNL     1     -17.003  -6.801  13.786  1.00  0.00     0.278 C
BRANCH   5   6
HETATM    6  N2  UNL     1     -16.225  -6.642  12.566  1.00  0.00    -0.339 N
HETATM    7  C14 UNL     1     -14.858  -7.001  12.504  1.00  0.00     0.223 C
HETATM    8  O4  UNL     1     -14.323  -7.469  13.541  1.00  0.00    -0.273 OA
ATOM      9  H2  UNL     1     -16.677  -6.262  11.734  1.00  0.00     0.163 HD
BRANCH   7  10
HETATM   10  C15 UNL     1     -14.029  -6.857  11.293  1.00  0.00     0.078 C
HETATM   11  C16 UNL     1     -13.343  -8.165  11.029  1.00  0.00     0.014 C
HETATM   12  C17 UNL     1     -11.930  -8.035  10.532  1.00  0.00     0.001 C
HETATM   13  C18 UNL     1     -11.912  -8.357   9.054  1.00  0.00     0.000 C
HETATM   14  C19 UNL     1     -11.893  -7.112   8.206  1.00  0.00     0.000 C
HETATM   15  C20 UNL     1     -12.936  -6.108   8.647  1.00  0.00     0.000 C
HETATM   16  C21 UNL     1     -14.298  -6.707   8.787  1.00  0.00     0.001 C
HETATM   17  C22 UNL     1     -14.865  -6.383  10.145  1.00  0.00     0.014 C
ENDBRANCH   7  10
ENDBRANCH   5   6
BRANCH   5  18
HETATM   18  C23 UNL     1     -17.425  -5.464  14.311  1.00  0.00     0.206 C
HETATM   19  O5  UNL     1     -16.903  -4.438  13.763  1.00  0.00    -0.646 OA
HETATM   20  O6  UNL     1     -18.333  -5.296  15.338  1.00  0.00    -0.646 OA
ENDBRANCH   5  18
ENDBRANCH   3   5
BRANCH   1  21
HETATM   21  C3  UNL     1     -20.721  -7.635  13.113  1.00  0.00     0.107 C
BRANCH  21  22
HETATM   22  C2  UNL     1     -21.135  -7.224  11.710  1.00  0.00     0.025 C
HETATM   23  C1  UNL     1     -22.207  -8.128  11.157  1.00  0.00     0.007 C
ENDBRANCH  21  22
BRANCH  21  24
HETATM   24  C4  UNL     1     -21.731  -7.349  14.134  1.00  0.00     0.010 C
HETATM   25  C5  UNL     1     -21.423  -6.945  15.359  1.00  0.00     0.112 C
BRANCH  25  26
HETATM   26  S1  UNL     1     -22.636  -6.605  16.574  1.00  0.00     0.196 S
HETATM   27  O1  UNL     1     -22.070  -5.765  17.693  1.00  0.00    -0.218 OA
HETATM   28  O2  UNL     1     -23.773  -5.808  15.980  1.00  0.00    -0.218 OA
BRANCH  26  29
HETATM   29  C6  UNL     1     -23.251  -8.075  17.290  1.00  0.00     0.063 A
HETATM   30  C7  UNL     1     -24.277  -7.975  18.201  1.00  0.00     0.024 A
HETATM   31  C8  UNL     1     -24.798  -9.108  18.797  1.00  0.00     0.002 A
HETATM   32  C9  UNL     1     -24.279 -10.356  18.468  1.00  0.00     0.000 A
HETATM   33  C10 UNL     1     -23.253 -10.465  17.560  1.00  0.00     0.002 A
HETATM   34  C11 UNL     1     -22.755  -9.316  16.983  1.00  0.00     0.024 A
ENDBRANCH  26  29
ENDBRANCH  25  26
ENDBRANCH  21  24
ENDBRANCH   1  21
TORSDOF 9
ENDMDL