MODEL 1
REMARK VINA RESULT: -8.227920054      0.000      0.000
REMARK  10 active torsions:
REMARK  status: ('A' for Active; 'I' for Inactive)
REMARK    1  A    between atoms: C2_2  and  C5_5
REMARK    2  A    between atoms: C5_5  and  N1_6
REMARK    3  A    between atoms: C5_5  and  C12_16
REMARK       I    between atoms: N1_6  and  C6_8
REMARK    4  A    between atoms: C6_8  and  O2_10
REMARK    5  A    between atoms: O2_10  and  C7_11
REMARK       I    between atoms: C12_16  and  N2_18
REMARK       I    between atoms: N2_18  and  C13_20
REMARK    6  A    between atoms: C13_20  and  C14_22
REMARK    7  A    between atoms: C14_22  and  C15_23
REMARK    8  A    between atoms: C14_22  and  N3_28
REMARK    9  A    between atoms: C15_23  and  C16_24
REMARK   10  A    between atoms: C16_24  and  C17_25
ROOT
HETATM    1  C12 UNL     1     -25.242  -7.454  14.981  1.00  0.00     0.247 C
HETATM    2  O3  UNL     1     -24.728  -7.201  16.145  1.00  0.00    -0.271 OA
HETATM    3  N2  UNL     1     -26.450  -6.795  14.697  1.00  0.00    -0.294 N
ATOM      4  H2  UNL     1     -26.905  -6.940  13.795  1.00  0.00     0.171 HD
HETATM    5  C13 UNL     1     -27.047  -5.928  15.654  1.00  0.00     0.258 C
HETATM    6  O4  UNL     1     -26.395  -5.658  16.713  1.00  0.00    -0.271 OA
ENDROOT
BRANCH   1   7
HETATM    7  C5  UNL     1     -24.489  -8.393  14.147  1.00  0.00     0.186 C
BRANCH   7   8
HETATM    8  C2  UNL     1     -25.024  -9.759  13.951  1.00  0.00    -0.022 C
HETATM    9  C1  UNL     1     -26.426  -9.981  14.386  1.00  0.00     0.017 C
HETATM   10  C3  UNL     1     -24.165 -10.645  14.918  1.00  0.00     0.017 C
HETATM   11  C4  UNL     1     -24.730 -10.240  12.573  1.00  0.00     0.017 C
ENDBRANCH   7   8
BRANCH   7  12
HETATM   12  N1  UNL     1     -23.074  -8.374  14.535  1.00  0.00    -0.323 N
HETATM   13  C6  UNL     1     -22.021  -7.872  13.732  1.00  0.00     0.361 C
HETATM   14  O1  UNL     1     -22.275  -7.416  12.606  1.00  0.00    -0.238 OA
ATOM     15  H1  UNL     1     -22.831  -8.751  15.450  1.00  0.00     0.165 HD
BRANCH  13  16
HETATM   16  O2  UNL     1     -20.720  -7.897  14.213  1.00  0.00    -0.299 OA
BRANCH  16  17
HETATM   17  C7  UNL     1     -19.647  -7.268  13.560  1.00  0.00     0.133 C
HETATM   18  C8  UNL     1     -18.519  -8.233  13.318  1.00  0.00     0.032 C
HETATM   19  C9  UNL     1     -17.301  -7.360  13.214  1.00  0.00     0.002 C
HETATM   20  C10 UNL     1     -17.681  -6.015  13.765  1.00  0.00     0.002 C
HETATM   21  C11 UNL     1     -19.018  -6.204  14.437  1.00  0.00     0.032 C
ENDBRANCH  16  17
ENDBRANCH  13  16
ENDBRANCH   7  12
ENDBRANCH   1   7
BRANCH   5  22
HETATM   22  C14 UNL     1     -28.389  -5.386  15.386  1.00  0.00     0.315 C
BRANCH  22  23
HETATM   23  C15 UNL     1     -28.703  -4.276  16.351  1.00  0.00     0.056 C
BRANCH  23  24
HETATM   24  C16 UNL     1     -28.144  -2.955  15.873  1.00  0.00     0.116 C
BRANCH  24  25
HETATM   25  C17 UNL     1     -29.171  -2.244  15.071  1.00  0.00     0.172 C
HETATM   26  O5  UNL     1     -30.131  -1.618  15.622  1.00  0.00    -0.648 OA
HETATM   27  O6  UNL     1     -29.090  -2.261  13.690  1.00  0.00    -0.648 OA
ENDBRANCH  24  25
ENDBRANCH  23  24
ENDBRANCH  22  23
BRANCH  22  28
HETATM   28  N3  UNL     1     -29.456  -6.331  15.340  1.00  0.00     0.103 N
HETATM   29  C18 UNL     1     -30.732  -5.622  15.046  1.00  0.00     0.284 C
HETATM   30  C19 UNL     1     -31.158  -6.740  14.152  1.00  0.00     0.013 C
HETATM   31  C20 UNL     1     -31.755  -6.316  12.825  1.00  0.00     0.013 C
HETATM   32  C23 UNL     1     -31.975  -7.848  14.689  1.00  0.00     0.013 C
HETATM   33  C24 UNL     1     -29.655  -6.961  14.032  1.00  0.00     0.284 C
HETATM   34  C21 UNL     1     -32.232  -7.654  12.281  1.00  0.00     0.001 C
HETATM   35  C22 UNL     1     -32.904  -8.226  13.525  1.00  0.00     0.001 C
ENDBRANCH  22  28
ENDBRANCH   5  22
TORSDOF 10
ENDMDL