MODEL 4
REMARK VINA RESULT: -5.434316594      2.274      5.434
REMARK  12 active torsions:
REMARK  status: ('A' for Active; 'I' for Inactive)
REMARK    1  A    between atoms: C2_2  and  C4_4
REMARK    2  A    between atoms: C4_4  and  C5_5
REMARK    3  A    between atoms: C7_10  and  C8_11
REMARK    4  A    between atoms: C8_11  and  C9_12
REMARK    5  A    between atoms: C12_16  and  O3_17
REMARK    6  A    between atoms: C13_19  and  C14_20
REMARK    7  A    between atoms: C14_20  and  C15_21
REMARK    8  A    between atoms: C18_24  and  C19_25
REMARK    9  A    between atoms: C19_25  and  C20_26
REMARK   10  A    between atoms: C23_29  and  O4_30
REMARK   11  A    between atoms: C24_34  and  N3_35
REMARK   12  A    between atoms: C25_38  and  O5_39
ROOT
HETATM    1  C5  UNL     1     -31.813  -7.559  14.007  1.00  0.00     0.145 C
HETATM    2  N1  UNL     1     -31.942  -6.095  14.207  1.00  0.00    -0.348 N
ATOM      3  H1  UNL     1     -32.345  -5.586  13.420  1.00  0.00     0.163 HD
HETATM    4  C6  UNL     1     -31.602  -5.316  15.294  1.00  0.00     0.247 C
HETATM    5  O1  UNL     1     -32.560  -4.639  15.832  1.00  0.00    -0.271 OA
HETATM    6  C7  UNL     1     -30.287  -5.122  15.959  1.00  0.00     0.216 C
HETATM    7  O2  UNL     1     -30.198  -5.720  17.195  1.00  0.00    -0.346 OA
HETATM    8  C12 UNL     1     -29.657  -6.853  17.676  1.00  0.00     0.262 C
HETATM    9  C13 UNL     1     -28.417  -7.538  17.372  1.00  0.00     0.053 C
HETATM   10  C18 UNL     1     -28.456  -8.296  16.084  1.00  0.00     0.069 C
HETATM   11  C23 UNL     1     -29.114  -9.624  16.189  1.00  0.00     0.121 C
HETATM   12  N2  UNL     1     -30.395 -10.017  15.814  1.00  0.00    -0.325 N
ATOM     13  H2  UNL     1     -30.410 -10.945  15.390  1.00  0.00     0.169 HD
HETATM   14  C24 UNL     1     -31.685  -9.431  15.883  1.00  0.00     0.132 C
HETATM   15  C25 UNL     1     -32.216  -8.283  15.216  1.00  0.00     0.109 C
ENDROOT
BRANCH   1  16
HETATM   16  C4  UNL     1     -32.676  -7.922  12.823  1.00  0.00     0.036 C
BRANCH  16  17
HETATM   17  C2  UNL     1     -32.304  -7.459  11.490  1.00  0.00    -0.020 C
HETATM   18  C1  UNL     1     -31.789  -8.507  10.528  1.00  0.00     0.009 C
HETATM   19  C3  UNL     1     -33.220  -6.519  10.782  1.00  0.00     0.009 C
ENDBRANCH  16  17
ENDBRANCH   1  16
BRANCH  15  20
HETATM   20  O5  UNL     1     -33.268  -7.740  15.760  1.00  0.00    -0.359 OA
ATOM     21  H5  UNL     1     -33.970  -8.372  15.853  1.00  0.00     0.217 HD
ENDBRANCH  15  20
BRANCH  14  22
HETATM   22  N3  UNL     1     -32.574 -10.041  16.699  1.00  0.00    -0.383 N
ATOM     23  H32 UNL     1     -32.138 -10.563  17.459  1.00  0.00     0.157 HD
ATOM     24  H31 UNL     1     -33.558  -9.908  16.470  1.00  0.00     0.157 HD
ENDBRANCH  14  22
BRANCH   6  25
HETATM   25  C8  UNL     1     -29.883  -3.643  16.021  1.00  0.00     0.045 C
BRANCH  25  26
HETATM   26  C9  UNL     1     -28.850  -3.196  15.079  1.00  0.00    -0.020 C
HETATM   27  C10 UNL     1     -29.288  -3.153  13.635  1.00  0.00     0.009 C
HETATM   28  C11 UNL     1     -28.618  -1.702  15.446  1.00  0.00     0.009 C
ENDBRANCH  25  26
ENDBRANCH   6  25
BRANCH  11  29
HETATM   29  O4  UNL     1     -28.255 -10.446  16.727  1.00  0.00    -0.349 OA
ATOM     30  H4  UNL     1     -28.387 -11.299  16.329  1.00  0.00     0.219 HD
ENDBRANCH  11  29
BRANCH   8  31
HETATM   31  O3  UNL     1     -30.380  -7.440  18.583  1.00  0.00    -0.371 OA
ATOM     32  H3  UNL     1     -29.886  -7.739  19.337  1.00  0.00     0.212 HD
ENDBRANCH   8  31
BRANCH  10  33
HETATM   33  C19 UNL     1     -27.000  -8.494  15.579  1.00  0.00     0.017 C
BRANCH  33  34
HETATM   34  C20 UNL     1     -26.256  -7.194  15.600  1.00  0.00    -0.022 C
HETATM   35  C21 UNL     1     -26.843  -6.188  14.637  1.00  0.00     0.009 C
HETATM   36  C22 UNL     1     -24.805  -7.478  15.194  1.00  0.00     0.009 C
ENDBRANCH  33  34
ENDBRANCH  10  33
BRANCH   9  37
HETATM   37  C14 UNL     1     -27.877  -8.357  18.524  1.00  0.00     0.014 C
BRANCH  37  38
HETATM   38  C15 UNL     1     -26.754  -7.629  19.238  1.00  0.00    -0.022 C
HETATM   39  C16 UNL     1     -25.438  -8.408  19.095  1.00  0.00     0.009 C
HETATM   40  C17 UNL     1     -27.024  -7.546  20.726  1.00  0.00     0.009 C
ENDBRANCH  37  38
ENDBRANCH   9  37
TORSDOF 12
ENDMDL