MODEL 2
REMARK VINA RESULT: -7.047605306      4.823      6.507
REMARK  10 active torsions:
REMARK  status: ('A' for Active; 'I' for Inactive)
REMARK    1  A    between atoms: C2_2  and  C4_4
REMARK    2  A    between atoms: C4_4  and  C5_5
REMARK    3  A    between atoms: C5_5  and  N1_6
REMARK    4  A    between atoms: C5_5  and  C12_17
REMARK    5  A    between atoms: N1_6  and  C6_8
REMARK    6  A    between atoms: C6_8  and  C7_12
REMARK       I    between atoms: C12_17  and  N3_19
REMARK    7  A    between atoms: C16_23  and  C17_24
REMARK    8  A    between atoms: C16_23  and  C22_29
REMARK    9  A    between atoms: C17_24  and  C18_25
REMARK       I    between atoms: C22_29  and  N4_31
REMARK   10  A    between atoms: N4_31  and  S1_33
ROOT
HETATM    1  C12 UNL     1     -26.292  -6.515  16.064  1.00  0.00     0.243 C
HETATM    2  O1  UNL     1     -26.234  -6.868  14.834  1.00  0.00    -0.271 OA
HETATM    3  N3  UNL     1     -27.476  -6.194  16.739  1.00  0.00    -0.332 N
HETATM    4  C13 UNL     1     -27.578  -5.736  18.101  1.00  0.00     0.127 C
HETATM    5  C14 UNL     1     -28.669  -6.678  18.619  1.00  0.00     0.023 C
HETATM    6  C15 UNL     1     -29.516  -6.994  17.412  1.00  0.00     0.043 C
HETATM    7  C16 UNL     1     -28.885  -6.240  16.314  1.00  0.00     0.117 C
ENDROOT
BRANCH   1   8
HETATM    8  C5  UNL     1     -24.967  -6.463  16.744  1.00  0.00     0.175 C
BRANCH   8   9
HETATM    9  C4  UNL     1     -24.766  -7.623  17.670  1.00  0.00     0.038 C
BRANCH   9  10
HETATM   10  C2  UNL     1     -24.864  -8.997  17.152  1.00  0.00    -0.020 C
HETATM   11  C1  UNL     1     -25.975  -9.855  17.635  1.00  0.00     0.009 C
HETATM   12  C3  UNL     1     -23.561  -9.705  17.577  1.00  0.00     0.009 C
ENDBRANCH   9  10
ENDBRANCH   8   9
BRANCH   8  13
HETATM   13  N1  UNL     1     -23.959  -6.627  15.701  1.00  0.00    -0.366 N
ATOM     14  H1  UNL     1     -24.306  -6.873  14.774  1.00  0.00     0.161 HD
BRANCH  13  15
HETATM   15  C6  UNL     1     -22.553  -6.484  15.826  1.00  0.00     0.075 C
HETATM   16  N2  UNL     1     -21.992  -5.553  16.481  1.00  0.00    -0.389 N
ATOM     17  H22 UNL     1     -22.576  -4.873  16.966  1.00  0.00     0.157 HD
ATOM     18  H21 UNL     1     -20.982  -5.451  16.571  1.00  0.00     0.157 HD
BRANCH  15  19
HETATM   19  C7  UNL     1     -21.701  -7.477  15.118  1.00  0.00     0.057 C
HETATM   20  C8  UNL     1     -22.378  -7.841  13.775  1.00  0.00     0.017 C
HETATM   21  C9  UNL     1     -21.292  -6.998  13.123  1.00  0.00    -0.009 A
HETATM   22  C10 UNL     1     -19.945  -7.617  13.218  1.00  0.00     0.011 A
HETATM   23  C11 UNL     1     -20.500  -6.955  14.435  1.00  0.00     0.001 A
ENDBRANCH  15  19
ENDBRANCH  13  15
ENDBRANCH   8  13
ENDBRANCH   1   8
BRANCH   7  24
HETATM   24  C17 UNL     1     -28.990  -6.845  14.963  1.00  0.00     0.049 C
BRANCH  24  25
HETATM   25  C18 UNL     1     -30.281  -6.908  14.266  1.00  0.00    -0.049 C
HETATM   26  C19 UNL     1     -31.491  -7.144  15.159  1.00  0.00     0.014 C
HETATM   27  C20 UNL     1     -30.598  -5.902  13.234  1.00  0.00     0.014 C
HETATM   28  C21 UNL     1     -30.188  -8.267  13.484  1.00  0.00     0.014 C
ENDBRANCH  24  25
ENDBRANCH   7  24
BRANCH   7  29
HETATM   29  C22 UNL     1     -29.346  -4.828  16.279  1.00  0.00     0.259 C
HETATM   30  O2  UNL     1     -30.359  -4.464  16.937  1.00  0.00    -0.270 OA
HETATM   31  N4  UNL     1     -28.702  -3.818  15.524  1.00  0.00    -0.253 N
ATOM     32  H4  UNL     1     -27.879  -4.072  14.977  1.00  0.00     0.181 HD
BRANCH  31  33
HETATM   33  S1  UNL     1     -29.238  -2.194  15.484  1.00  0.00     0.229 S
HETATM   34  C23 UNL     1     -29.058  -1.429  17.094  1.00  0.00     0.186 C
HETATM   35  O3  UNL     1     -30.729  -2.176  15.190  1.00  0.00    -0.206 OA
HETATM   36  O4  UNL     1     -28.496  -1.378  14.461  1.00  0.00    -0.206 OA
ENDBRANCH  31  33
ENDBRANCH   7  29
TORSDOF 10
ENDMDL