MODEL 2
REMARK VINA RESULT: -7.384685573      2.558      3.203
REMARK  13 active torsions:
REMARK  status: ('A' for Active; 'I' for Inactive)
REMARK    1  A    between atoms: C2_2  and  C3_3
REMARK    2  A    between atoms: C3_3  and  C4_4
REMARK       I    between atoms: C4_4  and  N1_6
REMARK    3  A    between atoms: N1_6  and  C5_8
REMARK    4  A    between atoms: C5_8  and  C6_9
REMARK    5  A    between atoms: C7_10  and  C8_11
REMARK    6  A    between atoms: C8_11  and  C9_12
REMARK    7  A    between atoms: C9_12  and  O2_13
REMARK       I    between atoms: N2_17  and  C12_18
REMARK    8  A    between atoms: C12_18  and  C13_20
REMARK    9  A    between atoms: C13_20  and  N3_21
REMARK       I    between atoms: N3_21  and  C14_23
REMARK   10  A    between atoms: C14_23  and  O5_25
REMARK   11  A    between atoms: O5_25  and  C15_26
REMARK   12  A    between atoms: C19_30  and  C20_31
REMARK   13  A    between atoms: C20_31  and  C21_32
ROOT
HETATM    1  C9  UNL     1     -23.246  -6.567  16.594  1.00  0.00     0.090 C
HETATM    2  C10 UNL     1     -23.505  -6.272  18.037  1.00  0.00     0.061 C
HETATM    3  C11 UNL     1     -24.965  -6.733  18.144  1.00  0.00     0.129 C
HETATM    4  N2  UNL     1     -25.512  -6.186  16.877  1.00  0.00    -0.343 N
HETATM    5  C12 UNL     1     -26.742  -5.481  16.780  1.00  0.00     0.238 C
HETATM    6  O3  UNL     1     -27.416  -5.336  17.851  1.00  0.00    -0.272 OA
HETATM    7  C19 UNL     1     -24.513  -6.524  15.892  1.00  0.00     0.122 C
ENDROOT
BRANCH   1   8
HETATM    8  C8  UNL     1     -22.277  -7.683  16.404  1.00  0.00     0.134 C
BRANCH   8   9
HETATM    9  C7  UNL     1     -21.582  -7.625  15.138  1.00  0.00    -0.102 C
HETATM   10  C6  UNL     1     -20.956  -7.579  14.084  1.00  0.00    -0.087 C
BRANCH  10  11
HETATM   11  C5  UNL     1     -20.215  -7.538  12.825  1.00  0.00     0.217 C
BRANCH  11  12
HETATM   12  N1  UNL     1     -18.916  -6.919  13.008  1.00  0.00    -0.351 N
HETATM   13  C4  UNL     1     -17.792  -7.759  13.211  1.00  0.00     0.218 C
HETATM   14  O1  UNL     1     -17.898  -9.012  13.235  1.00  0.00    -0.274 OA
ATOM     15  H1  UNL     1     -18.813  -5.904  12.992  1.00  0.00     0.163 HD
BRANCH  13  16
HETATM   16  C3  UNL     1     -16.463  -7.108  13.397  1.00  0.00     0.102 C
BRANCH  16  17
HETATM   17  C2  UNL     1     -15.460  -7.766  12.472  1.00  0.00     0.005 C
HETATM   18  C1  UNL     1     -15.260  -6.975  11.211  1.00  0.00     0.005 C
ENDBRANCH  16  17
ENDBRANCH  13  16
ENDBRANCH  11  12
ENDBRANCH  10  11
ENDBRANCH   8   9
ENDBRANCH   1   8
BRANCH   1  19
HETATM   19  O2  UNL     1     -22.518  -5.403  16.104  1.00  0.00    -0.387 OA
ATOM     20  H2  UNL     1     -21.699  -5.439  16.584  1.00  0.00     0.210 HD
ENDBRANCH   1  19
BRANCH   7  21
HETATM   21  C20 UNL     1     -25.020  -7.644  15.081  1.00  0.00     0.033 C
BRANCH  21  22
HETATM   22  C21 UNL     1     -25.707  -8.781  15.700  1.00  0.00    -0.013 C
HETATM   23  C22 UNL     1     -24.791  -9.924  16.088  1.00  0.00     0.005 C
HETATM   24  C23 UNL     1     -24.379 -10.583  14.803  1.00  0.00     0.000 C
HETATM   25  C24 UNL     1     -25.580 -10.427  13.918  1.00  0.00     0.000 C
HETATM   26  C25 UNL     1     -26.512  -9.451  14.550  1.00  0.00     0.005 C
ENDBRANCH  21  22
ENDBRANCH   7  21
BRANCH   5  27
HETATM   27  C13 UNL     1     -27.314  -4.897  15.562  1.00  0.00     0.227 C
BRANCH  27  28
HETATM   28  N3  UNL     1     -28.243  -5.846  14.927  1.00  0.00    -0.328 N
HETATM   29  C14 UNL     1     -28.989  -5.463  13.782  1.00  0.00     0.361 C
HETATM   30  O4  UNL     1     -28.843  -4.294  13.318  1.00  0.00    -0.238 OA
ATOM     31  H3  UNL     1     -28.351  -6.785  15.311  1.00  0.00     0.165 HD
BRANCH  29  32
HETATM   32  O5  UNL     1     -29.870  -6.291  13.140  1.00  0.00    -0.294 OA
BRANCH  32  33
HETATM   33  C15 UNL     1     -31.153  -6.564  13.675  1.00  0.00     0.061 C
HETATM   34  C16 UNL     1     -32.162  -6.608  12.553  1.00  0.00     0.046 C
HETATM   35  C17 UNL     1     -31.048  -7.917  14.374  1.00  0.00     0.046 C
HETATM   36  C18 UNL     1     -31.555  -5.557  14.731  1.00  0.00     0.046 C
ENDBRANCH  32  33
ENDBRANCH  29  32
ENDBRANCH  27  28
ENDBRANCH   5  27
TORSDOF 13
ENDMDL