MODEL 1
REMARK VINA RESULT: -9.349805921      0.000      0.000
REMARK  10 active torsions:
REMARK  status: ('A' for Active; 'I' for Inactive)
REMARK    1  A    between atoms: C2_2  and  C4_4
REMARK       I    between atoms: C4_4  and  N1_6
REMARK    2  A    between atoms: N1_6  and  C5_8
REMARK    3  A    between atoms: C8_11  and  C9_12
REMARK    4  A    between atoms: C9_12  and  C10_13
REMARK    5  A    between atoms: N2_16  and  C13_17
REMARK    6  A    between atoms: C13_17  and  C14_18
REMARK    7  A    between atoms: C14_18  and  N3_19
REMARK    8  A    between atoms: N3_19  and  S1_21
REMARK    9  A    between atoms: S1_21  and  C15_24
REMARK   10  A    between atoms: N4_30  and  O4_32
ROOT
HETATM    1  C10 UNL     1     -21.032  -7.585  14.108  1.00  0.00     0.005 C
HETATM    2  C11 UNL     1     -21.726  -7.442  12.792  1.00  0.00     0.026 C
HETATM    3  C12 UNL     1     -22.889  -8.439  12.991  1.00  0.00     0.124 C
HETATM    4  N2  UNL     1     -23.192  -8.325  14.420  1.00  0.00    -0.368 N
HETATM    5  C21 UNL     1     -22.246  -7.426  15.051  1.00  0.00     0.128 C
ENDROOT
BRANCH   4   6
HETATM    6  C13 UNL     1     -24.226  -8.965  15.112  1.00  0.00     0.118 C
HETATM    7  N4  UNL     1     -23.938  -9.778  16.065  1.00  0.00    -0.255 N
ATOM      8  H4  UNL     1     -24.708 -10.234  16.555  1.00  0.00     0.195 HD
BRANCH   6   9
HETATM    9  C14 UNL     1     -25.662  -8.742  14.788  1.00  0.00     0.210 C
BRANCH   9  10
HETATM   10  N3  UNL     1     -25.873  -7.423  14.296  1.00  0.00    -0.312 N
ATOM     11  H3  UNL     1     -25.669  -7.179  13.327  1.00  0.00     0.172 HD
BRANCH  10  12
HETATM   12  S1  UNL     1     -26.473  -6.280  15.383  1.00  0.00     0.231 S
HETATM   13  O2  UNL     1     -25.314  -5.517  15.980  1.00  0.00    -0.206 OA
HETATM   14  O3  UNL     1     -27.113  -7.028  16.551  1.00  0.00    -0.206 OA
BRANCH  12  15
HETATM   15  C15 UNL     1     -27.668  -5.166  14.781  1.00  0.00     0.129 C
HETATM   16  C16 UNL     1     -28.982  -5.749  14.377  1.00  0.00     0.022 C
HETATM   17  C17 UNL     1     -29.571  -4.795  13.332  1.00  0.00     0.001 C
HETATM   18  C18 UNL     1     -29.197  -3.364  13.688  1.00  0.00     0.000 C
HETATM   19  C19 UNL     1     -29.065  -3.199  15.186  1.00  0.00     0.001 C
HETATM   20  C20 UNL     1     -27.936  -4.020  15.731  1.00  0.00     0.022 C
ENDBRANCH  12  15
ENDBRANCH  10  12
ENDBRANCH   9  10
ENDBRANCH   6   9
BRANCH   7  21
HETATM   21  O4  UNL     1     -22.666 -10.069  16.459  1.00  0.00    -0.288 OA
ATOM     22  H4  UNL     1     -22.445 -10.764  17.067  1.00  0.00     0.244 HD
ENDBRANCH   7  21
ENDBRANCH   4   6
BRANCH   1  23
HETATM   23  C9  UNL     1     -20.034  -6.581  14.503  1.00  0.00     0.011 C
BRANCH  23  24
HETATM   24  C8  UNL     1     -18.814  -6.391  13.666  1.00  0.00    -0.014 C
HETATM   25  C7  UNL     1     -18.154  -7.799  13.609  1.00  0.00     0.006 C
HETATM   26  C6  UNL     1     -17.181  -7.678  12.456  1.00  0.00     0.025 C
HETATM   27  C5  UNL     1     -16.151  -6.665  12.811  1.00  0.00     0.084 C
HETATM   28  C23 UNL     1     -16.394  -5.876  14.047  1.00  0.00     0.025 C
HETATM   29  C22 UNL     1     -17.833  -5.468  14.287  1.00  0.00     0.006 C
BRANCH  27  30
HETATM   30  N1  UNL     1     -14.808  -7.279  12.901  1.00  0.00    -0.353 N
HETATM   31  C4  UNL     1     -14.051  -7.562  11.752  1.00  0.00     0.246 C
HETATM   32  O1  UNL     1     -14.535  -7.283  10.618  1.00  0.00    -0.268 OA
ATOM     33  H1  UNL     1     -14.423  -7.501  13.819  1.00  0.00     0.163 HD
BRANCH  31  34
HETATM   34  C2  UNL     1     -12.744  -8.158  11.818  1.00  0.00    -0.004 C
HETATM   35  C1  UNL     1     -12.198  -8.517  12.950  1.00  0.00     0.024 C
HETATM   36  C3  UNL     1     -11.928  -8.404  10.579  1.00  0.00     0.053 C
ENDBRANCH  31  34
ENDBRANCH  27  30
ENDBRANCH  23  24
ENDBRANCH   1  23
TORSDOF 10
ENDMDL