MODEL 5
REMARK VINA RESULT: -7.864522713      4.973      9.034
REMARK  13 active torsions:
REMARK  status: ('A' for Active; 'I' for Inactive)
REMARK       I    between atoms: C1_4  and  N2_5
REMARK       I    between atoms: C1_4  and  N6_28
REMARK    1  A    between atoms: N2_5  and  C2_7
REMARK    2  A    between atoms: C2_7  and  C3_8
REMARK    3  A    between atoms: C2_7  and  N3_15
REMARK    4  A    between atoms: C3_8  and  C4_9
REMARK    5  A    between atoms: C4_9  and  P1_10
REMARK    6  A    between atoms: P1_10  and  O1_11
REMARK    7  A    between atoms: P1_10  and  O2_13
REMARK       I    between atoms: N3_15  and  C5_17
REMARK    8  A    between atoms: C5_17  and  C6_19
REMARK    9  A    between atoms: C13_36  and  C14_37
REMARK   10  A    between atoms: C14_37  and  C15_38
REMARK   11  A    between atoms: C15_38  and  C16_39
REMARK   12  A    between atoms: C17_40  and  C18_41
REMARK   13  A    between atoms: C19_42  and  O5_43
ROOT
HETATM    1  N1  UNL     1      59.682  76.492 -91.541  1.00  0.00    -0.234 N
ATOM      2  H11 UNL     1      59.640  77.494 -91.725  1.00  0.00     0.174 HD
ATOM      3  H12 UNL     1      60.597  76.139 -91.265  1.00  0.00     0.174 HD
HETATM    4  C1  UNL     1      58.726  75.793 -91.664  1.00  0.00     0.681 C
HETATM    5  N2  UNL     1      58.784  74.409 -91.411  1.00  0.00    -0.205 N
ATOM      6  H2  UNL     1      57.890  73.923 -91.465  1.00  0.00     0.179 HD
HETATM    7  N6  UNL     1      57.393  76.306 -92.066  1.00  0.00    -0.142 N
HETATM    8  C10 UNL     1      56.841  75.708 -93.230  1.00  0.00     0.223 A
HETATM    9  N7  UNL     1      55.578  75.989 -93.506  1.00  0.00    -0.295 N
ATOM     10  H7  UNL     1      55.133  75.583 -94.329  1.00  0.00     0.187 HD
HETATM   11  N8  UNL     1      54.867  76.829 -92.685  1.00  0.00    -0.309 N
ATOM     12  H8  UNL     1      53.899  76.993 -92.963  1.00  0.00     0.186 HD
HETATM   13  C11 UNL     1      55.239  77.436 -91.623  1.00  0.00     0.137 A
HETATM   14  C12 UNL     1      56.676  77.169 -91.238  1.00  0.00     0.075 A
HETATM   15  C13 UNL     1      57.207  77.870 -90.306  1.00  0.00     0.040 C
ENDROOT
BRANCH   5  16
HETATM   16  C2  UNL     1      59.891  73.589 -91.093  1.00  0.00     0.202 C
BRANCH  16  17
HETATM   17  C3  UNL     1      60.698  73.042 -92.243  1.00  0.00     0.056 C
BRANCH  17  18
HETATM   18  C4  UNL     1      60.460  71.580 -92.496  1.00  0.00     0.097 C
BRANCH  18  19
HETATM   19  P1  UNL     1      58.847  71.209 -93.278  1.00  0.00     0.163 P
BRANCH  19  20
HETATM   20  O1  UNL     1      58.149  72.510 -94.133  1.00  0.00    -0.350 OA
ATOM     21  H1  UNL     1      58.206  72.443 -95.079  1.00  0.00     0.217 HD
ENDBRANCH  19  20
BRANCH  19  22
HETATM   22  O2  UNL     1      59.002  69.841 -94.346  1.00  0.00    -0.350 OA
ATOM     23  H2  UNL     1      59.844  69.863 -94.785  1.00  0.00     0.217 HD
ENDBRANCH  19  22
ENDBRANCH  18  19
ENDBRANCH  17  18
ENDBRANCH  16  17
BRANCH  16  24
HETATM   24  N3  UNL     1      59.555  72.467 -90.189  1.00  0.00    -0.335 N
HETATM   25  C5  UNL     1      59.211  72.747 -88.835  1.00  0.00     0.256 C
HETATM   26  O3  UNL     1      59.190  73.929 -88.389  1.00  0.00    -0.268 OA
ATOM     27  H3  UNL     1      59.568  71.506 -90.531  1.00  0.00     0.164 HD
BRANCH  25  28
HETATM   28  C6  UNL     1      58.873  71.665 -87.932  1.00  0.00     0.063 A
HETATM   29  C7  UNL     1      59.149  71.725 -86.589  1.00  0.00     0.111 A
HETATM   30  N4  UNL     1      58.755  70.701 -85.805  1.00  0.00    -0.318 N
HETATM   31  C8  UNL     1      58.098  69.630 -86.288  1.00  0.00     0.324 A
ATOM     32  H4  UNL     1      58.963  70.739 -84.806  1.00  0.00     0.170 HD
HETATM   33  O4  UNL     1      57.730  68.699 -85.554  1.00  0.00    -0.247 OA
HETATM   34  N5  UNL     1      57.826  69.564 -87.598  1.00  0.00    -0.318 N
HETATM   35  C9  UNL     1      58.196  70.552 -88.442  1.00  0.00     0.111 A
ATOM     36  H5  UNL     1      57.331  68.752 -87.965  1.00  0.00     0.170 HD
ENDBRANCH  25  28
ENDBRANCH  16  24
ENDBRANCH   5  16
BRANCH  15  37
HETATM   37  C14 UNL     1      56.390  78.765 -89.436  1.00  0.00     0.058 C
BRANCH  37  38
HETATM   38  C15 UNL     1      56.806  79.859 -89.106  1.00  0.00    -0.128 C
BRANCH  38  39
HETATM   39  C16 UNL     1      57.287  81.128 -88.729  1.00  0.00     0.055 C
HETATM   40  C17 UNL     1      58.511  81.461 -88.425  1.00  0.00     0.010 C
BRANCH  40  41
HETATM   41  C18 UNL     1      59.696  80.638 -88.393  1.00  0.00     0.024 C
HETATM   42  C19 UNL     1      60.882  81.334 -88.237  1.00  0.00     0.131 C
BRANCH  42  43
HETATM   43  O5  UNL     1      60.770  82.690 -88.139  1.00  0.00    -0.373 OA
ATOM     44  H5  UNL     1      61.504  83.192 -88.471  1.00  0.00     0.216 HD
ENDBRANCH  42  43
ENDBRANCH  40  41
ENDBRANCH  38  39
ENDBRANCH  37  38
ENDBRANCH  15  37
TORSDOF 13
ENDMDL