MODEL 4
REMARK VINA RESULT: -6.770385929      3.643      6.525
REMARK  19 active torsions:
REMARK  status: ('A' for Active; 'I' for Inactive)
REMARK    1  A    between atoms: C2_2  and  C3_3
REMARK    2  A    between atoms: C2_2  and  C5_10
REMARK    3  A    between atoms: C3_3  and  C4_4
REMARK    4  A    between atoms: C4_4  and  P1_5
REMARK    5  A    between atoms: P1_5  and  O1_6
REMARK    6  A    between atoms: P1_5  and  O2_8
REMARK       I    between atoms: C5_10  and  N1_12
REMARK    7  A    between atoms: N1_12  and  C6_14
REMARK    8  A    between atoms: C6_14  and  C7_15
REMARK    9  A    between atoms: C6_14  and  N8_35
REMARK   10  A    between atoms: C7_15  and  C8_16
REMARK   11  A    between atoms: C8_16  and  N2_17
REMARK   12  A    between atoms: N2_17  and  C9_19
REMARK   13  A    between atoms: C9_19  and  N7_31
REMARK   14  A    between atoms: N7_31  and  C14_33
REMARK   15  A    between atoms: N8_35  and  C15_36
REMARK   16  A    between atoms: N8_35  and  C17_38
REMARK   17  A    between atoms: C17_38  and  C18_39
REMARK   18  A    between atoms: C18_39  and  C19_40
REMARK   19  A    between atoms: C19_40  and  O5_41
ROOT
HETATM    1  C6  UNL     1      60.701  76.910 -89.953  1.00  0.00     0.325 C
ENDROOT
BRANCH   1   2
HETATM    2  N1  UNL     1      59.682  75.887 -89.504  1.00  0.00    -0.326 N
HETATM    3  C5  UNL     1      59.776  74.956 -88.517  1.00  0.00     0.260 C
HETATM    4  O3  UNL     1      60.768  74.837 -87.767  1.00  0.00    -0.267 OA
ATOM      5  H1  UNL     1      58.799  75.897 -90.014  1.00  0.00     0.165 HD
BRANCH   3   6
HETATM    6  C2  UNL     1      58.688  73.996 -88.251  1.00  0.00     0.068 C
HETATM    7  C1  UNL     1      57.400  74.501 -88.157  1.00  0.00     0.038 C
BRANCH   6   8
HETATM    8  C3  UNL     1      58.766  72.645 -88.078  1.00  0.00    -0.107 C
BRANCH   8   9
HETATM    9  C4  UNL     1      58.812  71.373 -87.935  1.00  0.00     0.121 C
BRANCH   9  10
HETATM   10  P1  UNL     1      58.510  70.652 -86.233  1.00  0.00     0.197 P
BRANCH  10  11
HETATM   11  O1  UNL     1      59.489  71.491 -85.070  1.00  0.00    -0.346 OA
ATOM     12  H1  UNL     1      59.110  71.388 -84.206  1.00  0.00     0.217 HD
ENDBRANCH  10  11
BRANCH  10  13
HETATM   13  O2  UNL     1      58.910  68.986 -86.189  1.00  0.00    -0.346 OA
ATOM     14  H2  UNL     1      59.290  68.747 -85.351  1.00  0.00     0.217 HD
ENDBRANCH  10  13
ENDBRANCH   9  10
ENDBRANCH   8   9
ENDBRANCH   6   8
ENDBRANCH   3   6
ENDBRANCH   1   2
BRANCH   1  15
HETATM   15  C7  UNL     1      60.800  76.829 -91.402  1.00  0.00     0.077 C
BRANCH  15  16
HETATM   16  C8  UNL     1      59.998  75.826 -92.184  1.00  0.00     0.125 C
BRANCH  16  17
HETATM   17  N2  UNL     1      60.816  74.914 -92.919  1.00  0.00    -0.373 N
ATOM     18  H2  UNL     1      60.719  74.919 -93.935  1.00  0.00     0.161 HD
BRANCH  17  19
HETATM   19  C9  UNL     1      61.773  73.981 -92.353  1.00  0.00     0.151 C
HETATM   20  C10 UNL     1      63.067  74.287 -92.561  1.00  0.00     0.167 A
HETATM   21  N3  UNL     1      64.097  73.478 -92.071  1.00  0.00    -0.268 N
HETATM   22  N6  UNL     1      63.471  75.477 -93.239  1.00  0.00    -0.327 N
HETATM   23  N4  UNL     1      65.339  73.798 -92.225  1.00  0.00    -0.240 N
ATOM     24  H3  UNL     1      63.863  72.616 -91.580  1.00  0.00     0.190 HD
HETATM   25  N5  UNL     1      65.709  74.957 -92.882  1.00  0.00    -0.275 N
ATOM     26  H4  UNL     1      66.063  73.183 -91.854  1.00  0.00     0.208 HD
HETATM   27  C11 UNL     1      64.874  75.793 -93.386  1.00  0.00     0.094 A
ATOM     28  H5  UNL     1      66.704  75.160 -92.972  1.00  0.00     0.189 HD
HETATM   29  C12 UNL     1      65.356  77.004 -94.064  1.00  0.00     0.090 C
ATOM     30  H6  UNL     1      62.767  76.108 -93.621  1.00  0.00     0.169 HD
BRANCH  19  31
HETATM   31  N7  UNL     1      61.410  72.814 -91.706  1.00  0.00    -0.313 N
HETATM   32  C13 UNL     1      61.830  72.629 -90.289  1.00  0.00     0.160 C
BRANCH  31  33
HETATM   33  C14 UNL     1      60.725  71.709 -92.228  1.00  0.00     0.356 C
HETATM   34  O4  UNL     1      59.719  71.872 -93.034  1.00  0.00    -0.283 OA
ENDBRANCH  31  33
ENDBRANCH  19  31
ENDBRANCH  17  19
ENDBRANCH  16  17
ENDBRANCH  15  16
ENDBRANCH   1  15
BRANCH   1  35
HETATM   35  N8  UNL     1      60.332  78.083 -89.269  1.00  0.00     0.111 N
BRANCH  35  36
HETATM   36  C15 UNL     1      61.478  78.591 -88.498  1.00  0.00     0.270 C
HETATM   37  C16 UNL     1      61.176  79.825 -87.731  1.00  0.00     0.037 C
ENDBRANCH  35  36
BRANCH  35  38
HETATM   38  C17 UNL     1      59.626  79.123 -89.891  1.00  0.00     0.277 C
BRANCH  38  39
HETATM   39  C18 UNL     1      58.130  79.131 -89.607  1.00  0.00     0.056 C
BRANCH  39  40
HETATM   40  C19 UNL     1      57.413  78.517 -90.812  1.00  0.00     0.165 C
BRANCH  40  41
HETATM   41  O5  UNL     1      57.153  77.159 -90.494  1.00  0.00    -0.401 OA
ATOM     42  H5  UNL     1      57.344  76.649 -91.273  1.00  0.00     0.209 HD
ENDBRANCH  40  41
ENDBRANCH  39  40
ENDBRANCH  38  39
ENDBRANCH  35  38
ENDBRANCH   1  35
TORSDOF 19
ENDMDL