MODEL 4
REMARK VINA RESULT: -7.589427253      4.267      6.002
REMARK  15 active torsions:
REMARK  status: ('A' for Active; 'I' for Inactive)
REMARK    1  A    between atoms: C2_2  and  N1_3
REMARK    2  A    between atoms: C2_2  and  C3_7
REMARK    3  A    between atoms: C3_7  and  C4_8
REMARK       I    between atoms: C4_8  and  N2_10
REMARK    4  A    between atoms: N2_10  and  C5_12
REMARK    5  A    between atoms: C5_12  and  C6_13
REMARK    6  A    between atoms: C8_19  and  C9_20
REMARK    7  A    between atoms: C9_20  and  N6_34
REMARK    8  A    between atoms: N5_21  and  C10_23
REMARK    9  A    between atoms: C13_26  and  P1_27
REMARK   10  A    between atoms: P1_27  and  O2_28
REMARK   11  A    between atoms: P1_27  and  O3_30
REMARK       I    between atoms: N6_34  and  C16_36
REMARK       I    between atoms: C16_36  and  N7_38
REMARK   12  A    between atoms: N7_38  and  C17_40
REMARK   13  A    between atoms: C17_40  and  C18_41
REMARK   14  A    between atoms: C18_41  and  C19_42
REMARK   15  A    between atoms: C19_42  and  O5_43
ROOT
HETATM    1  C9  UNL     1      61.215  76.072 -89.497  1.00  0.00     0.138 C
HETATM    2  N5  UNL     1      59.978  75.679 -89.700  1.00  0.00    -0.340 N
ATOM      3  H5  UNL     1      59.184  76.265 -89.441  1.00  0.00     0.167 HD
ENDROOT
BRANCH   1   4
HETATM    4  C8  UNL     1      61.397  77.377 -88.887  1.00  0.00     0.095 A
HETATM    5  C7  UNL     1      62.356  77.544 -87.936  1.00  0.00     0.140 A
HETATM    6  N4  UNL     1      62.524  78.761 -87.379  1.00  0.00    -0.308 N
HETATM    7  N3  UNL     1      61.760  79.750 -87.770  1.00  0.00    -0.288 N
ATOM      8  H4  UNL     1      63.236  78.908 -86.663  1.00  0.00     0.186 HD
HETATM    9  C6  UNL     1      60.820  79.613 -88.695  1.00  0.00     0.114 A
ATOM     10  H3  UNL     1      61.894  80.668 -87.344  1.00  0.00     0.188 HD
HETATM   11  N8  UNL     1      60.632  78.405 -89.268  1.00  0.00    -0.339 N
ATOM     12  H8  UNL     1      59.915  78.278 -89.983  1.00  0.00     0.167 HD
BRANCH   9  13
HETATM   13  C5  UNL     1      59.939  80.705 -89.148  1.00  0.00     0.200 C
BRANCH  13  14
HETATM   14  N2  UNL     1      60.610  81.461 -90.196  1.00  0.00    -0.354 N
HETATM   15  C4  UNL     1      60.545  81.074 -91.556  1.00  0.00     0.219 C
HETATM   16  O1  UNL     1      59.909  80.060 -91.935  1.00  0.00    -0.274 OA
ATOM     17  H2  UNL     1      61.142  82.294 -89.942  1.00  0.00     0.162 HD
BRANCH  15  18
HETATM   18  C3  UNL     1      61.251  81.889 -92.568  1.00  0.00     0.135 C
BRANCH  18  19
HETATM   19  C2  UNL     1      61.857  80.994 -93.646  1.00  0.00     0.188 C
HETATM   20  C1  UNL     1      63.098  81.593 -94.206  1.00  0.00     0.040 C
BRANCH  19  21
HETATM   21  N1  UNL     1      60.845  80.753 -94.656  1.00  0.00    -0.075 N
ATOM     22  H13 UNL     1      59.908  80.811 -94.258  1.00  0.00     0.274 HD
ATOM     23  H12 UNL     1      60.793  81.530 -95.315  1.00  0.00     0.274 HD
ATOM     24  H11 UNL     1      60.980  79.868 -95.146  1.00  0.00     0.274 HD
ENDBRANCH  19  21
ENDBRANCH  18  19
ENDBRANCH  15  18
ENDBRANCH  13  14
ENDBRANCH   9  13
ENDBRANCH   1   4
BRANCH   1  25
HETATM   25  N6  UNL     1      62.293  75.256 -89.860  1.00  0.00    -0.293 N
HETATM   26  C16 UNL     1      62.817  75.229 -91.162  1.00  0.00     0.321 C
HETATM   27  O4  UNL     1      62.327  75.941 -92.053  1.00  0.00    -0.247 OA
HETATM   28  N7  UNL     1      63.921  74.388 -91.498  1.00  0.00    -0.343 N
ATOM     29  H7  UNL     1      64.314  73.798 -90.765  1.00  0.00     0.164 HD
ATOM     30  H6  UNL     1      62.715  74.657 -89.151  1.00  0.00     0.172 HD
BRANCH  28  31
HETATM   31  C17 UNL     1      64.506  74.325 -92.802  1.00  0.00     0.126 C
BRANCH  31  32
HETATM   32  C18 UNL     1      65.441  75.473 -93.059  1.00  0.00     0.046 C
BRANCH  32  33
HETATM   33  C19 UNL     1      66.840  75.055 -92.612  1.00  0.00     0.165 C
BRANCH  33  34
HETATM   34  O5  UNL     1      66.794  73.904 -91.837  1.00  0.00    -0.401 OA
ATOM     35  H5  UNL     1      67.649  73.698 -91.479  1.00  0.00     0.209 HD
ENDBRANCH  33  34
ENDBRANCH  32  33
ENDBRANCH  31  32
ENDBRANCH  28  31
ENDBRANCH   1  25
BRANCH   2  36
HETATM   36  C10 UNL     1      59.792  74.397 -90.297  1.00  0.00     0.033 A
HETATM   37  C11 UNL     1      59.371  74.290 -91.612  1.00  0.00     0.030 A
HETATM   38  C12 UNL     1      59.189  73.058 -92.195  1.00  0.00     0.019 A
HETATM   39  C13 UNL     1      59.420  71.904 -91.482  1.00  0.00     0.022 A
HETATM   40  C14 UNL     1      59.841  72.004 -90.164  1.00  0.00     0.019 A
HETATM   41  C15 UNL     1      60.028  73.230 -89.570  1.00  0.00     0.030 A
BRANCH  39  42
HETATM   42  P1  UNL     1      59.174  70.279 -92.263  1.00  0.00     0.200 P
BRANCH  42  43
HETATM   43  O2  UNL     1      59.797  69.063 -91.196  1.00  0.00    -0.346 OA
ATOM     44  H2  UNL     1      60.643  69.353 -90.875  1.00  0.00     0.217 HD
ENDBRANCH  42  43
BRANCH  42  45
HETATM   45  O3  UNL     1      60.033  70.251 -93.767  1.00  0.00    -0.346 OA
ATOM     46  H3  UNL     1      60.371  69.375 -93.908  1.00  0.00     0.217 HD
ENDBRANCH  42  45
ENDBRANCH  39  42
ENDBRANCH   2  36
TORSDOF 15
ENDMDL