MODEL 3
REMARK VINA RESULT: -7.486117345      3.464      9.536
REMARK  16 active torsions:
REMARK  status: ('A' for Active; 'I' for Inactive)
REMARK    1  A    between atoms: C2_2  and  C3_3
REMARK    2  A    between atoms: C3_3  and  C4_4
REMARK    3  A    between atoms: C4_4  and  N1_5
REMARK    4  A    between atoms: N1_5  and  C5_7
REMARK    5  A    between atoms: C5_7  and  N2_8
REMARK    6  A    between atoms: N2_8  and  C6_10
REMARK    7  A    between atoms: C6_10  and  C7_11
REMARK    8  A    between atoms: C7_11  and  O1_12
REMARK    9  A    between atoms: C8_14  and  C10_16
REMARK   10  A    between atoms: C12_23  and  N6_24
REMARK   11  A    between atoms: N6_24  and  C13_26
REMARK   12  A    between atoms: C13_26  and  C16_34
REMARK   13  A    between atoms: C14_27  and  C15_28
REMARK   14  A    between atoms: C15_28  and  P1_29
REMARK   15  A    between atoms: P1_29  and  O2_30
REMARK   16  A    between atoms: P1_29  and  O3_32
ROOT
HETATM    1  C10 UNL     1      63.029  74.507 -92.351  1.00  0.00     0.060 A
HETATM    2  N3  UNL     1      62.298  75.192 -93.220  1.00  0.00    -0.278 N
ATOM      3  H3  UNL     1      61.302  74.978 -93.166  1.00  0.00     0.188 HD
HETATM    4  N4  UNL     1      62.600  76.130 -94.178  1.00  0.00    -0.080 N
HETATM    5  C11 UNL     1      61.476  76.610 -94.900  1.00  0.00     0.242 A
HETATM    6  N5  UNL     1      61.609  77.492 -95.828  1.00  0.00    -0.185 N
ATOM      7  H5  UNL     1      60.774  77.808 -96.321  1.00  0.00     0.185 HD
HETATM    8  C12 UNL     1      62.861  78.042 -96.197  1.00  0.00     0.698 A
HETATM    9  N7  UNL     1      63.915  77.641 -95.572  1.00  0.00    -0.020 N
ATOM     10  H7  UNL     1      64.821  78.032 -95.833  1.00  0.00     0.203 HD
HETATM   11  C17 UNL     1      63.860  76.669 -94.532  1.00  0.00     0.718 A
HETATM   12  N8  UNL     1      65.007  76.382 -94.014  1.00  0.00    -0.199 N
ATOM     13  H8  UNL     1      65.806  76.880 -94.408  1.00  0.00     0.183 HD
HETATM   14  C18 UNL     1      65.311  75.468 -92.972  1.00  0.00     0.108 A
HETATM   15  C19 UNL     1      64.459  74.679 -92.275  1.00  0.00     0.049 A
ENDROOT
BRANCH   1  16
HETATM   16  C8  UNL     1      62.322  73.607 -91.505  1.00  0.00     0.010 C
HETATM   17  C5  UNL     1      61.865  73.699 -90.317  1.00  0.00     0.105 C
HETATM   18  C9  UNL     1      62.058  72.234 -92.159  1.00  0.00     0.054 C
BRANCH  17  19
HETATM   19  N1  UNL     1      61.182  72.508 -89.790  1.00  0.00    -0.376 N
ATOM     20  H1  UNL     1      61.510  71.572 -90.027  1.00  0.00     0.161 HD
BRANCH  19  21
HETATM   21  C4  UNL     1      60.056  72.688 -88.945  1.00  0.00     0.121 C
BRANCH  21  22
HETATM   22  C3  UNL     1      58.842  71.961 -89.465  1.00  0.00     0.019 C
BRANCH  22  23
HETATM   23  C2  UNL     1      57.750  72.067 -88.430  1.00  0.00    -0.003 C
HETATM   24  C1  UNL     1      57.587  70.741 -87.728  1.00  0.00     0.005 C
ENDBRANCH  22  23
ENDBRANCH  21  22
ENDBRANCH  19  21
ENDBRANCH  17  19
BRANCH  17  25
HETATM   25  N2  UNL     1      61.922  74.790 -89.431  1.00  0.00    -0.374 N
ATOM     26  H2  UNL     1      62.498  74.730 -88.591  1.00  0.00     0.161 HD
BRANCH  25  27
HETATM   27  C6  UNL     1      61.166  76.010 -89.704  1.00  0.00     0.147 C
BRANCH  27  28
HETATM   28  C7  UNL     1      61.573  77.128 -88.787  1.00  0.00     0.183 C
BRANCH  28  29
HETATM   29  O1  UNL     1      62.679  76.799 -88.002  1.00  0.00    -0.399 OA
ATOM     30  H1  UNL     1      62.731  77.321 -87.210  1.00  0.00     0.209 HD
ENDBRANCH  28  29
ENDBRANCH  27  28
ENDBRANCH  25  27
ENDBRANCH  17  25
ENDBRANCH   1  16
BRANCH   8  31
HETATM   31  N6  UNL     1      62.957  79.028 -97.244  1.00  0.00    -0.185 N
ATOM     32  H6  UNL     1      62.105  79.347 -97.705  1.00  0.00     0.184 HD
BRANCH  31  33
HETATM   33  C13 UNL     1      64.203  79.564 -97.647  1.00  0.00     0.122 C
HETATM   34  C14 UNL     1      64.553  80.749 -97.196  1.00  0.00     0.019 C
BRANCH  34  35
HETATM   35  C15 UNL     1      63.670  81.505 -96.288  1.00  0.00     0.122 C
BRANCH  35  36
HETATM   36  P1  UNL     1      64.331  81.555 -94.554  1.00  0.00     0.166 P
BRANCH  36  37
HETATM   37  O2  UNL     1      63.119  82.110 -93.443  1.00  0.00    -0.349 OA
ATOM     38  H2  UNL     1      62.762  81.387 -92.941  1.00  0.00     0.217 HD
ENDBRANCH  36  37
BRANCH  36  39
HETATM   39  O3  UNL     1      64.965  80.009 -94.083  1.00  0.00    -0.349 OA
ATOM     40  H3  UNL     1      64.869  79.871 -93.149  1.00  0.00     0.217 HD
ENDBRANCH  36  39
ENDBRANCH  35  36
ENDBRANCH  34  35
BRANCH  33  41
HETATM   41  C16 UNL     1      65.075  78.803 -98.551  1.00  0.00     0.227 C
HETATM   42  O4  UNL     1      64.872  78.855 -99.775  1.00  0.00    -0.643 OA
HETATM   43  O5  UNL     1      66.098  78.048 -98.010  1.00  0.00    -0.643 OA
ENDBRANCH  33  41
ENDBRANCH  31  33
ENDBRANCH   8  31
TORSDOF 16
ENDMDL