MODEL 1
REMARK VINA RESULT: -7.533649378      0.000      0.000
REMARK  15 active torsions:
REMARK  status: ('A' for Active; 'I' for Inactive)
REMARK    1  A    between atoms: C2_2  and  C4_4
REMARK    2  A    between atoms: N1_6  and  C6_7
REMARK    3  A    between atoms: C6_7  and  O1_8
REMARK    4  A    between atoms: C6_7  and  N2_10
REMARK    5  A    between atoms: C9_13  and  C11_15
REMARK    6  A    between atoms: C11_15  and  C12_16
REMARK    7  A    between atoms: C12_16  and  N3_17
REMARK    8  A    between atoms: N3_17  and  C13_19
REMARK    9  A    between atoms: C16_22  and  N4_23
REMARK   10  A    between atoms: N4_23  and  N5_25
REMARK   11  A    between atoms: N5_25  and  C17_26
REMARK   12  A    between atoms: C17_26  and  C18_27
REMARK   13  A    between atoms: C18_27  and  P1_28
REMARK   14  A    between atoms: P1_28  and  O2_29
REMARK   15  A    between atoms: P1_28  and  O3_31
ROOT
HETATM    1  C12 UNL     1      62.355  72.497 -92.176  1.00  0.00     0.126 C
ENDROOT
BRANCH   1   2
HETATM    2  C11 UNL     1      61.575  72.759 -90.903  1.00  0.00     0.081 C
BRANCH   2   3
HETATM    3  C9  UNL     1      60.343  73.594 -91.113  1.00  0.00     0.147 C
HETATM    4  N1  UNL     1      60.287  74.793 -90.249  1.00  0.00    -0.313 N
HETATM    5  C5  UNL     1      60.433  76.151 -90.679  1.00  0.00     0.155 C
HETATM    6  C4  UNL     1      59.189  76.713 -91.326  1.00  0.00     0.108 C
HETATM    7  N8  UNL     1      59.065  76.106 -92.635  1.00  0.00    -0.330 N
HETATM    8  C19 UNL     1      59.719  74.986 -93.158  1.00  0.00     0.363 C
ATOM      9  H8  UNL     1      58.406  76.562 -93.266  1.00  0.00     0.165 HD
HETATM   10  O4  UNL     1      60.395  73.996 -92.478  1.00  0.00    -0.272 OA
HETATM   11  O5  UNL     1      59.681  74.873 -94.421  1.00  0.00    -0.238 OA
HETATM   12  C10 UNL     1      59.135  72.721 -90.951  1.00  0.00     0.072 C
BRANCH   4  13
HETATM   13  C6  UNL     1      60.053  74.531 -88.922  1.00  0.00     0.218 C
BRANCH  13  14
HETATM   14  O1  UNL     1      61.105  74.795 -88.154  1.00  0.00    -0.332 OA
ATOM     15  H1  UNL     1      61.190  74.190 -87.426  1.00  0.00     0.220 HD
ENDBRANCH  13  14
BRANCH  13  16
HETATM   16  N2  UNL     1      59.006  74.059 -88.144  1.00  0.00    -0.356 N
HETATM   17  C7  UNL     1      57.667  74.737 -88.240  1.00  0.00     0.152 C
HETATM   18  C8  UNL     1      59.025  72.982 -87.225  1.00  0.00     0.152 C
ENDBRANCH  13  16
ENDBRANCH   4  13
BRANCH   6  19
HETATM   19  C2  UNL     1      59.418  78.216 -91.466  1.00  0.00     0.002 C
HETATM   20  C1  UNL     1      60.557  78.480 -92.400  1.00  0.00     0.011 C
HETATM   21  C3  UNL     1      59.554  78.881 -90.133  1.00  0.00     0.011 C
ENDBRANCH   6  19
ENDBRANCH   2   3
ENDBRANCH   1   2
BRANCH   1  22
HETATM   22  N3  UNL     1      63.703  72.991 -92.149  1.00  0.00    -0.375 N
ATOM     23  H3  UNL     1      64.420  72.388 -91.746  1.00  0.00     0.161 HD
BRANCH  22  24
HETATM   24  C13 UNL     1      64.112  74.266 -92.647  1.00  0.00     0.115 A
HETATM   25  C14 UNL     1      65.437  74.626 -92.729  1.00  0.00     0.053 A
HETATM   26  C15 UNL     1      65.759  75.872 -93.243  1.00  0.00     0.054 A
HETATM   27  C16 UNL     1      64.776  76.725 -93.659  1.00  0.00     0.131 A
HETATM   28  N6  UNL     1      63.503  76.319 -93.554  1.00  0.00    -0.283 N
HETATM   29  N7  UNL     1      63.191  75.151 -93.074  1.00  0.00    -0.284 N
ATOM     30  H6  UNL     1      62.757  76.944 -93.860  1.00  0.00     0.188 HD
ATOM     31  H7  UNL     1      62.205  74.894 -93.018  1.00  0.00     0.188 HD
BRANCH  27  32
HETATM   32  N4  UNL     1      65.076  78.017 -94.195  1.00  0.00    -0.288 N
ATOM     33  H4  UNL     1      66.007  78.211 -94.565  1.00  0.00     0.184 HD
BRANCH  32  34
HETATM   34  N5  UNL     1      64.108  79.002 -94.212  1.00  0.00    -0.139 NA
BRANCH  34  35
HETATM   35  C17 UNL     1      63.683  79.339 -95.560  1.00  0.00     0.144 C
BRANCH  35  36
HETATM   36  C18 UNL     1      64.228  80.678 -95.974  1.00  0.00     0.111 C
BRANCH  36  37
HETATM   37  P1  UNL     1      64.523  81.738 -94.483  1.00  0.00     0.164 P
BRANCH  37  38
HETATM   38  O2  UNL     1      63.130  81.803 -93.467  1.00  0.00    -0.350 OA
ATOM     39  H2  UNL     1      62.439  82.327 -93.857  1.00  0.00     0.217 HD
ENDBRANCH  37  38
BRANCH  37  40
HETATM   40  O3  UNL     1      65.874  81.094 -93.583  1.00  0.00    -0.350 OA
ATOM     41  H3  UNL     1      65.666  80.211 -93.301  1.00  0.00     0.217 HD
ENDBRANCH  37  40
ENDBRANCH  36  37
ENDBRANCH  35  36
ENDBRANCH  34  35
ENDBRANCH  32  34
ENDBRANCH  27  32
ENDBRANCH  22  24
ENDBRANCH   1  22
TORSDOF 15
ENDMDL