MODEL 4
REMARK VINA RESULT: -7.553065905      2.164      4.121
REMARK  16 active torsions:
REMARK  status: ('A' for Active; 'I' for Inactive)
REMARK    1  A    between atoms: C2_2  and  O1_3
REMARK    2  A    between atoms: O1_3  and  P1_4
REMARK    3  A    between atoms: P1_4  and  O2_5
REMARK    4  A    between atoms: P1_4  and  O3_8
REMARK    5  A    between atoms: O2_5  and  C3_6
REMARK    6  A    between atoms: O3_8  and  C5_9
REMARK    7  A    between atoms: C5_9  and  C6_10
REMARK    8  A    between atoms: C6_10  and  N1_11
REMARK    9  A    between atoms: N1_11  and  C7_13
REMARK   10  A    between atoms: C9_17  and  C10_18
REMARK   11  A    between atoms: N3_19  and  N4_21
REMARK   12  A    between atoms: C11_24  and  C13_26
REMARK       I    between atoms: C13_26  and  N5_28
REMARK   13  A    between atoms: N5_28  and  C14_30
REMARK   14  A    between atoms: C14_30  and  C15_31
REMARK   15  A    between atoms: C15_31  and  O5_32
REMARK   16  A    between atoms: C17_35  and  C18_36
ROOT
HETATM    1  C7  UNL     1      60.552  74.228 -93.260  1.00  0.00     0.119 C
HETATM    2  N2  UNL     1      59.333  73.737 -93.039  1.00  0.00    -0.344 N
ATOM      3  H2  UNL     1      58.474  74.033 -93.503  1.00  0.00     0.167 HD
HETATM    4  C8  UNL     1      59.448  72.662 -91.976  1.00  0.00     0.033 C
HETATM    5  C9  UNL     1      59.435  71.385 -92.258  1.00  0.00     0.045 C
HETATM    6  C11 UNL     1      59.742  73.275 -90.694  1.00  0.00     0.098 C
HETATM    7  C12 UNL     1      58.921  74.592 -90.548  1.00  0.00     0.037 C
HETATM    8  C16 UNL     1      61.188  73.746 -90.955  1.00  0.00     0.017 C
HETATM    9  C17 UNL     1      61.534  74.191 -92.152  1.00  0.00     0.051 C
ENDROOT
BRANCH   1  10
HETATM   10  N1  UNL     1      60.834  75.234 -94.240  1.00  0.00    -0.353 N
ATOM     11  H1  UNL     1      61.627  75.036 -94.851  1.00  0.00     0.166 HD
BRANCH  10  12
HETATM   12  C6  UNL     1      60.188  76.435 -94.481  1.00  0.00     0.089 C
BRANCH  12  13
HETATM   13  C5  UNL     1      60.295  77.677 -93.684  1.00  0.00     0.222 C
BRANCH  13  14
HETATM   14  O3  UNL     1      61.716  77.685 -93.373  1.00  0.00    -0.312 OA
BRANCH  14  15
HETATM   15  P1  UNL     1      62.496  78.641 -94.636  1.00  0.00     0.334 P
BRANCH  15  16
HETATM   16  O1  UNL     1      64.184  77.754 -94.683  1.00  0.00    -0.318 OA
BRANCH  16  17
HETATM   17  C2  UNL     1      64.112  77.118 -95.916  1.00  0.00     0.173 C
HETATM   18  C1  UNL     1      64.933  77.861 -96.927  1.00  0.00     0.034 C
ENDBRANCH  16  17
ENDBRANCH  15  16
BRANCH  15  19
HETATM   19  O2  UNL     1      63.233  80.108 -93.947  1.00  0.00    -0.318 OA
BRANCH  19  20
HETATM   20  C3  UNL     1      63.754  80.882 -94.942  1.00  0.00     0.173 C
HETATM   21  C4  UNL     1      64.934  81.662 -94.363  1.00  0.00     0.034 C
ENDBRANCH  19  20
ENDBRANCH  15  19
ENDBRANCH  14  15
ENDBRANCH  13  14
ENDBRANCH  12  13
ENDBRANCH  10  12
ENDBRANCH   1  10
BRANCH   9  22
HETATM   22  C18 UNL     1      62.981  74.457 -92.432  1.00  0.00     0.134 A
HETATM   23  N6  UNL     1      63.945  73.498 -92.573  1.00  0.00    -0.336 N
HETATM   24  C19 UNL     1      65.147  74.107 -92.773  1.00  0.00     0.199 A
ATOM     25  H6  UNL     1      63.789  72.492 -92.534  1.00  0.00     0.168 HD
HETATM   26  N7  UNL     1      64.897  75.425 -92.765  1.00  0.00    -0.295 N
HETATM   27  N8  UNL     1      63.569  75.614 -92.549  1.00  0.00    -0.284 N
ATOM     28  H7  UNL     1      65.589  76.163 -92.898  1.00  0.00     0.187 HD
ATOM     29  H8  UNL     1      63.104  76.521 -92.489  1.00  0.00     0.188 HD
ENDBRANCH   9  22
BRANCH   5  30
HETATM   30  C10 UNL     1      59.323  70.821 -93.610  1.00  0.00     0.108 C
HETATM   31  N3  UNL     1      58.882  69.618 -93.772  1.00  0.00    -0.318 N
ATOM     32  H3  UNL     1      58.803  69.240 -94.716  1.00  0.00     0.185 HD
BRANCH  31  33
HETATM   33  N4  UNL     1      58.505  68.813 -92.670  1.00  0.00    -0.345 N
ATOM     34  H42 UNL     1      57.643  69.044 -92.177  1.00  0.00     0.176 HD
ATOM     35  H41 UNL     1      59.074  68.022 -92.368  1.00  0.00     0.176 HD
ENDBRANCH  31  33
ENDBRANCH   5  30
BRANCH   6  36
HETATM   36  C13 UNL     1      59.579  72.570 -89.454  1.00  0.00     0.235 C
HETATM   37  O4  UNL     1      60.456  71.904 -88.811  1.00  0.00    -0.272 OA
HETATM   38  N5  UNL     1      58.284  72.601 -88.836  1.00  0.00    -0.358 N
ATOM     39  H5  UNL     1      57.518  73.107 -89.280  1.00  0.00     0.162 HD
BRANCH  38  40
HETATM   40  C14 UNL     1      58.066  71.902 -87.561  1.00  0.00     0.148 C
BRANCH  40  41
HETATM   41  C15 UNL     1      57.436  70.543 -87.818  1.00  0.00     0.183 C
BRANCH  41  42
HETATM   42  O5  UNL     1      58.548  69.636 -87.906  1.00  0.00    -0.399 OA
ATOM     43  H5  UNL     1      58.290  68.887 -87.384  1.00  0.00     0.209 HD
ENDBRANCH  41  42
ENDBRANCH  40  41
ENDBRANCH  38  40
ENDBRANCH   6  36
TORSDOF 16
ENDMDL