MODEL 3
REMARK VINA RESULT: -6.733836237      3.343      5.708
REMARK  15 active torsions:
REMARK  status: ('A' for Active; 'I' for Inactive)
REMARK    1  A    between atoms: C2_2  and  C3_3
REMARK    2  A    between atoms: C3_3  and  C4_4
REMARK    3  A    between atoms: C4_4  and  C5_5
REMARK    4  A    between atoms: C5_5  and  O1_6
REMARK    5  A    between atoms: O1_6  and  C6_7
REMARK    6  A    between atoms: C6_7  and  C7_8
REMARK    7  A    between atoms: C7_8  and  C8_9
REMARK    8  A    between atoms: C9_10  and  N1_11
REMARK    9  A    between atoms: N1_11  and  C10_13
REMARK   10  A    between atoms: C10_13  and  O2_14
REMARK       I    between atoms: N5_26  and  C16_27
REMARK   11  A    between atoms: C16_27  and  C17_29
REMARK   12  A    between atoms: C17_29  and  N6_30
REMARK       I    between atoms: N6_30  and  C19_32
REMARK       I    between atoms: C19_32  and  N8_36
REMARK   13  A    between atoms: N8_36  and  P1_38
REMARK   14  A    between atoms: P1_38  and  O4_39
REMARK   15  A    between atoms: P1_38  and  O5_41
ROOT
HETATM    1  C8  UNL     1      61.166  76.430 -94.326  1.00  0.00     0.146 C
HETATM    2  C9  UNL     1      61.532  75.315 -93.488  1.00  0.00     0.061 C
HETATM    3  C11 UNL     1      62.863  75.072 -93.229  1.00  0.00     0.102 A
HETATM    4  C12 UNL     1      63.856  75.948 -93.862  1.00  0.00     0.079 A
HETATM    5  N2  UNL     1      65.096  75.926 -93.578  1.00  0.00    -0.348 N
ATOM      6  H2  UNL     1      65.749  76.557 -94.042  1.00  0.00     0.167 HD
HETATM    7  C13 UNL     1      65.540  75.018 -92.620  1.00  0.00     0.198 A
HETATM    8  N3  UNL     1      64.788  74.208 -92.014  1.00  0.00    -0.294 N
ATOM      9  H3  UNL     1      65.189  73.569 -91.327  1.00  0.00     0.188 HD
HETATM   10  N4  UNL     1      63.317  74.166 -92.286  1.00  0.00    -0.292 N
HETATM   11  C14 UNL     1      62.621  73.150 -91.636  1.00  0.00     0.178 C
HETATM   12  C15 UNL     1      63.536  76.738 -95.080  1.00  0.00     0.127 C
HETATM   13  N5  UNL     1      62.198  76.924 -95.284  1.00  0.00    -0.314 N
HETATM   14  C16 UNL     1      61.735  77.710 -96.382  1.00  0.00     0.242 C
HETATM   15  O3  UNL     1      60.499  77.800 -96.700  1.00  0.00    -0.271 OA
ENDROOT
BRANCH   1  16
HETATM   16  C7  UNL     1      61.278  77.760 -93.422  1.00  0.00     0.058 C
BRANCH  16  17
HETATM   17  C6  UNL     1      60.045  78.033 -92.629  1.00  0.00     0.170 C
BRANCH  17  18
HETATM   18  O1  UNL     1      60.230  77.450 -91.460  1.00  0.00    -0.391 OA
BRANCH  18  19
HETATM   19  C5  UNL     1      59.569  77.195 -90.407  1.00  0.00     0.167 C
BRANCH  19  20
HETATM   20  C4  UNL     1      58.540  78.100 -89.867  1.00  0.00     0.026 C
BRANCH  20  21
HETATM   21  C3  UNL     1      57.190  77.469 -89.660  1.00  0.00     0.002 C
BRANCH  21  22
HETATM   22  C2  UNL     1      57.537  75.991 -89.421  1.00  0.00    -0.004 C
HETATM   23  C1  UNL     1      56.424  75.275 -88.762  1.00  0.00     0.005 C
ENDBRANCH  21  22
ENDBRANCH  20  21
ENDBRANCH  19  20
ENDBRANCH  18  19
ENDBRANCH  17  18
ENDBRANCH  16  17
ENDBRANCH   1  16
BRANCH  14  24
HETATM   24  C17 UNL     1      62.664  78.488 -97.192  1.00  0.00     0.228 C
BRANCH  24  25
HETATM   25  N6  UNL     1      63.164  79.716 -96.588  1.00  0.00    -0.349 N
HETATM   26  C18 UNL     1      62.369  80.562 -95.745  1.00  0.00     0.153 C
HETATM   27  C19 UNL     1      64.498  80.080 -96.878  1.00  0.00     0.177 C
HETATM   28  N7  UNL     1      64.929  81.310 -97.057  1.00  0.00    -0.371 N
HETATM   29  N8  UNL     1      65.555  79.048 -97.043  1.00  0.00    -0.292 N
ATOM     30  H72 UNL     1      64.204  82.018 -96.944  1.00  0.00     0.159 HD
ATOM     31  H71 UNL     1      65.893  81.572 -97.267  1.00  0.00     0.159 HD
ATOM     32  H8  UNL     1      66.000  78.554 -96.270  1.00  0.00     0.171 HD
BRANCH  29  33
HETATM   33  P1  UNL     1      65.950  78.781 -98.770  1.00  0.00     0.286 P
BRANCH  33  34
HETATM   34  O4  UNL     1      65.108  79.966 -99.702  1.00  0.00    -0.333 OA
ATOM     35  H4  UNL     1      65.133  79.697-100.613  1.00  0.00     0.219 HD
ENDBRANCH  33  34
BRANCH  33  36
HETATM   36  O5  UNL     1      67.635  78.850 -99.066  1.00  0.00    -0.333 OA
ATOM     37  H5  UNL     1      67.838  78.818 -99.994  1.00  0.00     0.219 HD
ENDBRANCH  33  36
ENDBRANCH  29  33
ENDBRANCH  24  25
ENDBRANCH  14  24
BRANCH   2  38
HETATM   38  N1  UNL     1      60.662  74.395 -92.858  1.00  0.00    -0.368 N
ATOM     39  H1  UNL     1      61.101  73.645 -92.324  1.00  0.00     0.161 HD
BRANCH  38  40
HETATM   40  C10 UNL     1      59.206  74.406 -92.889  1.00  0.00     0.287 C
BRANCH  40  41
HETATM   41  O2  UNL     1      58.896  73.757 -94.099  1.00  0.00    -0.382 OA
ATOM     42  H2  UNL     1      59.071  74.418 -94.759  1.00  0.00     0.211 HD
ENDBRANCH  40  41
ENDBRANCH  38  40
ENDBRANCH   2  38
TORSDOF 15
ENDMDL