MODEL 3
REMARK VINA RESULT: -6.939852848      3.178      6.027
REMARK  18 active torsions:
REMARK  status: ('A' for Active; 'I' for Inactive)
REMARK    1  A    between atoms: C2_2  and  N1_3
REMARK    2  A    between atoms: C3_6  and  N3_7
REMARK    3  A    between atoms: C5_11  and  C6_12
REMARK    4  A    between atoms: N6_18  and  C10_19
REMARK    5  A    between atoms: C10_19  and  C11_20
REMARK    6  A    between atoms: C11_20  and  O1_21
REMARK    7  A    between atoms: C11_20  and  C12_23
REMARK    8  A    between atoms: C12_23  and  O2_24
REMARK    9  A    between atoms: O2_24  and  C13_25
REMARK   10  A    between atoms: C13_25  and  C14_26
REMARK   11  A    between atoms: C14_26  and  C15_27
REMARK   12  A    between atoms: C17_29  and  N7_30
REMARK   13  A    between atoms: N7_30  and  C18_32
REMARK   14  A    between atoms: C18_32  and  C19_33
REMARK   15  A    between atoms: C19_33  and  O3_34
REMARK   16  A    between atoms: O3_34  and  P1_35
REMARK   17  A    between atoms: P1_35  and  O4_36
REMARK   18  A    between atoms: P1_35  and  O5_38
ROOT
HETATM    1  N1  UNL     1      59.062  71.205 -90.875  1.00  0.00    -0.206 N
HETATM    2  N2  UNL     1      59.218  72.171 -91.845  1.00  0.00    -0.264 N
ATOM      3  H2  UNL     1      59.547  71.882 -92.766  1.00  0.00     0.190 HD
HETATM    4  C3  UNL     1      58.977  73.396 -91.655  1.00  0.00     0.140 A
HETATM    5  C5  UNL     1      58.485  73.932 -90.333  1.00  0.00     0.099 A
HETATM    6  C17 UNL     1      58.348  72.915 -89.366  1.00  0.00     0.135 A
HETATM    7  N8  UNL     1      58.627  71.627 -89.663  1.00  0.00    -0.264 N
ATOM      8  H8  UNL     1      58.502  70.930 -88.929  1.00  0.00     0.190 HD
ENDROOT
BRANCH   5   9
HETATM    9  C6  UNL     1      58.433  75.221 -90.258  1.00  0.00     0.125 A
HETATM   10  N5  UNL     1      57.085  75.720 -89.900  1.00  0.00    -0.351 N
HETATM   11  C7  UNL     1      56.763  76.897 -89.628  1.00  0.00     0.091 A
ATOM     12  H5  UNL     1      56.337  75.026 -89.872  1.00  0.00     0.166 HD
HETATM   13  C8  UNL     1      57.743  77.959 -89.633  1.00  0.00     0.034 A
HETATM   14  C9  UNL     1      58.968  77.603 -89.933  1.00  0.00     0.094 A
HETATM   15  N6  UNL     1      59.373  76.257 -90.247  1.00  0.00    -0.340 N
BRANCH  15  16
HETATM   16  C10 UNL     1      60.768  75.989 -90.283  1.00  0.00     0.164 C
BRANCH  16  17
HETATM   17  C11 UNL     1      61.318  75.134 -89.164  1.00  0.00     0.160 C
BRANCH  17  18
HETATM   18  O1  UNL     1      61.832  75.761 -88.080  1.00  0.00    -0.392 OA
ATOM     19  H1  UNL     1      62.283  76.586 -88.214  1.00  0.00     0.210 HD
ENDBRANCH  17  18
BRANCH  17  20
HETATM   20  C12 UNL     1      61.946  73.874 -89.659  1.00  0.00     0.200 C
BRANCH  20  21
HETATM   21  O2  UNL     1      61.881  73.912 -91.030  1.00  0.00    -0.389 OA
BRANCH  21  22
HETATM   22  C13 UNL     1      62.974  73.497 -91.726  1.00  0.00     0.167 C
BRANCH  22  23
HETATM   23  C14 UNL     1      64.018  74.567 -91.948  1.00  0.00     0.026 C
BRANCH  23  24
HETATM   24  C15 UNL     1      65.061  74.129 -92.965  1.00  0.00    -0.002 C
HETATM   25  C16 UNL     1      66.342  74.897 -92.606  1.00  0.00     0.005 C
ENDBRANCH  23  24
ENDBRANCH  22  23
ENDBRANCH  21  22
ENDBRANCH  20  21
ENDBRANCH  17  20
ENDBRANCH  16  17
ENDBRANCH  15  16
ENDBRANCH   5   9
BRANCH   4  26
HETATM   26  N3  UNL     1      59.188  74.268 -92.762  1.00  0.00    -0.339 N
HETATM   27  C4  UNL     1      58.350  74.479 -93.690  1.00  0.00     0.191 C
HETATM   28  N4  UNL     1      57.098  73.823 -93.668  1.00  0.00    -0.097 NA
ATOM     29  H3  UNL     1      60.080  74.761 -92.811  1.00  0.00     0.167 HD
ENDBRANCH   4  26
BRANCH   6  30
HETATM   30  N7  UNL     1      58.189  73.011 -87.980  1.00  0.00    -0.372 N
ATOM     31  H7  UNL     1      57.301  73.371 -87.628  1.00  0.00     0.161 HD
BRANCH  30  32
HETATM   32  C18 UNL     1      59.190  72.639 -87.012  1.00  0.00     0.148 C
BRANCH  32  33
HETATM   33  C19 UNL     1      58.982  71.458 -86.165  1.00  0.00     0.197 C
BRANCH  33  34
HETATM   34  O3  UNL     1      59.392  70.264 -86.709  1.00  0.00    -0.316 OA
BRANCH  34  35
HETATM   35  P1  UNL     1      58.040  69.267 -87.144  1.00  0.00     0.329 P
BRANCH  35  36
HETATM   36  O4  UNL     1      56.755  70.318 -87.700  1.00  0.00    -0.328 OA
ATOM     37  H4  UNL     1      56.264  69.852 -88.366  1.00  0.00     0.219 HD
ENDBRANCH  35  36
BRANCH  35  38
HETATM   38  O5  UNL     1      57.492  68.347 -85.766  1.00  0.00    -0.328 OA
ATOM     39  H5  UNL     1      57.002  67.584 -86.050  1.00  0.00     0.219 HD
ENDBRANCH  35  38
ENDBRANCH  34  35
ENDBRANCH  33  34
ENDBRANCH  32  33
ENDBRANCH  30  32
ENDBRANCH   6  30
BRANCH   1  40
HETATM   40  C2  UNL     1      59.354  69.822 -91.148  1.00  0.00     0.126 C
HETATM   41  C1  UNL     1      58.958  69.211 -92.233  1.00  0.00     0.033 C
ENDBRANCH   1  40
TORSDOF 18
ENDMDL