MODEL 4
REMARK VINA RESULT: -10.854345715      4.198      6.964
REMARK  6 active torsions:
REMARK  status: ('A' for Active; 'I' for Inactive)
REMARK    1  A    between atoms: O1_2  and  C2_3
REMARK    2  A    between atoms: C3_4  and  O2_5
REMARK    3  A    between atoms: C15_21  and  O6_22
REMARK    4  A    between atoms: C24_40  and  N3_41
REMARK    5  A    between atoms: C25_46  and  C26_47
REMARK    6  A    between atoms: C26_47  and  O13_48
ROOT
HETATM    1  C2  UNL     1      37.923  11.272  -5.130  1.00  0.00     0.135 A
HETATM    2  C3  UNL     1      37.314  12.464  -4.769  1.00  0.00     0.104 A
HETATM    3  C4  UNL     1      37.096  13.446  -5.710  1.00  0.00     0.078 A
HETATM    4  C5  UNL     1      37.461  13.311  -7.051  1.00  0.00     0.099 A
HETATM    5  O3  UNL     1      37.149  14.379  -7.755  1.00  0.00    -0.274 OA
HETATM    6  C6  UNL     1      37.560  14.669  -8.971  1.00  0.00     0.299 C
HETATM    7  O4  UNL     1      37.473  15.885  -9.317  1.00  0.00    -0.259 OA
HETATM    8  C7  UNL     1      38.081  13.874  -9.966  1.00  0.00     0.057 A
HETATM    9  C8  UNL     1      38.164  14.486 -11.200  1.00  0.00     0.058 A
HETATM   10  C9  UNL     1      38.653  13.855 -12.304  1.00  0.00     0.103 A
HETATM   11  C10 UNL     1      39.086  12.532 -12.171  1.00  0.00     0.104 A
HETATM   12  C11 UNL     1      39.002  11.917 -10.923  1.00  0.00     0.056 A
HETATM   13  C12 UNL     1      38.504  12.570  -9.818  1.00  0.00     0.034 A
HETATM   14  C13 UNL     1      38.499  11.789  -8.659  1.00  0.00     0.199 C
HETATM   15  O5  UNL     1      38.949  10.625  -8.779  1.00  0.00    -0.286 OA
HETATM   16  C14 UNL     1      38.065  12.118  -7.391  1.00  0.00     0.085 A
HETATM   17  C15 UNL     1      38.287  11.131  -6.453  1.00  0.00     0.119 A
HETATM   18  O7  UNL     1      39.570  11.929 -13.283  1.00  0.00    -0.332 OA
HETATM   19  C16 UNL     1      39.257  12.214 -14.639  1.00  0.00     0.131 C
HETATM   20  C17 UNL     1      38.497  13.540 -14.687  1.00  0.00     0.217 C
HETATM   21  O8  UNL     1      38.779  14.370 -13.575  1.00  0.00    -0.345 OA
HETATM   22  C18 UNL     1      40.468  12.345 -15.485  1.00  0.00     0.133 C
HETATM   23  C19 UNL     1      41.797  11.880 -15.015  1.00  0.00     0.310 C
HETATM   24  O9  UNL     1      42.521  10.919 -15.784  1.00  0.00    -0.261 OA
HETATM   25  C20 UNL     1      42.311   9.528 -15.743  1.00  0.00     0.317 C
HETATM   26  O10 UNL     1      43.134   8.635 -15.852  1.00  0.00    -0.257 OA
HETATM   27  C21 UNL     1      40.903   9.083 -15.541  1.00  0.00     0.159 A
HETATM   28  N1  UNL     1      40.151  10.102 -15.371  1.00  0.00    -0.330 N
ATOM     29  H1  UNL     1      40.504  11.058 -15.381  1.00  0.00     0.168 HD
HETATM   30  C22 UNL     1      38.901   9.817 -15.184  1.00  0.00     0.160 A
HETATM   31  O11 UNL     1      38.799   8.536 -15.231  1.00  0.00    -0.278 OA
HETATM   32  C23 UNL     1      40.051   8.047 -15.455  1.00  0.00     0.192 A
HETATM   33  N2  UNL     1      40.483   6.704 -15.590  1.00  0.00    -0.072 NA
HETATM   34  C24 UNL     1      38.205  11.153 -15.006  1.00  0.00     0.295 C
HETATM   35  O12 UNL     1      41.866  11.620 -13.643  1.00  0.00    -0.307 OA
HETATM   36  C25 UNL     1      43.209  11.639 -13.304  1.00  0.00     0.307 C
HETATM   37  O14 UNL     1      43.672  12.937 -13.508  1.00  0.00    -0.236 OA
HETATM   38  S1  UNL     1      42.972  13.288 -14.993  1.00  0.00     0.329 S
HETATM   39  O15 UNL     1      43.906  13.236 -16.129  1.00  0.00    -0.193 OA
HETATM   40  O16 UNL     1      42.229  14.574 -14.982  1.00  0.00    -0.193 OA
ENDROOT
BRANCH  34  41
HETATM   41  N3  UNL     1      37.524  11.421 -16.232  1.00  0.00    -0.065 N
ATOM     42  H33 UNL     1      37.923  10.871 -16.993  1.00  0.00     0.275 HD
ATOM     43  H32 UNL     1      36.582  11.030 -16.214  1.00  0.00     0.275 HD
ATOM     44  H31 UNL     1      37.499  12.411 -16.478  1.00  0.00     0.275 HD
ENDBRANCH  34  41
BRANCH  36  45
HETATM   45  C26 UNL     1      43.292  11.388 -11.807  1.00  0.00     0.226 C
BRANCH  45  46
HETATM   46  O13 UNL     1      44.609  11.459 -11.357  1.00  0.00    -0.396 OA
ATOM     47  H13 UNL     1      45.105  12.103 -11.848  1.00  0.00     0.209 HD
ENDBRANCH  45  46
ENDBRANCH  36  45
BRANCH  17  48
HETATM   48  O6  UNL     1      38.898   9.936  -6.822  1.00  0.00    -0.357 OA
ATOM     49  H6  UNL     1      38.588   9.516  -7.616  1.00  0.00     0.218 HD
ENDBRANCH  17  48
BRANCH   1  50
HETATM   50  O1  UNL     1      38.139  10.294  -4.182  1.00  0.00    -0.351 OA
HETATM   51  C1  UNL     1      37.279   9.227  -3.907  1.00  0.00     0.210 C
ENDBRANCH   1  50
BRANCH   2  52
HETATM   52  O2  UNL     1      36.934  12.640  -3.437  1.00  0.00    -0.358 OA
ATOM     53  H2  UNL     1      36.011  12.743  -3.239  1.00  0.00     0.217 HD
ENDBRANCH   2  52
TORSDOF 6
ENDMDL