MODEL 3
REMARK VINA RESULT: -8.891927268      1.475      1.618
REMARK  6 active torsions:
REMARK  status: ('A' for Active; 'I' for Inactive)
REMARK    1  A    between atoms: C2_2  and  C3_3
REMARK    2  A    between atoms: C3_3  and  C4_4
REMARK    3  A    between atoms: C5_7  and  O1_8
REMARK       I    between atoms: N9_37  and  C13_39
REMARK    4  A    between atoms: C13_39  and  O8_41
REMARK    5  A    between atoms: C16_44  and  C17_45
REMARK    6  A    between atoms: N13_57  and  O11_59
ROOT
HETATM    1  C4  UNL     1      37.010   7.183 -12.264  1.00  0.00     0.157 C
HETATM    2  N1  UNL     1      36.448   8.473 -12.066  1.00  0.00    -0.367 N
ATOM      3  H1  UNL     1      35.827   8.676 -11.283  1.00  0.00     0.158 HD
HETATM    4  C5  UNL     1      36.802   9.472 -13.029  1.00  0.00     0.364 C
HETATM    5  N2  UNL     1      36.581  10.818 -12.548  1.00  0.00    -0.061 N
HETATM    6  N3  UNL     1      35.432  11.507 -12.651  1.00  0.00    -0.112 N
ATOM      7  H3  UNL     1      34.578  11.159 -13.087  1.00  0.00     0.206 HD
HETATM    8  C6  UNL     1      35.574  12.713 -12.099  1.00  0.00     0.705 A
HETATM    9  N4  UNL     1      34.696  13.673 -11.997  1.00  0.00    -0.233 N
ATOM     10  H41 UNL     1      34.804  14.595 -11.575  1.00  0.00     0.174 HD
ATOM     11  H42 UNL     1      33.739  13.618 -12.346  1.00  0.00     0.174 HD
HETATM   12  N5  UNL     1      36.813  12.784 -11.647  1.00  0.00    -0.019 N
ATOM     13  H5  UNL     1      37.229  13.584 -11.171  1.00  0.00     0.203 HD
HETATM   14  C7  UNL     1      37.446  11.598 -11.928  1.00  0.00     0.722 A
HETATM   15  N6  UNL     1      38.788  11.299 -11.590  1.00  0.00    -0.133 N
ATOM     16  H6  UNL     1      39.050  11.396 -10.609  1.00  0.00     0.190 HD
HETATM   17  C8  UNL     1      39.804  10.876 -12.491  1.00  0.00     0.379 C
HETATM   18  O2  UNL     1      40.682  10.056 -12.034  1.00  0.00    -0.238 OA
HETATM   19  O3  UNL     1      39.907  11.285 -13.812  1.00  0.00    -0.302 OA
HETATM   20  C9  UNL     1      39.920  12.603 -14.273  1.00  0.00     0.197 C
HETATM   21  C10 UNL     1      41.131  12.896 -15.143  1.00  0.00     0.191 C
HETATM   22  S1  UNL     1      42.441  13.628 -14.234  1.00  0.00     0.245 S
HETATM   23  O4  UNL     1      42.974  14.804 -14.983  1.00  0.00    -0.204 OA
HETATM   24  O5  UNL     1      41.913  14.151 -12.918  1.00  0.00    -0.204 OA
HETATM   25  N7  UNL     1      43.771  12.548 -13.967  1.00  0.00    -0.224 N
ATOM     26  H7  UNL     1      44.616  12.586 -14.538  1.00  0.00     0.200 HD
HETATM   27  N8  UNL     1      43.640  11.711 -13.027  1.00  0.00    -0.255 N
ATOM     28  H8  UNL     1      42.765  11.736 -12.504  1.00  0.00     0.191 HD
HETATM   29  C11 UNL     1      44.594  10.743 -12.637  1.00  0.00     0.283 C
HETATM   30  O6  UNL     1      44.856  10.576 -11.416  1.00  0.00    -0.265 OA
HETATM   31  C12 UNL     1      45.326   9.892 -13.582  1.00  0.00     0.086 C
HETATM   32  N9  UNL     1      46.602   9.779 -13.483  1.00  0.00    -0.301 N
ATOM     33  H9  UNL     1      47.031  10.309 -12.725  1.00  0.00     0.171 HD
HETATM   34  C13 UNL     1      47.481   9.038 -14.264  1.00  0.00     0.364 C
HETATM   35  O7  UNL     1      47.350   7.809 -14.397  1.00  0.00    -0.238 OA
HETATM   36  C15 UNL     1      44.646   9.131 -14.678  1.00  0.00     0.097 C
HETATM   37  C16 UNL     1      44.005   7.884 -14.155  1.00  0.00     0.176 C
HETATM   38  N10 UNL     1      42.653   7.763 -14.688  1.00  0.00    -0.275 N
HETATM   39  C18 UNL     1      42.151   8.115 -15.878  1.00  0.00     0.202 A
HETATM   40  N11 UNL     1      40.838   7.784 -15.888  1.00  0.00    -0.338 N
ATOM     41  H11 UNL     1      40.178   7.925 -16.653  1.00  0.00     0.168 HD
HETATM   42  C19 UNL     1      40.575   7.235 -14.691  1.00  0.00     0.121 A
HETATM   43  N12 UNL     1      41.721   7.230 -13.955  1.00  0.00    -0.283 N
ATOM     44  H12 UNL     1      41.828   6.875 -13.005  1.00  0.00     0.188 HD
HETATM   45  C20 UNL     1      39.291   6.692 -14.165  1.00  0.00     0.255 C
HETATM   46  O10 UNL     1      39.377   6.612 -12.784  1.00  0.00    -0.329 OA
HETATM   47  C21 UNL     1      38.449   7.067 -11.858  1.00  0.00     0.161 C
HETATM   48  N13 UNL     1      38.852   7.369 -10.689  1.00  0.00    -0.249 N
ATOM     49  H13 UNL     1      39.854   7.245 -10.539  1.00  0.00     0.196 HD
ENDROOT
BRANCH  34  50
HETATM   50  O8  UNL     1      48.554   9.647 -14.932  1.00  0.00    -0.309 OA
HETATM   51  C14 UNL     1      48.591  11.021 -15.221  1.00  0.00     0.215 C
ENDBRANCH  34  50
BRANCH  37  52
HETATM   52  C17 UNL     1      44.009   7.822 -12.677  1.00  0.00     0.258 C
HETATM   53  O9  UNL     1      44.165   6.755 -12.121  1.00  0.00    -0.305 OA
ENDBRANCH  37  52
BRANCH   1  54
HETATM   54  C3  UNL     1      36.267   6.134 -11.470  1.00  0.00     0.033 C
BRANCH  54  55
HETATM   55  C2  UNL     1      35.881   4.919 -12.240  1.00  0.00    -0.002 C
HETATM   56  C1  UNL     1      35.011   5.212 -13.427  1.00  0.00     0.005 C
ENDBRANCH  54  55
ENDBRANCH   1  54
BRANCH  48  57
HETATM   57  O11 UNL     1      38.182   7.823  -9.625  1.00  0.00    -0.288 OA
ATOM     58  H11 UNL     1      38.277   7.623  -8.701  1.00  0.00     0.244 HD
ENDBRANCH  48  57
BRANCH   4  59
HETATM   59  O1  UNL     1      36.033   9.262 -14.204  1.00  0.00    -0.358 OA
ATOM     60  H1  UNL     1      35.157   9.600 -14.058  1.00  0.00     0.214 HD
ENDBRANCH   4  59
TORSDOF 6
ENDMDL