MODEL 4
REMARK VINA RESULT: -8.400350587      2.881      7.236
REMARK  9 active torsions:
REMARK  status: ('A' for Active; 'I' for Inactive)
REMARK    1  A    between atoms: O1_2  and  C2_3
REMARK    2  A    between atoms: C2_3  and  C3_5
REMARK    3  A    between atoms: C4_6  and  O3_8
REMARK    4  A    between atoms: C10_15  and  O5_16
REMARK    5  A    between atoms: N1_18  and  O6_19
REMARK    6  A    between atoms: O6_19  and  C11_20
REMARK    7  A    between atoms: C11_20  and  N2_22
REMARK    8  A    between atoms: C16_36  and  N5_37
REMARK    9  A    between atoms: C21_45  and  O10_46
ROOT
HETATM    1  C3  UNL     1      39.959  12.887 -12.849  1.00  0.00     0.073 C
HETATM    2  C4  UNL     1      38.902  13.862 -12.454  1.00  0.00     0.126 C
HETATM    3  C5  UNL     1      38.891  14.117 -10.918  1.00  0.00     0.058 C
HETATM    4  C6  UNL     1      37.495  13.532 -12.820  1.00  0.00     0.042 C
HETATM    5  C7  UNL     1      36.974  13.980 -14.129  1.00  0.00     0.131 C
HETATM    6  C8  UNL     1      37.880  14.624 -15.159  1.00  0.00     0.189 C
HETATM    7  O4  UNL     1      38.746  13.772 -15.560  1.00  0.00    -0.386 OA
HETATM    8  C9  UNL     1      39.886  13.650 -16.108  1.00  0.00     0.217 C
HETATM    9  C10 UNL     1      40.434  12.244 -15.956  1.00  0.00     0.244 C
HETATM   10  N1  UNL     1      40.773  11.755 -14.686  1.00  0.00    -0.129 NA
HETATM   11  C12 UNL     1      39.656  11.735 -13.708  1.00  0.00     0.165 C
HETATM   12  S2  UNL     1      38.347  11.366 -14.760  1.00  0.00    -0.060 SA
HETATM   13  S3  UNL     1      36.623  12.387 -15.027  1.00  0.00    -0.082 SA
HETATM   14  C13 UNL     1      39.684  10.495 -12.806  1.00  0.00     0.269 C
HETATM   15  N3  UNL     1      39.039  10.986 -11.550  1.00  0.00    -0.037 N
ATOM     16  H31 UNL     1      39.513  11.791 -11.142  1.00  0.00     0.281 HD
ATOM     17  H32 UNL     1      39.161  10.352 -10.761  1.00  0.00     0.281 HD
HETATM   18  C14 UNL     1      37.691  11.235 -11.859  1.00  0.00     0.339 C
HETATM   19  C15 UNL     1      37.442   9.892 -12.531  1.00  0.00     0.089 A
HETATM   20  N4  UNL     1      36.353   9.118 -12.649  1.00  0.00    -0.191 N
ATOM     21  H4  UNL     1      35.475   9.458 -12.256  1.00  0.00     0.184 HD
HETATM   22  C16 UNL     1      36.353   7.925 -13.255  1.00  0.00     0.682 A
HETATM   23  N6  UNL     1      37.498   7.497 -13.760  1.00  0.00    -0.170 N
ATOM     24  H6  UNL     1      37.522   6.590 -14.226  1.00  0.00     0.186 HD
HETATM   25  C21 UNL     1      38.653   8.228 -13.679  1.00  0.00     0.165 A
HETATM   26  C22 UNL     1      38.673   9.461 -13.061  1.00  0.00     0.054 A
HETATM   27  N7  UNL     1      37.124  12.215 -12.527  1.00  0.00    -0.355 N
HETATM   28  C23 UNL     1      35.661  12.190 -12.341  1.00  0.00     0.152 C
ENDROOT
BRANCH  10  29
HETATM   29  O6  UNL     1      41.278  10.530 -14.796  1.00  0.00    -0.221 OA
BRANCH  29  30
HETATM   30  C11 UNL     1      42.506  10.042 -15.055  1.00  0.00     0.297 C
HETATM   31  S1  UNL     1      42.639   8.634 -15.915  1.00  0.00    -0.025 SA
BRANCH  30  32
HETATM   32  N2  UNL     1      43.736  10.620 -14.660  1.00  0.00    -0.077 N
HETATM   33  O7  UNL     1      44.531  10.063 -13.685  1.00  0.00    -0.529 OA
HETATM   34  O8  UNL     1      44.209  11.745 -15.216  1.00  0.00    -0.529 OA
ENDBRANCH  30  32
ENDBRANCH  29  30
ENDBRANCH  10  29
BRANCH   9  35
HETATM   35  O5  UNL     1      41.596  12.220 -16.736  1.00  0.00    -0.377 OA
ATOM     36  H5  UNL     1      41.436  11.558 -17.399  1.00  0.00     0.211 HD
ENDBRANCH   9  35
BRANCH   1  37
HETATM   37  C2  UNL     1      41.295  13.543 -13.031  1.00  0.00     0.291 C
HETATM   38  O2  UNL     1      41.405  14.688 -13.504  1.00  0.00    -0.260 OA
BRANCH  37  39
HETATM   39  O1  UNL     1      42.499  12.962 -12.702  1.00  0.00    -0.323 OA
HETATM   40  C1  UNL     1      42.667  12.158 -11.535  1.00  0.00     0.213 C
ENDBRANCH  37  39
ENDBRANCH   1  37
BRANCH   2  41
HETATM   41  O3  UNL     1      39.248  15.130 -12.921  1.00  0.00    -0.379 OA
ATOM     42  H3  UNL     1      39.014  15.779 -12.268  1.00  0.00     0.211 HD
ENDBRANCH   2  41
BRANCH  25  43
HETATM   43  O10 UNL     1      39.760   7.629 -14.255  1.00  0.00    -0.345 OA
ATOM     44  H10 UNL     1      40.269   7.085 -13.667  1.00  0.00     0.219 HD
ENDBRANCH  25  43
BRANCH  22  45
HETATM   45  N5  UNL     1      35.132   7.196 -13.318  1.00  0.00    -0.213 N
HETATM   46  C17 UNL     1      33.944   7.720 -12.628  1.00  0.00     0.167 C
HETATM   47  C18 UNL     1      32.757   7.303 -13.455  1.00  0.00     0.188 C
HETATM   48  O9  UNL     1      32.616   5.932 -13.563  1.00  0.00    -0.388 OA
HETATM   49  C19 UNL     1      33.793   5.231 -13.430  1.00  0.00     0.188 C
HETATM   50  C20 UNL     1      34.978   5.961 -14.023  1.00  0.00     0.167 C
ENDBRANCH  22  45
TORSDOF 9
ENDMDL