MODEL 5
REMARK VINA RESULT: -9.902096558      2.969      7.137
REMARK  8 active torsions:
REMARK  status: ('A' for Active; 'I' for Inactive)
REMARK    1  A    between atoms: C2_2  and  O2_4
REMARK    2  A    between atoms: O2_4  and  C3_5
REMARK    3  A    between atoms: C4_6  and  O3_7
REMARK    4  A    between atoms: C8_12  and  O4_13
REMARK    5  A    between atoms: C21_38  and  O13_39
REMARK    6  A    between atoms: O13_39  and  C22_40
REMARK    7  A    between atoms: C22_40  and  C23_41
REMARK       I    between atoms: C23_41  and  N2_43
REMARK    8  A    between atoms: C26_49  and  O16_50
ROOT
HETATM    1  C3  UNL     1      41.361  11.962 -16.974  1.00  0.00     0.150 A
HETATM    2  C4  UNL     1      40.580  12.646 -16.078  1.00  0.00     0.130 A
HETATM    3  C5  UNL     1      39.672  12.006 -15.191  1.00  0.00     0.074 A
HETATM    4  C6  UNL     1      39.574  10.639 -15.236  1.00  0.00     0.072 A
HETATM    5  C7  UNL     1      40.344   9.920 -16.123  1.00  0.00     0.107 A
HETATM    6  C8  UNL     1      41.227  10.606 -16.981  1.00  0.00     0.136 A
HETATM    7  O5  UNL     1      40.407   8.559 -16.335  1.00  0.00    -0.344 OA
HETATM    8  C9  UNL     1      40.592   7.448 -15.472  1.00  0.00     0.203 C
HETATM    9  C10 UNL     1      41.131   7.993 -14.197  1.00  0.00    -0.002 C
HETATM   10  C11 UNL     1      42.386   7.886 -13.800  1.00  0.00    -0.001 C
HETATM   11  C12 UNL     1      43.474   7.207 -14.548  1.00  0.00     0.219 C
HETATM   12  O6  UNL     1      44.387   6.700 -13.624  1.00  0.00    -0.250 OA
HETATM   13  S1  UNL     1      43.724   5.507 -12.671  1.00  0.00     0.402 S
HETATM   14  O7  UNL     1      44.695   5.242 -11.550  1.00  0.00    -0.169 OA
HETATM   15  O8  UNL     1      43.495   4.232 -13.398  1.00  0.00    -0.169 OA
HETATM   16  O9  UNL     1      42.318   6.105 -11.982  1.00  0.00    -0.252 OA
HETATM   17  C13 UNL     1      41.669   5.094 -11.323  1.00  0.00     0.218 C
HETATM   18  C14 UNL     1      40.172   5.249 -11.581  1.00  0.00     0.195 C
HETATM   19  O10 UNL     1      39.653   6.391 -10.950  1.00  0.00    -0.387 OA
HETATM   20  C15 UNL     1      38.260   6.332 -11.135  1.00  0.00     0.193 C
HETATM   21  C16 UNL     1      37.611   7.665 -10.934  1.00  0.00     0.193 C
HETATM   22  O11 UNL     1      37.545   8.431 -12.085  1.00  0.00    -0.387 OA
HETATM   23  C17 UNL     1      36.272   9.024 -12.253  1.00  0.00     0.186 C
HETATM   24  C18 UNL     1      35.891   8.829 -13.684  1.00  0.00     0.140 C
HETATM   25  N1  UNL     1      34.809   9.627 -14.154  1.00  0.00    -0.417 N
ATOM     26  H1  UNL     1      34.021   9.219 -14.657  1.00  0.00     0.153 HD
HETATM   27  C19 UNL     1      34.883  11.026 -13.885  1.00  0.00     0.140 C
HETATM   28  C20 UNL     1      36.016  11.723 -14.655  1.00  0.00     0.198 C
HETATM   29  O12 UNL     1      36.914  12.240 -13.756  1.00  0.00    -0.315 OA
HETATM   30  C21 UNL     1      37.940  13.109 -13.750  1.00  0.00     0.265 C
HETATM   31  N4  UNL     1      39.020  12.944 -14.355  1.00  0.00    -0.314 N
ATOM     32  H4  UNL     1      39.631  13.745 -14.195  1.00  0.00     0.170 HD
ENDROOT
BRANCH  30  33
HETATM   33  O13 UNL     1      37.802  14.306 -12.995  1.00  0.00    -0.307 OA
BRANCH  33  34
HETATM   34  C22 UNL     1      38.863  14.810 -12.221  1.00  0.00     0.284 C
BRANCH  34  35
HETATM   35  C23 UNL     1      38.361  15.006 -10.809  1.00  0.00     0.269 C
HETATM   36  O14 UNL     1      38.090  16.162 -10.386  1.00  0.00    -0.269 OA
HETATM   37  N2  UNL     1      38.186  13.912  -9.942  1.00  0.00    -0.197 N
HETATM   38  N3  UNL     1      38.438  12.649 -10.274  1.00  0.00    -0.255 N
HETATM   39  C26 UNL     1      37.757  13.932  -8.689  1.00  0.00     0.170 A
HETATM   40  C24 UNL     1      38.175  11.829  -9.239  1.00  0.00     0.264 A
ATOM     41  H3  UNL     1      38.782  12.344 -11.185  1.00  0.00     0.191 HD
HETATM   42  O15 UNL     1      38.311  10.574  -9.238  1.00  0.00    -0.267 OA
HETATM   43  C25 UNL     1      37.736  12.636  -8.209  1.00  0.00     0.133 A
BRANCH  39  44
HETATM   44  O16 UNL     1      37.374  15.026  -7.916  1.00  0.00    -0.345 OA
ATOM     45  H16 UNL     1      37.655  15.262  -7.040  1.00  0.00     0.219 HD
ENDBRANCH  39  44
ENDBRANCH  34  35
ENDBRANCH  33  34
ENDBRANCH  30  33
BRANCH   2  46
HETATM   46  O3  UNL     1      40.738  14.034 -16.089  1.00  0.00    -0.356 OA
ATOM     47  H3  UNL     1      40.019  14.526 -15.712  1.00  0.00     0.218 HD
ENDBRANCH   2  46
BRANCH   1  48
HETATM   48  O2  UNL     1      42.245  12.627 -17.834  1.00  0.00    -0.273 OA
BRANCH  48  49
HETATM   49  C2  UNL     1      43.538  12.923 -17.433  1.00  0.00     0.260 C
HETATM   50  C1  UNL     1      44.636  12.044 -17.905  1.00  0.00     0.126 C
HETATM   51  O1  UNL     1      43.702  13.926 -16.689  1.00  0.00    -0.265 OA
ENDBRANCH  48  49
ENDBRANCH   1  48
BRANCH   6  52
HETATM   52  O4  UNL     1      42.044   9.942 -17.921  1.00  0.00    -0.356 OA
ATOM     53  H4  UNL     1      42.220   9.031 -17.716  1.00  0.00     0.218 HD
ENDBRANCH   6  52
TORSDOF 8
ENDMDL