MODEL 1
REMARK VINA RESULT: -12.063005593      0.000      0.000
REMARK  9 active torsions:
REMARK  status: ('A' for Active; 'I' for Inactive)
REMARK    1  A    between atoms: C4_6  and  O3_7
REMARK    2  A    between atoms: C6_10  and  O4_11
REMARK    3  A    between atoms: C12_20  and  C13_21
REMARK    4  A    between atoms: C17_27  and  O9_28
REMARK    5  A    between atoms: C18_30  and  O10_31
REMARK    6  A    between atoms: O10_31  and  C19_32
REMARK    7  A    between atoms: C23_41  and  O15_42
REMARK    8  A    between atoms: C25_47  and  O18_48
REMARK    9  A    between atoms: C26_50  and  O19_51
ROOT
HETATM    1  C13 UNL     1      39.899   9.243 -15.103  1.00  0.00     0.150 A
HETATM    2  O7  UNL     1      41.151   8.865 -15.392  1.00  0.00    -0.269 OA
HETATM    3  C14 UNL     1      42.022   9.593 -15.989  1.00  0.00     0.300 A
HETATM    4  O8  UNL     1      43.197   9.198 -16.245  1.00  0.00    -0.259 OA
HETATM    5  C15 UNL     1      41.722  10.884 -16.398  1.00  0.00     0.088 A
HETATM    6  C16 UNL     1      40.466  11.371 -16.150  1.00  0.00     0.053 A
HETATM    7  C17 UNL     1      39.545  10.515 -15.487  1.00  0.00     0.116 A
HETATM    8  C18 UNL     1      40.110  12.705 -16.571  1.00  0.00     0.110 A
HETATM    9  C24 UNL     1      41.044  13.436 -17.210  1.00  0.00     0.176 A
HETATM   10  O17 UNL     1      42.291  12.948 -17.459  1.00  0.00    -0.325 OA
HETATM   11  C25 UNL     1      42.746  11.700 -17.080  1.00  0.00     0.304 A
ENDROOT
BRANCH   1  12
HETATM   12  C12 UNL     1      39.057   8.283 -14.421  1.00  0.00     0.147 A
HETATM   13  O6  UNL     1      37.716   8.284 -14.556  1.00  0.00    -0.300 OA
HETATM   14  C11 UNL     1      37.150   7.368 -13.885  1.00  0.00     0.147 A
HETATM   15  C1  UNL     1      35.686   7.112 -13.827  1.00  0.00     0.257 C
HETATM   16  C10 UNL     1      38.128   6.669 -13.229  1.00  0.00     0.089 A
HETATM   17  O1  UNL     1      34.982   8.115 -14.104  1.00  0.00    -0.281 OA
HETATM   18  C2  UNL     1      35.016   5.870 -13.499  1.00  0.00     0.238 C
HETATM   19  O2  UNL     1      33.825   5.801 -13.834  1.00  0.00    -0.283 OA
HETATM   20  C3  UNL     1      35.591   4.697 -12.816  1.00  0.00     0.066 A
HETATM   21  C4  UNL     1      34.653   3.705 -12.734  1.00  0.00     0.083 A
HETATM   22  C8  UNL     1      36.869   4.559 -12.315  1.00  0.00     0.035 A
HETATM   23  C5  UNL     1      35.004   2.523 -12.122  1.00  0.00     0.074 A
HETATM   24  C6  UNL     1      36.284   2.355 -11.607  1.00  0.00     0.069 A
HETATM   25  C7  UNL     1      37.208   3.381 -11.710  1.00  0.00     0.053 A
HETATM   26  C9  UNL     1      37.981   5.538 -12.334  1.00  0.00     0.199 C
HETATM   27  O5  UNL     1      38.859   5.346 -11.486  1.00  0.00    -0.286 OA
HETATM   28  C26 UNL     1      39.342   7.261 -13.580  1.00  0.00     0.119 A
BRANCH  21  29
HETATM   29  O3  UNL     1      33.370   3.871 -13.249  1.00  0.00    -0.360 OA
ATOM     30  H3  UNL     1      33.183   4.525 -13.912  1.00  0.00     0.217 HD
ENDBRANCH  21  29
BRANCH  24  31
HETATM   31  O4  UNL     1      36.594   1.148 -11.001  1.00  0.00    -0.361 OA
ATOM     32  H4  UNL     1      36.940   0.449 -11.543  1.00  0.00     0.217 HD
ENDBRANCH  24  31
BRANCH  28  33
HETATM   33  O19 UNL     1      40.523   6.818 -13.114  1.00  0.00    -0.357 OA
ATOM     34  H19 UNL     1      41.345   7.249 -13.316  1.00  0.00     0.218 HD
ENDBRANCH  28  33
ENDBRANCH   1  12
BRANCH   7  35
HETATM   35  O9  UNL     1      38.327  10.965 -15.245  1.00  0.00    -0.357 OA
ATOM     36  H9  UNL     1      37.664  10.934 -15.925  1.00  0.00     0.217 HD
ENDBRANCH   7  35
BRANCH   8  37
HETATM   37  O10 UNL     1      38.870  13.248 -16.342  1.00  0.00    -0.294 OA
BRANCH  37  38
HETATM   38  C19 UNL     1      38.668  14.287 -15.408  1.00  0.00     0.419 C
HETATM   39  O11 UNL     1      37.316  14.625 -15.440  1.00  0.00    -0.336 OA
HETATM   40  C20 UNL     1      37.035  15.212 -14.209  1.00  0.00     0.217 C
HETATM   41  C21 UNL     1      38.145  14.760 -13.299  1.00  0.00     0.152 C
HETATM   42  C22 UNL     1      37.564  13.931 -12.210  1.00  0.00     0.234 C
HETATM   43  C23 UNL     1      38.810  15.960 -12.672  1.00  0.00     0.307 C
HETATM   44  O16 UNL     1      39.005  14.034 -14.117  1.00  0.00    -0.319 OA
HETATM   45  O12 UNL     1      38.526  13.769 -11.217  1.00  0.00    -0.271 OA
HETATM   46  S1  UNL     1      38.989  15.389 -10.974  1.00  0.00     0.295 S
HETATM   47  O13 UNL     1      37.992  16.017 -10.074  1.00  0.00    -0.196 OA
HETATM   48  O14 UNL     1      40.384  15.495 -10.495  1.00  0.00    -0.196 OA
BRANCH  43  49
HETATM   49  O15 UNL     1      38.066  17.109 -12.753  1.00  0.00    -0.375 OA
ATOM     50  H15 UNL     1      38.136  17.552 -13.590  1.00  0.00     0.211 HD
ENDBRANCH  43  49
ENDBRANCH  37  38
ENDBRANCH   8  37
BRANCH  11  51
HETATM   51  O18 UNL     1      43.771  11.896 -16.137  1.00  0.00    -0.366 OA
ATOM     52  H18 UNL     1      43.369  11.765 -15.286  1.00  0.00     0.213 HD
ENDBRANCH  11  51
TORSDOF 9
ENDMDL