MODEL 3
REMARK VINA RESULT: -10.154815715      5.779      9.135
REMARK  5 active torsions:
REMARK  status: ('A' for Active; 'I' for Inactive)
REMARK    1  A    between atoms: N2_7  and  N3_8
REMARK    2  A    between atoms: C6_13  and  N4_14
REMARK    3  A    between atoms: N4_14  and  O3_16
REMARK    4  A    between atoms: C7_19  and  N6_20
REMARK    5  A    between atoms: C18_41  and  O5_42
ROOT
HETATM    1  N6  UNL     1      46.548   6.523 -12.407  1.00  0.00    -0.189 N
ATOM      2  H6  UNL     1      47.277   6.103 -12.983  1.00  0.00     0.184 HD
HETATM    3  C8  UNL     1      45.645   7.031 -13.287  1.00  0.00     0.065 A
HETATM    4  C9  UNL     1      45.523   8.337 -13.376  1.00  0.00     0.080 A
HETATM    5  C10 UNL     1      44.613   9.006 -14.259  1.00  0.00     0.114 A
HETATM    6  N7  UNL     1      44.510  10.239 -14.343  1.00  0.00    -0.339 N
ATOM      7  H7  UNL     1      45.155  10.711 -13.710  1.00  0.00     0.167 HD
HETATM    8  C11 UNL     1      43.743  11.158 -15.076  1.00  0.00     0.090 A
HETATM    9  C12 UNL     1      43.338  12.330 -14.874  1.00  0.00     0.143 C
HETATM   10  O4  UNL     1      43.315  13.291 -13.871  1.00  0.00    -0.316 OA
HETATM   11  C13 UNL     1      42.083  13.505 -13.221  1.00  0.00     0.235 C
HETATM   12  C14 UNL     1      41.403  12.324 -12.576  1.00  0.00     0.071 C
HETATM   13  C15 UNL     1      39.853  12.382 -13.101  1.00  0.00     0.108 C
HETATM   14  C16 UNL     1      40.032  12.347 -14.576  1.00  0.00     0.106 C
HETATM   15  N8  UNL     1      39.286  13.668 -15.018  1.00  0.00    -0.286 N
ATOM     16  H8  UNL     1      38.687  14.357 -14.564  1.00  0.00     0.188 HD
HETATM   17  N9  UNL     1      39.855  13.464 -16.429  1.00  0.00    -0.278 N
ATOM     18  H9  UNL     1      39.546  13.323 -17.390  1.00  0.00     0.189 HD
HETATM   19  C17 UNL     1      41.140  13.586 -15.606  1.00  0.00     0.168 C
HETATM   20  S1  UNL     1      42.576  13.365 -16.378  1.00  0.00    -0.025 SA
HETATM   21  N10 UNL     1      41.017  13.844 -14.206  1.00  0.00    -0.306 N
HETATM   22  C18 UNL     1      40.077  14.148 -13.139  1.00  0.00     0.236 C
HETATM   23  N11 UNL     1      40.403  11.394 -15.459  1.00  0.00    -0.330 N
ATOM     24  H11 UNL     1      39.608  10.759 -15.533  1.00  0.00     0.168 HD
HETATM   25  C19 UNL     1      41.419  10.861 -16.353  1.00  0.00     0.114 C
HETATM   26  N12 UNL     1      41.140  10.719 -17.611  1.00  0.00    -0.385 N
ATOM     27 1H12 UNL     1      41.852  10.345 -18.238  1.00  0.00     0.157 HD
ATOM     28 2H12 UNL     1      40.222  11.088 -17.862  1.00  0.00     0.157 HD
HETATM   29  C20 UNL     1      42.789  10.310 -15.979  1.00  0.00     0.054 A
HETATM   30  C21 UNL     1      42.909   8.986 -15.920  1.00  0.00     0.116 A
HETATM   31  N13 UNL     1      43.784   8.237 -15.106  1.00  0.00    -0.306 N
HETATM   32  C22 UNL     1      43.888   6.838 -15.038  1.00  0.00     0.053 A
HETATM   33  C23 UNL     1      43.060   6.072 -15.854  1.00  0.00     0.031 A
HETATM   34  C24 UNL     1      43.150   4.699 -15.772  1.00  0.00     0.002 A
HETATM   35  C25 UNL     1      44.041   4.079 -14.902  1.00  0.00     0.001 A
HETATM   36  C26 UNL     1      44.851   4.853 -14.104  1.00  0.00     0.016 A
HETATM   37  C27 UNL     1      44.783   6.232 -14.164  1.00  0.00     0.018 A
ENDROOT
BRANCH   1  38
HETATM   38  C7  UNL     1      46.901   6.331 -11.254  1.00  0.00     0.708 A
HETATM   39  N5  UNL     1      48.253   6.117 -11.010  1.00  0.00    -0.051 N
HETATM   40  N1  UNL     1      48.742   5.904  -9.827  1.00  0.00    -0.190 N
HETATM   41  C6  UNL     1      49.135   6.128 -12.044  1.00  0.00     0.236 A
HETATM   42  C3  UNL     1      47.891   5.890  -8.792  1.00  0.00     0.148 A
HETATM   43  C4  UNL     1      50.071   5.703  -9.645  1.00  0.00     0.370 A
HETATM   44  C2  UNL     1      46.540   6.093  -8.970  1.00  0.00     0.042 A
HETATM   45  C1  UNL     1      45.654   6.051  -7.793  1.00  0.00     0.070 C
HETATM   46  N14 UNL     1      46.054   6.316 -10.219  1.00  0.00    -0.188 N
HETATM   47  C28 UNL     1      44.627   6.534 -10.309  1.00  0.00     0.175 C
HETATM   48  O1  UNL     1      50.468   5.501  -8.446  1.00  0.00    -0.242 OA
HETATM   49  N2  UNL     1      50.969   5.705 -10.634  1.00  0.00    -0.170 N
HETATM   50  C5  UNL     1      50.487   5.924 -11.872  1.00  0.00     0.318 A
HETATM   51  O2  UNL     1      51.306   5.932 -12.825  1.00  0.00    -0.262 OA
BRANCH  49  52
HETATM   52  N3  UNL     1      52.327   5.494 -10.348  1.00  0.00    -0.331 N
ATOM     53  H32 UNL     1      52.678   5.202  -9.436  1.00  0.00     0.177 HD
ATOM     54  H31 UNL     1      53.028   5.626 -11.077  1.00  0.00     0.177 HD
ENDBRANCH  49  52
BRANCH  41  55
HETATM   55  N4  UNL     1      48.719   6.332 -13.239  1.00  0.00    -0.246 N
ATOM     56  H4  UNL     1      48.107   5.653 -13.691  1.00  0.00     0.196 HD
BRANCH  55  57
HETATM   57  O3  UNL     1      49.099   7.462 -13.905  1.00  0.00    -0.288 OA
ATOM     58  H3  UNL     1      48.617   7.740 -14.675  1.00  0.00     0.244 HD
ENDBRANCH  55  57
ENDBRANCH  41  55
ENDBRANCH   1  38
BRANCH  22  59
HETATM   59  O5  UNL     1      40.503  14.268 -11.883  1.00  0.00    -0.376 OA
ATOM     60  H5  UNL     1      40.695  13.347 -11.750  1.00  0.00     0.212 HD
ENDBRANCH  22  59
TORSDOF 5
ENDMDL