MODEL 1
REMARK VINA RESULT: -10.341070708      0.000      0.000
REMARK  3 active torsions:
REMARK  status: ('A' for Active; 'I' for Inactive)
REMARK    1  A    between atoms: O1_2  and  C2_3
REMARK    2  A    between atoms: C4_5  and  O2_6
REMARK    3  A    between atoms: C14_21  and  O6_22
ROOT
HETATM    1  C2  UNL     1      36.860  11.270 -12.869  1.00  0.00     0.113 A
HETATM    2  C3  UNL     1      36.748  10.736 -14.126  1.00  0.00     0.103 A
HETATM    3  C4  UNL     1      37.320   9.522 -14.562  1.00  0.00     0.097 A
HETATM    4  C5  UNL     1      38.090   8.829 -13.623  1.00  0.00     0.069 A
HETATM    5  C6  UNL     1      38.266   9.345 -12.344  1.00  0.00     0.053 A
HETATM    6  C7  UNL     1      37.682  10.560 -11.925  1.00  0.00     0.063 A
HETATM    7  C8  UNL     1      38.365  11.269 -10.770  1.00  0.00     0.131 C
HETATM    8  O3  UNL     1      38.029  11.316  -9.504  1.00  0.00    -0.268 OA
HETATM    9  C9  UNL     1      37.738  12.500  -8.815  1.00  0.00     0.340 C
HETATM   10  O4  UNL     1      37.331  12.325  -7.675  1.00  0.00    -0.255 OA
HETATM   11  C10 UNL     1      37.884  13.761  -9.335  1.00  0.00     0.261 C
HETATM   12  O5  UNL     1      37.339  14.680  -8.670  1.00  0.00    -0.281 OA
HETATM   13  C11 UNL     1      38.562  14.179 -10.521  1.00  0.00     0.070 C
HETATM   14  C12 UNL     1      38.681  15.617 -10.602  1.00  0.00     0.118 C
HETATM   15  N1  UNL     1      39.350  16.172 -11.728  1.00  0.00    -0.114 NA
HETATM   16  C13 UNL     1      39.078  13.326 -11.557  1.00  0.00     0.121 C
HETATM   17  C14 UNL     1      39.577  12.039 -11.157  1.00  0.00     0.135 C
HETATM   18  O7  UNL     1      38.967  13.942 -12.722  1.00  0.00    -0.336 OA
HETATM   19  C15 UNL     1      39.202  13.987 -14.053  1.00  0.00     0.181 C
HETATM   20  C16 UNL     1      40.793  13.836 -14.276  1.00  0.00     0.204 C
HETATM   21  O8  UNL     1      41.040  12.496 -14.304  1.00  0.00    -0.386 OA
HETATM   22  C17 UNL     1      41.942  11.977 -15.153  1.00  0.00     0.193 C
HETATM   23  C18 UNL     1      42.596  10.699 -14.675  1.00  0.00     0.193 C
HETATM   24  O9  UNL     1      41.821   9.561 -14.875  1.00  0.00    -0.387 OA
HETATM   25  C19 UNL     1      42.428   8.453 -14.284  1.00  0.00     0.193 C
HETATM   26  C20 UNL     1      41.720   7.159 -14.487  1.00  0.00     0.193 C
HETATM   27  O10 UNL     1      41.700   6.348 -13.368  1.00  0.00    -0.387 OA
HETATM   28  C21 UNL     1      41.208   5.088 -13.516  1.00  0.00     0.189 C
HETATM   29  C22 UNL     1      39.713   4.943 -13.343  1.00  0.00     0.178 C
HETATM   30  N2  UNL     1      39.318   4.154 -12.199  1.00  0.00    -0.257 N
HETATM   31  N3  UNL     1      39.726   2.892 -11.965  1.00  0.00    -0.224 N
ATOM     32  H3  UNL     1      40.359   2.369 -12.570  1.00  0.00     0.210 HD
HETATM   33  N4  UNL     1      39.206   2.426 -10.864  1.00  0.00    -0.226 N
ATOM     34  H4  UNL     1      39.349   1.502 -10.456  1.00  0.00     0.210 HD
HETATM   35  N5  UNL     1      38.452   3.403 -10.386  1.00  0.00    -0.267 N
ATOM     36  H5  UNL     1      37.904   3.355  -9.526  1.00  0.00     0.190 HD
HETATM   37  C23 UNL     1      38.519   4.477 -11.210  1.00  0.00     0.155 A
HETATM   38  C24 UNL     1      37.810   5.791 -11.008  1.00  0.00     0.142 C
HETATM   39  N6  UNL     1      38.531   6.670 -10.177  1.00  0.00    -0.337 N
ATOM     40  H6  UNL     1      38.626   6.340  -9.216  1.00  0.00     0.168 HD
HETATM   41  C25 UNL     1      39.093   7.807 -10.391  1.00  0.00     0.192 C
HETATM   42  N7  UNL     1      39.755   8.384  -9.212  1.00  0.00    -0.063 NA
HETATM   43  N8  UNL     1      39.174   8.521 -11.610  1.00  0.00    -0.330 N
ATOM     44  H8  UNL     1      40.081   8.426 -12.066  1.00  0.00     0.168 HD
HETATM   45  C26 UNL     1      38.681  12.965 -14.928  1.00  0.00     0.082 C
HETATM   46  C27 UNL     1      37.319  12.864 -15.469  1.00  0.00     0.244 C
HETATM   47  O11 UNL     1      36.751  13.799 -16.010  1.00  0.00    -0.269 OA
HETATM   48  N9  UNL     1      36.550  11.578 -15.378  1.00  0.00    -0.319 N
ATOM     49  H9  UNL     1      35.921  11.281 -16.124  1.00  0.00     0.169 HD
ENDROOT
BRANCH   1  50
HETATM   50  O1  UNL     1      36.119  12.496 -12.476  1.00  0.00    -0.353 OA
HETATM   51  C1  UNL     1      34.714  12.557 -12.562  1.00  0.00     0.210 C
ENDBRANCH   1  50
BRANCH   3  52
HETATM   52  O2  UNL     1      37.158   8.994 -15.837  1.00  0.00    -0.358 OA
ATOM     53  H2  UNL     1      37.826   9.014 -16.512  1.00  0.00     0.217 HD
ENDBRANCH   3  52
BRANCH  17  54
HETATM   54  O6  UNL     1      40.855  11.623 -11.135  1.00  0.00    -0.356 OA
ATOM     55  H6  UNL     1      41.636  12.140 -11.292  1.00  0.00     0.218 HD
ENDBRANCH  17  54
TORSDOF 3
ENDMDL