MODEL 4
REMARK VINA RESULT: -11.391390125      0.787      1.397
REMARK  8 active torsions:
REMARK  status: ('A' for Active; 'I' for Inactive)
REMARK    1  A    between atoms: N2_9  and  C7_10
REMARK    2  A    between atoms: C7_10  and  O2_11
REMARK    3  A    between atoms: C7_10  and  N3_13
REMARK    4  A    between atoms: N4_16  and  C10_17
REMARK    5  A    between atoms: C12_19  and  O3_20
REMARK    6  A    between atoms: C13_22  and  O4_23
REMARK    7  A    between atoms: N5_28  and  O5_29
REMARK    8  A    between atoms: C17_31  and  C18_32
ROOT
HETATM    1  C18 UNL     1      38.164  13.984 -10.385  1.00  0.00     0.113 A
HETATM    2  C19 UNL     1      37.591  13.652 -11.594  1.00  0.00     0.161 A
HETATM    3  N6  UNL     1      37.928  14.611 -12.472  1.00  0.00    -0.090 N
HETATM    4  C20 UNL     1      37.565  14.685 -13.840  1.00  0.00     0.203 C
HETATM    5  N7  UNL     1      37.285  14.737 -14.957  1.00  0.00    -0.171 NA
HETATM    6  C21 UNL     1      38.684  15.518 -11.850  1.00  0.00     0.692 A
HETATM    7  N8  UNL     1      39.215  16.600 -12.337  1.00  0.00    -0.233 N
ATOM      8  H81 UNL     1      39.792  17.293 -11.861  1.00  0.00     0.174 HD
ATOM      9  H82 UNL     1      39.107  16.895 -13.307  1.00  0.00     0.174 HD
HETATM   10  N9  UNL     1      38.824  15.132 -10.579  1.00  0.00    -0.186 N
ATOM     11  H9  UNL     1      39.353  15.634  -9.867  1.00  0.00     0.184 HD
ENDROOT
BRANCH   1  12
HETATM   12  C17 UNL     1      38.037  13.183  -9.147  1.00  0.00     0.164 A
HETATM   13  N5  UNL     1      37.626  13.737  -7.917  1.00  0.00    -0.202 N
HETATM   14  C16 UNL     1      37.514  12.909  -6.746  1.00  0.00     0.118 A
HETATM   15  C11 UNL     1      37.825  11.566  -6.894  1.00  0.00     0.078 A
HETATM   16  C15 UNL     1      37.113  13.446  -5.553  1.00  0.00     0.142 A
HETATM   17  C10 UNL     1      38.208  11.050  -8.038  1.00  0.00     0.145 A
HETATM   18  C12 UNL     1      37.715  10.765  -5.759  1.00  0.00     0.116 A
HETATM   19  N10 UNL     1      38.304  11.939  -9.197  1.00  0.00    -0.323 N
ATOM     20  H10 UNL     1      38.600  11.542 -10.088  1.00  0.00     0.169 HD
HETATM   21  C13 UNL     1      37.307  11.307  -4.535  1.00  0.00     0.113 A
HETATM   22  C14 UNL     1      37.015  12.641  -4.463  1.00  0.00     0.040 A
HETATM   23  C23 UNL     1      36.628  13.148  -3.303  1.00  0.00     0.036 A
HETATM   24  C22 UNL     1      36.327  14.565  -3.261  1.00  0.00     0.115 A
HETATM   25  N11 UNL     1      36.424  15.329  -4.309  1.00  0.00    -0.272 N
HETATM   26  O6  UNL     1      36.822  14.814  -5.516  1.00  0.00    -0.235 OA
ATOM     27  H11 UNL     1      36.201  16.322  -4.232  1.00  0.00     0.194 HD
BRANCH  13  28
HETATM   28  O5  UNL     1      37.337  15.051  -7.824  1.00  0.00    -0.281 OA
ATOM     29  H5  UNL     1      37.524  15.620  -8.561  1.00  0.00     0.245 HD
ENDBRANCH  13  28
BRANCH  17  30
HETATM   30  N4  UNL     1      38.524   9.704  -8.209  1.00  0.00    -0.233 N
HETATM   31  C9  UNL     1      37.425   8.741  -8.344  1.00  0.00     0.178 C
HETATM   32  C8  UNL     1      38.030   7.352  -8.460  1.00  0.00     0.156 C
HETATM   33  N3  UNL     1      38.896   7.470  -9.735  1.00  0.00    -0.267 N
HETATM   34  C24 UNL     1      39.861   8.474  -9.563  1.00  0.00     0.379 C
HETATM   35  O7  UNL     1      39.739   9.183  -8.316  1.00  0.00    -0.193 OA
HETATM   36  N12 UNL     1      41.230   7.963  -9.549  1.00  0.00    -0.260 N
HETATM   37  O9  UNL     1      40.284   9.336 -10.567  1.00  0.00    -0.225 OA
HETATM   38  C25 UNL     1      41.615   9.251 -10.072  1.00  0.00     0.371 C
ATOM     39  H12 UNL     1      41.698   7.095  -9.289  1.00  0.00     0.172 HD
HETATM   40  O8  UNL     1      42.656   9.927 -10.064  1.00  0.00    -0.238 OA
BRANCH  33  41
HETATM   41  C7  UNL     1      38.505   6.576 -10.695  1.00  0.00     0.251 C
BRANCH  41  42
HETATM   42  N2  UNL     1      37.376   6.222 -11.433  1.00  0.00    -0.165 N
HETATM   43  C6  UNL     1      36.499   6.798 -12.227  1.00  0.00     0.356 A
HETATM   44  N1  UNL     1      35.542   5.921 -12.692  1.00  0.00    -0.257 N
HETATM   45  O1  UNL     1      36.445   7.990 -12.586  1.00  0.00    -0.244 OA
HETATM   46  C5  UNL     1      34.482   6.057 -13.502  1.00  0.00     0.103 A
HETATM   47  C26 UNL     1      35.864   4.748 -12.145  1.00  0.00     0.137 A
HETATM   48  C4  UNL     1      33.670   4.997 -13.813  1.00  0.00     0.018 A
HETATM   49  C3  UNL     1      34.004   3.775 -13.244  1.00  0.00     0.012 A
HETATM   50  C2  UNL     1      35.082   3.633 -12.418  1.00  0.00    -0.016 A
HETATM   51  C1  UNL     1      35.428   2.345 -11.822  1.00  0.00     0.052 C
HETATM   52  N13 UNL     1      36.948   4.913 -11.397  1.00  0.00    -0.271 N
ATOM     53  H13 UNL     1      37.404   4.171 -10.866  1.00  0.00     0.189 HD
ENDBRANCH  41  42
BRANCH  41  54
HETATM   54  O2  UNL     1      39.541   5.764 -11.052  1.00  0.00    -0.331 OA
ATOM     55  H2  UNL     1      40.069   5.582 -10.284  1.00  0.00     0.221 HD
ENDBRANCH  41  54
ENDBRANCH  33  41
ENDBRANCH  17  30
BRANCH  18  56
HETATM   56  O3  UNL     1      38.008   9.432  -5.837  1.00  0.00    -0.357 OA
ATOM     57  H3  UNL     1      38.846   9.152  -6.186  1.00  0.00     0.217 HD
ENDBRANCH  18  56
BRANCH  21  58
HETATM   58  O4  UNL     1      37.204  10.488  -3.414  1.00  0.00    -0.357 OA
ATOM     59  H4  UNL     1      37.016  10.870  -2.565  1.00  0.00     0.217 HD
ENDBRANCH  21  58
ENDBRANCH   1  12
TORSDOF 8
ENDMDL