MODEL 4
REMARK VINA RESULT: -10.634876027      3.326      7.959
REMARK  5 active torsions:
REMARK  status: ('A' for Active; 'I' for Inactive)
REMARK    1  A    between atoms: C3_5  and  N2_6
REMARK    2  A    between atoms: C7_18  and  O5_19
REMARK    3  A    between atoms: O5_19  and  C8_20
REMARK    4  A    between atoms: C9_23  and  N4_24
REMARK    5  A    between atoms: C10_30  and  C11_31
ROOT
HETATM    1  C1  UNL     1      36.677   7.334 -10.831  1.00  0.00     0.089 C
HETATM    2  C2  UNL     1      37.221   8.283 -11.885  1.00  0.00     0.086 C
HETATM    3  N1  UNL     1      37.254   9.524 -11.557  1.00  0.00    -0.344 N
ATOM      4  H1  UNL     1      36.911   9.734 -10.619  1.00  0.00     0.163 HD
HETATM    5  C3  UNL     1      37.697  10.645 -12.304  1.00  0.00     0.356 C
HETATM    6  S1  UNL     1      38.915  11.594 -11.313  1.00  0.00    -0.007 SA
HETATM    7  C4  UNL     1      38.423  13.271 -11.070  1.00  0.00     0.333 C
HETATM    8  O1  UNL     1      37.226  13.539 -10.798  1.00  0.00    -0.251 OA
HETATM    9  O2  UNL     1      39.345  14.281 -11.177  1.00  0.00    -0.234 OA
HETATM   10  C5  UNL     1      40.352  14.366 -12.109  1.00  0.00     0.290 C
HETATM   11  O3  UNL     1      41.517  14.806 -11.825  1.00  0.00    -0.262 OA
HETATM   12  C6  UNL     1      40.146  13.947 -13.526  1.00  0.00     0.283 C
HETATM   13  O4  UNL     1      41.263  13.199 -13.890  1.00  0.00    -0.343 OA
HETATM   14  C7  UNL     1      41.575  13.451 -15.218  1.00  0.00     0.363 C
HETATM   15  C17 UNL     1      40.506  12.925 -16.105  1.00  0.00     0.274 C
HETATM   16  O7  UNL     1      40.168  13.584 -17.135  1.00  0.00    -0.268 OA
HETATM   17  N9  UNL     1      39.822  11.702 -15.867  1.00  0.00    -0.348 N
ATOM     18  H9  UNL     1      38.821  11.655 -16.057  1.00  0.00     0.163 HD
HETATM   19  C18 UNL     1      40.501  10.502 -15.356  1.00  0.00     0.226 C
HETATM   20  C19 UNL     1      39.929   9.283 -15.981  1.00  0.00     0.249 C
HETATM   21  O8  UNL     1      40.321   8.971 -17.158  1.00  0.00    -0.271 OA
HETATM   22  N10 UNL     1      38.980   8.432 -15.382  1.00  0.00    -0.236 N
ATOM     23  H10 UNL     1      38.183   8.145 -15.950  1.00  0.00     0.183 HD
HETATM   24  S3  UNL     1      39.057   7.833 -13.765  1.00  0.00     0.326 S
HETATM   25  O9  UNL     1      39.437   6.357 -13.913  1.00  0.00    -0.182 OA
HETATM   26  O10 UNL     1      40.249   8.524 -12.855  1.00  0.00    -0.182 OA
HETATM   27  N11 UNL     1      37.648   7.840 -13.134  1.00  0.00    -0.257 N
ATOM     28  H11 UNL     1      36.912   7.458 -13.727  1.00  0.00     0.181 HD
ENDROOT
BRANCH  14  29
HETATM   29  O5  UNL     1      42.844  12.970 -15.552  1.00  0.00    -0.280 OA
BRANCH  29  30
HETATM   30  C8  UNL     1      43.581  12.181 -14.684  1.00  0.00     0.242 A
HETATM   31  N3  UNL     1      43.406  12.364 -13.354  1.00  0.00    -0.153 N
HETATM   32  C9  UNL     1      44.071  11.652 -12.434  1.00  0.00     0.702 A
ATOM     33  H3  UNL     1      42.741  13.072 -13.041  1.00  0.00     0.188 HD
HETATM   34  N5  UNL     1      44.942  10.723 -12.869  1.00  0.00    -0.062 N
HETATM   35  N6  UNL     1      45.628   9.990 -12.008  1.00  0.00    -0.261 N
HETATM   36  C16 UNL     1      45.140  10.516 -14.185  1.00  0.00     0.217 A
HETATM   37  C10 UNL     1      46.491   9.068 -12.392  1.00  0.00     0.141 A
ATOM     38  H6  UNL     1      45.484  10.142 -11.009  1.00  0.00     0.190 HD
HETATM   39  N7  UNL     1      46.719   8.827 -13.669  1.00  0.00    -0.304 N
HETATM   40  C15 UNL     1      46.043   9.552 -14.575  1.00  0.00     0.293 A
ATOM     41  H7  UNL     1      47.388   8.114 -13.958  1.00  0.00     0.171 HD
HETATM   42  O6  UNL     1      46.200   9.388 -15.822  1.00  0.00    -0.264 OA
HETATM   43  N8  UNL     1      44.453  11.251 -15.107  1.00  0.00    -0.301 N
ATOM     44  H8  UNL     1      44.598  11.096 -16.105  1.00  0.00     0.171 HD
BRANCH  32  45
HETATM   45  N4  UNL     1      43.922  11.806 -11.160  1.00  0.00    -0.233 N
ATOM     46  H42 UNL     1      44.715  12.148 -10.617  1.00  0.00     0.174 HD
ATOM     47  H41 UNL     1      43.056  11.605 -10.661  1.00  0.00     0.174 HD
ENDBRANCH  32  45
BRANCH  37  48
HETATM   48  C11 UNL     1      47.207   8.299 -11.355  1.00  0.00     0.050 A
HETATM   49  C12 UNL     1      48.518   8.397 -10.985  1.00  0.00     0.023 A
HETATM   50  C13 UNL     1      48.952   7.589 -10.011  1.00  0.00     0.009 A
HETATM   51  C14 UNL     1      48.040   6.726  -9.462  1.00  0.00     0.050 A
HETATM   52  S2  UNL     1      46.612   7.075 -10.328  1.00  0.00    -0.098 SA
ENDBRANCH  37  48
ENDBRANCH  29  30
ENDBRANCH  14  29
BRANCH   5  53
HETATM   53  N2  UNL     1      36.598  11.596 -12.568  1.00  0.00    -0.049 N
ATOM     54  H23 UNL     1      35.805  11.133 -13.013  1.00  0.00     0.277 HD
ATOM     55  H22 UNL     1      36.146  11.891 -11.703  1.00  0.00     0.277 HD
ATOM     56  H21 UNL     1      36.914  12.398 -13.114  1.00  0.00     0.277 HD
ENDBRANCH   5  53
TORSDOF 5
ENDMDL