MODEL 5
REMARK VINA RESULT: -7.912295940      1.606      8.452
REMARK  9 active torsions:
REMARK  status: ('A' for Active; 'I' for Inactive)
REMARK    1  A    between atoms: C3_3  and  N1_4
REMARK    2  A    between atoms: C3_3  and  C18_25
REMARK       I    between atoms: N1_4  and  C4_6
REMARK    3  A    between atoms: C4_6  and  C5_8
REMARK    4  A    between atoms: C5_8  and  C6_9
REMARK    5  A    between atoms: C5_8  and  N2_16
REMARK    6  A    between atoms: C6_9  and  C7_10
REMARK       I    between atoms: N2_16  and  C13_18
REMARK    7  A    between atoms: C13_18  and  O3_20
REMARK    8  A    between atoms: O3_20  and  C14_21
REMARK       I    between atoms: C18_25  and  N3_27
REMARK    9  A    between atoms: N3_27  and  C19_29
ROOT
HETATM    1  C1  UNL     1      37.446  56.319  46.786  1.00  0.00     0.015 C
HETATM    2  C2  UNL     1      36.944  57.359  46.455  1.00  0.00    -0.082 C
HETATM    3  C3  UNL     1      36.357  58.636  46.056  1.00  0.00     0.256 C
ENDROOT
BRANCH   3   4
HETATM    4  N1  UNL     1      37.288  59.448  45.344  1.00  0.00    -0.336 N
HETATM    5  C4  UNL     1      37.750  60.729  45.754  1.00  0.00     0.241 C
HETATM    6  O1  UNL     1      37.231  61.104  46.869  1.00  0.00    -0.271 OA
ATOM      7  H1  UNL     1      37.653  59.078  44.466  1.00  0.00     0.164 HD
BRANCH   5   8
HETATM    8  C5  UNL     1      38.700  61.579  45.029  1.00  0.00     0.179 C
BRANCH   8   9
HETATM    9  C6  UNL     1      39.017  61.184  43.664  1.00  0.00     0.039 C
BRANCH   9  10
HETATM   10  C7  UNL     1      38.552  61.773  42.435  1.00  0.00    -0.012 C
HETATM   11  C8  UNL     1      37.330  61.431  41.728  1.00  0.00     0.005 C
HETATM   12  C9  UNL     1      36.455  62.649  41.380  1.00  0.00     0.000 C
HETATM   13  C10 UNL     1      37.242  63.564  40.456  1.00  0.00     0.000 C
HETATM   14  C11 UNL     1      38.504  63.947  41.209  1.00  0.00     0.000 C
HETATM   15  C12 UNL     1      38.551  63.329  42.569  1.00  0.00     0.005 C
ENDBRANCH   9  10
ENDBRANCH   8   9
BRANCH   8  16
HETATM   16  N2  UNL     1      39.980  61.408  45.806  1.00  0.00    -0.324 N
HETATM   17  C13 UNL     1      41.021  62.331  45.762  1.00  0.00     0.362 C
HETATM   18  O2  UNL     1      41.015  63.387  45.086  1.00  0.00    -0.238 OA
ATOM     19  H2  UNL     1      40.089  60.580  46.391  1.00  0.00     0.165 HD
BRANCH  17  20
HETATM   20  O3  UNL     1      42.151  62.091  46.508  1.00  0.00    -0.294 OA
BRANCH  20  21
HETATM   21  C14 UNL     1      43.109  61.134  46.207  1.00  0.00     0.061 C
HETATM   22  C15 UNL     1      42.490  59.831  45.728  1.00  0.00     0.046 C
HETATM   23  C16 UNL     1      44.084  61.564  45.133  1.00  0.00     0.046 C
HETATM   24  C17 UNL     1      43.920  60.844  47.443  1.00  0.00     0.046 C
ENDBRANCH  20  21
ENDBRANCH  17  20
ENDBRANCH   8  16
ENDBRANCH   5   8
ENDBRANCH   3   4
BRANCH   3  25
HETATM   25  C18 UNL     1      35.091  58.380  45.329  1.00  0.00     0.253 C
HETATM   26  O4  UNL     1      35.089  57.687  44.300  1.00  0.00    -0.270 OA
HETATM   27  N3  UNL     1      33.887  58.930  45.816  1.00  0.00    -0.350 N
ATOM     28  H3  UNL     1      33.920  59.496  46.665  1.00  0.00     0.163 HD
BRANCH  27  29
HETATM   29  C19 UNL     1      32.605  58.729  45.168  1.00  0.00     0.022 C
HETATM   30  C20 UNL     1      32.508  59.529  43.882  1.00  0.00     0.037 C
HETATM   31  C21 UNL     1      31.516  59.192  46.120  1.00  0.00     0.037 C
HETATM   32  C22 UNL     1      32.399  57.274  44.880  1.00  0.00     0.037 C
ENDBRANCH  27  29
ENDBRANCH   3  25
TORSDOF 9
ENDMDL