MODEL 5
REMARK VINA RESULT: -8.609464684      3.002      9.013
REMARK  9 active torsions:
REMARK  status: ('A' for Active; 'I' for Inactive)
REMARK    1  A    between atoms: C2_2  and  C3_3
REMARK    2  A    between atoms: C3_3  and  O1_4
REMARK    3  A    between atoms: N1_6  and  C4_8
REMARK    4  A    between atoms: C5_11  and  C6_12
REMARK    5  A    between atoms: C12_20  and  N4_21
REMARK    6  A    between atoms: N4_21  and  C13_22
REMARK    7  A    between atoms: C16_25  and  C17_26
REMARK    8  A    between atoms: C17_26  and  N5_27
REMARK    9  A    between atoms: N5_27  and  O2_28
REMARK       I    between atoms: N5_27  and  C18_30
ROOT
HETATM    1  C4  UNL     1      36.554  58.693  47.412  1.00  0.00     0.166 A
HETATM    2  N2  UNL     1      37.661  58.285  48.150  1.00  0.00    -0.340 N
ATOM      3  H2  UNL     1      37.809  58.695  49.072  1.00  0.00     0.167 HD
HETATM    4  C5  UNL     1      38.526  57.395  47.714  1.00  0.00     0.030 A
HETATM    5  C11 UNL     1      38.346  56.833  46.477  1.00  0.00     0.116 A
HETATM    6  N3  UNL     1      37.313  57.193  45.749  1.00  0.00    -0.337 N
ATOM      7  H3  UNL     1      37.201  56.762  44.832  1.00  0.00     0.168 HD
HETATM    8  C12 UNL     1      36.370  58.119  46.148  1.00  0.00     0.217 A
ENDROOT
BRANCH   8   9
HETATM    9  N4  UNL     1      35.452  58.352  45.397  1.00  0.00    -0.422 NA
BRANCH   9  10
HETATM   10  C13 UNL     1      34.457  58.620  44.561  1.00  0.00     0.165 C
HETATM   11  C14 UNL     1      33.753  57.360  44.042  1.00  0.00     0.040 C
HETATM   12  C15 UNL     1      32.429  57.842  43.481  1.00  0.00     0.009 C
HETATM   13  C16 UNL     1      32.750  58.562  42.180  1.00  0.00     0.006 C
HETATM   14  C20 UNL     1      34.138  59.022  42.108  1.00  0.00     0.009 C
HETATM   15  C21 UNL     1      34.770  59.530  43.375  1.00  0.00     0.040 C
BRANCH  13  16
HETATM   16  C17 UNL     1      31.651  59.480  41.767  1.00  0.00     0.163 C
BRANCH  16  17
HETATM   17  N5  UNL     1      31.990  60.770  41.291  1.00  0.00    -0.229 N
HETATM   18  C18 UNL     1      32.378  61.107  39.994  1.00  0.00     0.239 C
HETATM   19  C19 UNL     1      32.452  60.156  38.834  1.00  0.00     0.119 C
HETATM   20  O3  UNL     1      32.695  62.340  39.775  1.00  0.00    -0.272 OA
BRANCH  17  21
HETATM   21  O2  UNL     1      31.908  61.799  42.211  1.00  0.00    -0.285 OA
ATOM     22  H2  UNL     1      31.208  62.426  42.075  1.00  0.00     0.245 HD
ENDBRANCH  17  21
ENDBRANCH  16  17
ENDBRANCH  13  16
ENDBRANCH   9  10
ENDBRANCH   8   9
BRANCH   1  23
HETATM   23  N1  UNL     1      35.800  59.527  47.861  1.00  0.00    -0.319 N
HETATM   24  C3  UNL     1      34.677  59.941  48.399  1.00  0.00     0.140 C
ATOM     25  H1  UNL     1      36.338  60.388  47.770  1.00  0.00     0.169 HD
BRANCH  24  26
HETATM   26  C2  UNL     1      34.595  60.593  49.756  1.00  0.00     0.046 C
HETATM   27  C1  UNL     1      34.222  61.845  49.799  1.00  0.00     0.015 C
ENDBRANCH  24  26
BRANCH  24  28
HETATM   28  O1  UNL     1      33.513  59.842  47.828  1.00  0.00    -0.346 OA
ATOM     29  H1  UNL     1      33.486  59.143  47.185  1.00  0.00     0.219 HD
ENDBRANCH  24  28
ENDBRANCH   1  23
BRANCH   4  30
HETATM   30  C6  UNL     1      39.670  57.001  48.532  1.00  0.00     0.037 C
HETATM   31  C7  UNL     1      40.236  58.144  49.374  1.00  0.00     0.011 C
HETATM   32  C8  UNL     1      41.535  57.472  49.842  1.00  0.00     0.001 C
HETATM   33  C9  UNL     1      42.086  56.978  48.513  1.00  0.00     0.001 C
HETATM   34  C10 UNL     1      40.866  56.607  47.695  1.00  0.00     0.011 C
ENDBRANCH   4  30
TORSDOF 9
ENDMDL