MODEL 2
REMARK VINA RESULT: -8.549207400      1.813      2.137
REMARK  6 active torsions:
REMARK  status: ('A' for Active; 'I' for Inactive)
REMARK    1  A    between atoms: C2_2  and  C3_3
REMARK    2  A    between atoms: C2_2  and  C23_30
REMARK    3  A    between atoms: C4_4  and  C5_6
REMARK       I    between atoms: C5_6  and  N1_8
REMARK    4  A    between atoms: N1_8  and  C6_10
REMARK    5  A    between atoms: C11_15  and  C12_16
REMARK    6  A    between atoms: C12_16  and  O2_18
ROOT
HETATM    1  C6  UNL     1      37.344  58.968  46.028  1.00  0.00     0.042 C
HETATM    2  C7  UNL     1      37.492  57.535  45.482  1.00  0.00     0.038 C
HETATM    3  C8  UNL     1      37.946  56.519  46.441  1.00  0.00     0.012 C
HETATM    4  C9  UNL     1      36.887  56.409  47.514  1.00  0.00     0.012 C
HETATM    5  C10 UNL     1      37.248  57.723  48.243  1.00  0.00     0.005 C
HETATM    6  C11 UNL     1      36.696  58.794  47.390  1.00  0.00     0.047 C
HETATM    7  C14 UNL     1      38.692  57.472  48.426  1.00  0.00    -0.023 C
HETATM    8  C15 UNL     1      38.687  56.228  49.372  1.00  0.00     0.017 C
HETATM    9  C16 UNL     1      39.475  58.444  49.212  1.00  0.00     0.017 C
HETATM   10  C17 UNL     1      39.209  57.002  47.131  1.00  0.00     0.091 C
HETATM   11  N2  UNL     1      40.057  57.773  46.368  1.00  0.00    -0.403 N
HETATM   12  C18 UNL     1      41.062  57.068  45.615  1.00  0.00     0.118 C
HETATM   13  C19 UNL     1      41.520  58.007  44.548  1.00  0.00     0.021 C
HETATM   14  C20 UNL     1      40.491  59.082  44.551  1.00  0.00     0.026 C
HETATM   15  C21 UNL     1      39.895  59.052  45.968  1.00  0.00     0.082 C
HETATM   16  C22 UNL     1      38.593  59.746  45.978  1.00  0.00     0.056 C
ENDROOT
BRANCH   1  17
HETATM   17  N1  UNL     1      36.467  59.567  45.041  1.00  0.00    -0.345 N
HETATM   18  C5  UNL     1      35.201  59.192  44.567  1.00  0.00     0.280 C
HETATM   19  O1  UNL     1      34.669  58.209  45.034  1.00  0.00    -0.265 OA
ATOM     20  H1  UNL     1      36.838  60.416  44.614  1.00  0.00     0.163 HD
BRANCH  18  21
HETATM   21  C4  UNL     1      34.556  59.969  43.543  1.00  0.00     0.184 C
HETATM   22  C3  UNL     1      33.537  59.897  42.792  1.00  0.00     0.065 C
HETATM   23  F1  UNL     1      35.277  61.213  43.274  1.00  0.00    -0.200 F
BRANCH  22  24
HETATM   24  C2  UNL     1      32.410  59.095  42.447  1.00  0.00     0.034 C
HETATM   25  C1  UNL     1      31.706  59.557  41.353  1.00  0.00     0.030 C
BRANCH  24  26
HETATM   26  C23 UNL     1      31.842  57.902  42.993  1.00  0.00     0.208 C
HETATM   27  O3  UNL     1      30.706  57.599  43.362  1.00  0.00    -0.644 OA
HETATM   28  O4  UNL     1      32.726  56.765  43.186  1.00  0.00    -0.644 OA
ENDBRANCH  24  26
ENDBRANCH  22  24
ENDBRANCH  18  21
ENDBRANCH   1  17
BRANCH   6  29
HETATM   29  C12 UNL     1      36.180  59.980  48.098  1.00  0.00     0.120 C
HETATM   30  C13 UNL     1      34.732  59.703  48.610  1.00  0.00     0.040 C
BRANCH  29  31
HETATM   31  O2  UNL     1      36.783  60.360  49.279  1.00  0.00    -0.395 OA
ATOM     32  H2  UNL     1      37.687  60.109  49.431  1.00  0.00     0.210 HD
ENDBRANCH  29  31
ENDBRANCH   6  29
TORSDOF 6
ENDMDL