MODEL 3
REMARK VINA RESULT: -8.822056318      1.368      2.102
REMARK  6 active torsions:
REMARK  status: ('A' for Active; 'I' for Inactive)
REMARK    1  A    between atoms: O1_2  and  C2_3
REMARK    2  A    between atoms: C7_9  and  N1_10
REMARK       I    between atoms: N1_10  and  C8_12
REMARK       I    between atoms: C8_12  and  N2_14
REMARK    3  A    between atoms: C11_17  and  C12_18
REMARK    4  A    between atoms: C12_18  and  C13_19
REMARK       I    between atoms: C13_19  and  N3_21
REMARK    5  A    between atoms: N3_21  and  C14_23
REMARK    6  A    between atoms: C16_25  and  C17_26
ROOT
HETATM    1  N1  UNL     1      33.457  60.082  40.403  1.00  0.00    -0.306 N
ATOM      2  H1  UNL     1      34.309  59.535  40.526  1.00  0.00     0.171 HD
HETATM    3  C8  UNL     1      32.372  59.680  41.189  1.00  0.00     0.323 C
HETATM    4  O2  UNL     1      31.261  60.310  41.100  1.00  0.00    -0.247 OA
HETATM    5  N2  UNL     1      32.449  58.592  42.092  1.00  0.00    -0.334 N
HETATM    6  C9  UNL     1      33.618  57.815  42.278  1.00  0.00     0.128 C
HETATM    7  C10 UNL     1      34.020  58.065  43.728  1.00  0.00     0.025 C
HETATM    8  C11 UNL     1      32.976  57.582  44.692  1.00  0.00    -0.003 C
HETATM    9  C19 UNL     1      31.591  57.569  44.178  1.00  0.00     0.025 C
HETATM   10  C20 UNL     1      31.297  58.220  42.889  1.00  0.00     0.128 C
ENDROOT
BRANCH   1  11
HETATM   11  C7  UNL     1      33.547  61.137  39.462  1.00  0.00     0.071 A
HETATM   12  C2  UNL     1      32.930  60.959  38.203  1.00  0.00     0.095 A
HETATM   13  C3  UNL     1      33.014  61.976  37.295  1.00  0.00     0.041 A
HETATM   14  C4  UNL     1      33.664  63.160  37.536  1.00  0.00     0.026 A
HETATM   15  C5  UNL     1      34.264  63.353  38.742  1.00  0.00     0.036 A
HETATM   16 CL1  UNL     1      35.108  64.847  39.106  1.00  0.00    -0.084 Cl
HETATM   17  C6  UNL     1      34.192  62.319  39.697  1.00  0.00     0.056 A
BRANCH  12  18
HETATM   18  O1  UNL     1      32.267  59.781  37.924  1.00  0.00    -0.354 OA
HETATM   19  C1  UNL     1      31.410  59.611  36.823  1.00  0.00     0.210 C
ENDBRANCH  12  18
ENDBRANCH   1  11
BRANCH   8  20
HETATM   20  C12 UNL     1      33.462  56.256  45.234  1.00  0.00     0.107 C
BRANCH  20  21
HETATM   21  C13 UNL     1      34.924  56.223  45.486  1.00  0.00     0.218 C
HETATM   22  O3  UNL     1      35.673  55.635  44.671  1.00  0.00    -0.274 OA
HETATM   23  N3  UNL     1      35.455  56.846  46.628  1.00  0.00    -0.356 N
ATOM     24  H3  UNL     1      34.808  57.312  47.265  1.00  0.00     0.162 HD
BRANCH  23  25
HETATM   25  C14 UNL     1      36.861  56.865  46.953  1.00  0.00     0.086 C
HETATM   26  C15 UNL     1      37.146  57.678  48.181  1.00  0.00     0.040 C
HETATM   27  C16 UNL     1      37.843  56.496  48.791  1.00  0.00     0.090 C
HETATM   28  C18 UNL     1      37.386  55.645  47.652  1.00  0.00     0.040 C
BRANCH  27  29
HETATM   29  C17 UNL     1      39.318  56.732  48.829  1.00  0.00     0.177 C
HETATM   30  O4  UNL     1      39.733  57.643  49.589  1.00  0.00    -0.648 OA
HETATM   31  O5  UNL     1      40.112  55.945  48.039  1.00  0.00    -0.648 OA
ENDBRANCH  27  29
ENDBRANCH  23  25
ENDBRANCH  20  21
ENDBRANCH   8  20
TORSDOF 6
ENDMDL