MODEL 1
REMARK VINA RESULT: -9.091859974      0.000      0.000
REMARK  6 active torsions:
REMARK  status: ('A' for Active; 'I' for Inactive)
REMARK       I    between atoms: C1_2  and  N1_3
REMARK    1  A    between atoms: C1_2  and  C13_18
REMARK    2  A    between atoms: N1_3  and  C2_5
REMARK    3  A    between atoms: C5_8  and  C6_9
REMARK    4  A    between atoms: C6_9  and  N2_10
REMARK       I    between atoms: N2_10  and  C7_11
REMARK    5  A    between atoms: C7_11  and  C8_13
REMARK    6  A    between atoms: C20_26  and  C21_27
ROOT
HETATM    1  O1  UNL     1      35.180  59.299  40.473  1.00  0.00    -0.268 OA
HETATM    2  C1  UNL     1      34.386  60.254  40.810  1.00  0.00     0.254 C
HETATM    3  N1  UNL     1      33.754  60.120  42.048  1.00  0.00    -0.352 N
ATOM      4  H1  UNL     1      33.134  60.870  42.351  1.00  0.00     0.163 HD
ENDROOT
BRANCH   2   5
HETATM    5  C13 UNL     1      34.268  61.340  39.854  1.00  0.00     0.062 A
HETATM    6  C14 UNL     1      33.286  61.246  38.845  1.00  0.00     0.050 A
HETATM    7 CL1  UNL     1      32.307  59.802  38.758  1.00  0.00    -0.083 Cl
HETATM    8  C15 UNL     1      33.124  62.272  37.962  1.00  0.00     0.028 A
HETATM    9  C16 UNL     1      33.921  63.387  38.068  1.00  0.00     0.039 A
HETATM   10  C17 UNL     1      34.878  63.481  39.052  1.00  0.00     0.076 A
HETATM   11  C18 UNL     1      35.063  62.438  39.974  1.00  0.00    -0.006 A
HETATM   12  O5  UNL     1      35.698  64.593  39.186  1.00  0.00    -0.350 OA
HETATM   13  C19 UNL     1      36.082  62.705  41.009  1.00  0.00     0.060 C
HETATM   14  C20 UNL     1      37.327  63.179  40.234  1.00  0.00     0.115 C
HETATM   15  C22 UNL     1      37.003  64.583  39.706  1.00  0.00     0.191 C
BRANCH  14  16
HETATM   16  C21 UNL     1      38.516  63.170  41.069  1.00  0.00     0.179 C
HETATM   17  O3  UNL     1      39.021  62.086  41.454  1.00  0.00    -0.648 OA
HETATM   18  O4  UNL     1      39.121  64.344  41.464  1.00  0.00    -0.648 OA
ENDBRANCH  14  16
ENDBRANCH   2   5
BRANCH   3  19
HETATM   19  C2  UNL     1      33.921  58.988  42.924  1.00  0.00     0.084 C
HETATM   20  C3  UNL     1      33.804  59.449  44.373  1.00  0.00     0.026 C
HETATM   21  C4  UNL     1      34.311  58.331  45.284  1.00  0.00     0.013 C
HETATM   22  C5  UNL     1      34.055  57.000  44.666  1.00  0.00     0.038 C
HETATM   23  C11 UNL     1      32.738  57.038  43.953  1.00  0.00     0.013 C
HETATM   24  C12 UNL     1      32.971  57.867  42.678  1.00  0.00     0.026 C
BRANCH  22  25
HETATM   25  C6  UNL     1      34.281  55.802  45.535  1.00  0.00     0.163 C
BRANCH  25  26
HETATM   26  N2  UNL     1      35.418  55.666  46.248  1.00  0.00    -0.387 NA
HETATM   27  C7  UNL     1      36.591  55.524  46.982  1.00  0.00     0.295 C
HETATM   28  O2  UNL     1      36.993  54.446  47.513  1.00  0.00    -0.257 OA
BRANCH  27  29
HETATM   29  C8  UNL     1      37.505  56.717  47.201  1.00  0.00     0.093 A
HETATM   30  C9  UNL     1      36.931  57.879  47.957  1.00  0.00     0.016 A
HETATM   31  C10 UNL     1      37.892  56.946  48.633  1.00  0.00     0.016 A
ENDBRANCH  27  29
ENDBRANCH  25  26
ENDBRANCH  22  25
ENDBRANCH   3  19
TORSDOF 6
ENDMDL