MODEL 5
REMARK VINA RESULT: -8.216979699      3.105      4.948
REMARK  9 active torsions:
REMARK  status: ('A' for Active; 'I' for Inactive)
REMARK       I    between atoms: C2_2  and  N1_4
REMARK    1  A    between atoms: N1_4  and  C3_6
REMARK    2  A    between atoms: C3_6  and  C4_7
REMARK    3  A    between atoms: C3_6  and  C19_29
REMARK    4  A    between atoms: C4_7  and  C5_8
REMARK    5  A    between atoms: C5_8  and  C6_9
REMARK    6  A    between atoms: C6_9  and  C7_10
REMARK    7  A    between atoms: C8_11  and  C9_12
REMARK    8  A    between atoms: C17_23  and  O2_24
REMARK    9  A    between atoms: C18_26  and  O3_27
ROOT
HETATM    1  C9  UNL     1      33.561  58.289  45.478  1.00  0.00     0.043 C
HETATM    2  C10 UNL     1      34.960  58.067  45.109  1.00  0.00     0.072 C
HETATM    3  N2  UNL     1      35.273  56.852  45.337  1.00  0.00    -0.401 N
ATOM      4  H2  UNL     1      36.196  56.455  45.161  1.00  0.00     0.158 HD
HETATM    5  C11 UNL     1      34.167  56.112  45.873  1.00  0.00     0.125 C
HETATM    6  C12 UNL     1      32.963  56.920  45.357  1.00  0.00     0.034 C
HETATM    7  C13 UNL     1      32.566  56.507  43.989  1.00  0.00    -0.008 C
HETATM    8  C14 UNL     1      33.711  56.082  43.108  1.00  0.00     0.018 C
HETATM    9  C15 UNL     1      31.662  55.273  44.133  1.00  0.00     0.018 C
HETATM   10  C16 UNL     1      31.760  57.555  43.303  1.00  0.00     0.209 C
HETATM   11  F1  UNL     1      30.501  57.641  43.883  1.00  0.00    -0.246 F
HETATM   12  C17 UNL     1      32.369  58.926  43.352  1.00  0.00     0.182 C
HETATM   13  C18 UNL     1      32.865  59.338  44.681  1.00  0.00     0.167 C
ENDROOT
BRANCH   1  14
HETATM   14  C8  UNL     1      33.536  58.724  46.896  1.00  0.00    -0.013 C
HETATM   15  C7  UNL     1      34.590  59.338  47.394  1.00  0.00    -0.029 C
BRANCH  15  16
HETATM   16  C6  UNL     1      34.664  59.816  48.807  1.00  0.00     0.027 C
BRANCH  16  17
HETATM   17  C5  UNL     1      36.139  59.808  49.215  1.00  0.00     0.006 C
BRANCH  17  18
HETATM   18  C4  UNL     1      36.984  59.655  47.984  1.00  0.00     0.026 C
BRANCH  18  19
HETATM   19  C3  UNL     1      38.053  58.640  48.175  1.00  0.00     0.088 C
BRANCH  19  20
HETATM   20  N1  UNL     1      37.645  57.401  47.562  1.00  0.00    -0.356 N
HETATM   21  C2  UNL     1      37.574  56.227  48.338  1.00  0.00     0.213 C
HETATM   22  C1  UNL     1      37.158  54.918  47.754  1.00  0.00     0.117 C
HETATM   23  O1  UNL     1      37.865  56.254  49.564  1.00  0.00    -0.274 OA
ATOM     24  H1  UNL     1      37.409  57.374  46.571  1.00  0.00     0.162 HD
ENDBRANCH  19  20
BRANCH  19  25
HETATM   25  C19 UNL     1      39.380  59.030  47.584  1.00  0.00     0.008 C
HETATM   26  C20 UNL     1      39.522  58.503  46.171  1.00  0.00     0.007 C
HETATM   27  C21 UNL     1      40.695  59.185  45.544  1.00  0.00     0.000 C
HETATM   28  C22 UNL     1      41.929  59.214  46.347  1.00  0.00     0.000 C
HETATM   29  C23 UNL     1      41.822  59.056  47.803  1.00  0.00     0.000 C
HETATM   30  C24 UNL     1      40.556  58.498  48.341  1.00  0.00     0.007 C
ENDBRANCH  19  25
ENDBRANCH  18  19
ENDBRANCH  17  18
ENDBRANCH  16  17
ENDBRANCH  15  16
ENDBRANCH   1  14
BRANCH  13  31
HETATM   31  O3  UNL     1      31.820  59.850  45.463  1.00  0.00    -0.391 OA
ATOM     32  H3  UNL     1      31.695  60.761  45.223  1.00  0.00     0.210 HD
ENDBRANCH  13  31
BRANCH  12  33
HETATM   33  O2  UNL     1      33.363  59.112  42.388  1.00  0.00    -0.390 OA
ATOM     34  H2  UNL     1      33.859  59.911  42.521  1.00  0.00     0.210 HD
ENDBRANCH  12  33
TORSDOF 9
ENDMDL