MODEL 3
REMARK VINA RESULT: -7.527760206      3.813      7.691
REMARK  8 active torsions:
REMARK  status: ('A' for Active; 'I' for Inactive)
REMARK    1  A    between atoms: C2_2  and  O1_4
REMARK    2  A    between atoms: C2_2  and  C4_6
REMARK    3  A    between atoms: C4_6  and  C5_7
REMARK    4  A    between atoms: C7_11  and  N2_12
REMARK    5  A    between atoms: N2_12  and  C8_14
REMARK    6  A    between atoms: C8_14  and  C9_15
REMARK    7  A    between atoms: C9_15  and  N3_16
REMARK    8  A    between atoms: C15_22  and  C16_23
ROOT
HETATM    1  C5  UNL     1      32.404  60.318  38.326  1.00  0.00     0.028 A
HETATM    2  C6  UNL     1      31.456  60.050  39.289  1.00  0.00     0.114 A
HETATM    3  N1  UNL     1      31.680  60.511  40.525  1.00  0.00    -0.349 N
ATOM      4  H1  UNL     1      30.994  60.326  41.257  1.00  0.00     0.167 HD
HETATM    5  C7  UNL     1      32.807  61.223  40.831  1.00  0.00     0.130 A
HETATM    6  C15 UNL     1      33.759  61.498  39.888  1.00  0.00     0.103 A
HETATM    7  N5  UNL     1      33.512  61.020  38.631  1.00  0.00    -0.353 N
ATOM      8  H5  UNL     1      34.195  61.201  37.895  1.00  0.00     0.166 HD
ENDROOT
BRANCH   5   9
HETATM    9  N2  UNL     1      32.966  61.641  42.035  1.00  0.00    -0.373 N
ATOM     10  H2  UNL     1      33.212  62.615  42.215  1.00  0.00     0.161 HD
BRANCH   9  11
HETATM   11  C8  UNL     1      32.792  60.719  43.130  1.00  0.00     0.151 C
BRANCH  11  12
HETATM   12  C9  UNL     1      34.008  59.822  43.146  1.00  0.00     0.292 C
BRANCH  12  13
HETATM   13  N3  UNL     1      33.749  58.521  43.685  1.00  0.00     0.090 N
HETATM   14  C10 UNL     1      34.371  58.306  44.976  1.00  0.00     0.272 C
HETATM   15  C11 UNL     1      34.504  56.800  45.142  1.00  0.00     0.030 C
HETATM   16  C12 UNL     1      33.112  56.230  45.133  1.00  0.00     0.003 C
HETATM   17  C13 UNL     1      32.325  56.628  43.910  1.00  0.00     0.030 C
HETATM   18  C14 UNL     1      32.363  58.141  43.681  1.00  0.00     0.272 C
ENDBRANCH  12  13
ENDBRANCH  11  12
ENDBRANCH   9  11
ENDBRANCH   5   9
BRANCH   6  19
HETATM   19  C16 UNL     1      34.984  62.251  40.136  1.00  0.00     0.064 A
HETATM   20  C17 UNL     1      36.116  61.882  40.754  1.00  0.00     0.052 A
HETATM   21  C18 UNL     1      37.054  62.933  40.771  1.00  0.00     0.028 A
HETATM   22 BR1  UNL     1      38.798  62.930  41.515  1.00  0.00    -0.050 Br
HETATM   23  C19 UNL     1      36.411  63.960  40.123  1.00  0.00     0.107 A
HETATM   24  N4  UNL     1      35.196  63.551  39.752  1.00  0.00    -0.363 N
ATOM     25  H4  UNL     1      34.517  64.127  39.253  1.00  0.00     0.165 HD
ENDBRANCH   6  19
BRANCH   1  26
HETATM   26  C4  UNL     1      32.306  59.899  36.918  1.00  0.00     0.095 C
BRANCH  26  27
HETATM   27  C2  UNL     1      32.102  60.950  35.910  1.00  0.00     0.056 C
HETATM   28  C1  UNL     1      30.899  60.490  35.052  1.00  0.00     0.045 C
HETATM   29  C3  UNL     1      33.257  60.959  34.905  1.00  0.00     0.045 C
BRANCH  27  30
HETATM   30  O1  UNL     1      31.755  62.197  36.358  1.00  0.00    -0.390 OA
ATOM     31  H1  UNL     1      32.089  62.793  35.697  1.00  0.00     0.210 HD
ENDBRANCH  27  30
ENDBRANCH  26  27
ENDBRANCH   1  26
TORSDOF 8
ENDMDL