MODEL 5
REMARK VINA RESULT: -8.356978861      3.360      5.153
REMARK  7 active torsions:
REMARK  status: ('A' for Active; 'I' for Inactive)
REMARK    1  A    between atoms: C6_9  and  N3_10
REMARK    2  A    between atoms: C9_15  and  N4_16
REMARK       I    between atoms: N4_16  and  C10_18
REMARK    3  A    between atoms: C10_18  and  C11_20
REMARK    4  A    between atoms: C11_20  and  C12_21
REMARK    5  A    between atoms: C12_21  and  S1_22
REMARK    6  A    between atoms: S1_22  and  C13_25
REMARK    7  A    between atoms: C13_25  and  C14_26
ROOT
HETATM    1  N1  UNL     1      32.352  59.288  44.620  1.00  0.00    -0.191 NA
HETATM    2  C1  UNL     1      32.899  59.895  43.795  1.00  0.00     0.103 C
HETATM    3  C2  UNL     1      33.585  60.629  42.756  1.00  0.00     0.088 A
HETATM    4  C3  UNL     1      34.974  60.743  42.764  1.00  0.00     0.037 A
HETATM    5  C4  UNL     1      35.640  61.441  41.779  1.00  0.00    -0.011 A
HETATM    6  C5  UNL     1      34.849  62.013  40.794  1.00  0.00     0.019 A
HETATM    7  N2  UNL     1      33.510  61.885  40.812  1.00  0.00    -0.344 N
ATOM      8  H2  UNL     1      32.973  62.325  40.065  1.00  0.00     0.167 HD
HETATM    9  C6  UNL     1      32.840  61.207  41.767  1.00  0.00     0.120 A
HETATM   10  C7  UNL     1      35.738  62.717  39.829  1.00  0.00     0.060 C
HETATM   11  C8  UNL     1      36.917  63.079  40.737  1.00  0.00     0.036 C
HETATM   12  C9  UNL     1      37.076  61.753  41.492  1.00  0.00     0.120 C
ENDROOT
BRANCH   9  13
HETATM   13  N3  UNL     1      31.559  61.096  41.768  1.00  0.00    -0.384 N
ATOM     14  H32 UNL     1      31.084  60.208  41.928  1.00  0.00     0.157 HD
ATOM     15  H31 UNL     1      30.970  61.913  41.605  1.00  0.00     0.157 HD
ENDBRANCH   9  13
BRANCH  12  16
HETATM   16  N4  UNL     1      37.808  61.914  42.705  1.00  0.00    -0.352 N
HETATM   17  C10 UNL     1      39.127  61.426  42.901  1.00  0.00     0.218 C
HETATM   18  O1  UNL     1      39.650  60.828  41.945  1.00  0.00    -0.274 OA
ATOM     19  H4  UNL     1      37.359  62.408  43.476  1.00  0.00     0.163 HD
BRANCH  17  20
HETATM   20  C11 UNL     1      39.819  61.626  44.167  1.00  0.00     0.115 C
BRANCH  20  21
HETATM   21  C12 UNL     1      39.147  61.298  45.433  1.00  0.00     0.117 C
BRANCH  21  22
HETATM   22  S1  UNL     1      39.429  59.699  46.124  1.00  0.00     0.010 S
HETATM   23  O2  UNL     1      40.016  59.961  47.515  1.00  0.00    -0.259 OA
HETATM   24  S2  UNL     1      40.511  58.829  45.202  1.00  0.00     0.008 SA
BRANCH  22  25
HETATM   25  C13 UNL     1      37.847  58.920  46.268  1.00  0.00     0.112 C
BRANCH  25  26
HETATM   26  C14 UNL     1      37.829  57.503  46.650  1.00  0.00    -0.003 C
HETATM   27  C15 UNL     1      37.394  57.160  48.042  1.00  0.00     0.005 C
HETATM   28  C16 UNL     1      37.747  55.669  48.217  1.00  0.00     0.000 C
HETATM   29  C17 UNL     1      36.775  54.821  47.445  1.00  0.00     0.000 C
HETATM   30  C18 UNL     1      36.120  55.691  46.397  1.00  0.00     0.000 C
HETATM   31  C19 UNL     1      37.103  56.593  45.686  1.00  0.00     0.005 C
ENDBRANCH  25  26
ENDBRANCH  22  25
ENDBRANCH  21  22
ENDBRANCH  20  21
ENDBRANCH  17  20
ENDBRANCH  12  16
TORSDOF 7
ENDMDL