MODEL 3
REMARK VINA RESULT: -8.918364705      3.220      9.287
REMARK  6 active torsions:
REMARK  status: ('A' for Active; 'I' for Inactive)
REMARK       I    between atoms: C1_2  and  N1_3
REMARK    1  A    between atoms: C1_2  and  C5_8
REMARK    2  A    between atoms: N1_3  and  C2_5
REMARK    3  A    between atoms: C8_11  and  O2_12
REMARK    4  A    between atoms: O2_12  and  C9_13
REMARK    5  A    between atoms: C12_16  and  N2_17
REMARK       I    between atoms: N2_17  and  C13_19
REMARK    6  A    between atoms: C13_19  and  C14_21
ROOT
HETATM    1  C9  UNL     1      33.364  58.083  44.245  1.00  0.00     0.129 C
HETATM    2  C10 UNL     1      32.512  57.332  43.236  1.00  0.00     0.034 C
HETATM    3  C11 UNL     1      31.655  58.335  42.448  1.00  0.00     0.028 C
HETATM    4  C12 UNL     1      32.665  59.229  41.733  1.00  0.00     0.084 C
HETATM    5  C20 UNL     1      33.279  60.114  42.765  1.00  0.00     0.028 C
HETATM    6  C21 UNL     1      33.150  59.578  44.142  1.00  0.00     0.034 C
ENDROOT
BRANCH   1   7
HETATM    7  O2  UNL     1      34.710  57.746  44.168  1.00  0.00    -0.344 OA
BRANCH   7   8
HETATM    8  C8  UNL     1      35.572  57.438  45.197  1.00  0.00     0.091 A
HETATM    9  C7  UNL     1      35.595  56.226  45.837  1.00  0.00     0.039 A
HETATM   10  C6  UNL     1      36.503  55.998  46.872  1.00  0.00     0.020 A
HETATM   11  C5  UNL     1      37.401  56.945  47.299  1.00  0.00     0.033 A
HETATM   12  C23 UNL     1      37.360  58.161  46.638  1.00  0.00     0.043 A
HETATM   13  C22 UNL     1      36.487  58.431  45.616  1.00  0.00     0.068 A
HETATM   14 CL1  UNL     1      36.459  59.976  44.801  1.00  0.00    -0.081 Cl
BRANCH  11  15
HETATM   15  C1  UNL     1      38.359  56.727  48.380  1.00  0.00     0.252 C
HETATM   16  O1  UNL     1      37.908  56.252  49.464  1.00  0.00    -0.268 OA
HETATM   17  N1  UNL     1      39.738  57.025  48.245  1.00  0.00    -0.352 N
ATOM     18  H1  UNL     1      40.086  57.406  47.365  1.00  0.00     0.163 HD
BRANCH  17  19
HETATM   19  C2  UNL     1      40.653  56.798  49.329  1.00  0.00     0.084 A
HETATM   20  C3  UNL     1      41.311  57.940  50.003  1.00  0.00     0.027 A
HETATM   21  C4  UNL     1      42.124  57.071  49.124  1.00  0.00     0.027 A
ENDBRANCH  17  19
ENDBRANCH  11  15
ENDBRANCH   7   8
ENDBRANCH   1   7
BRANCH   4  22
HETATM   22  N2  UNL     1      32.069  59.933  40.644  1.00  0.00    -0.355 N
HETATM   23  C13 UNL     1      32.751  60.185  39.447  1.00  0.00     0.249 C
HETATM   24  O3  UNL     1      33.941  59.771  39.333  1.00  0.00    -0.271 OA
ATOM     25  H2  UNL     1      31.109  60.266  40.741  1.00  0.00     0.162 HD
BRANCH  23  26
HETATM   26  C14 UNL     1      32.182  60.908  38.290  1.00  0.00     0.281 C
HETATM   27  N3  UNL     1      33.162  61.155  37.259  1.00  0.00    -0.058 N
HETATM   28  C15 UNL     1      32.676  60.540  36.040  1.00  0.00     0.187 C
ATOM     29  H32 UNL     1      33.379  62.145  37.146  1.00  0.00     0.278 HD
ATOM     30  H31 UNL     1      34.098  60.841  37.516  1.00  0.00     0.278 HD
HETATM   31  C16 UNL     1      31.495  61.315  35.527  1.00  0.00     0.033 C
HETATM   32  C19 UNL     1      31.950  59.313  36.621  1.00  0.00     0.040 C
HETATM   33  C17 UNL     1      30.440  61.087  36.608  1.00  0.00     0.009 C
HETATM   34  C18 UNL     1      31.091  60.140  37.592  1.00  0.00     0.028 C
ENDBRANCH  23  26
ENDBRANCH   4  22
TORSDOF 6
ENDMDL