MODEL 5
REMARK VINA RESULT: -8.381140150      3.347      5.946
REMARK  8 active torsions:
REMARK  status: ('A' for Active; 'I' for Inactive)
REMARK    1  A    between atoms: N1_2  and  C3_4
REMARK    2  A    between atoms: C3_4  and  C4_5
REMARK    3  A    between atoms: C4_5  and  C5_6
REMARK    4  A    between atoms: C5_6  and  N2_7
REMARK    5  A    between atoms: N2_7  and  C6_9
REMARK    6  A    between atoms: C7_12  and  N4_13
REMARK    7  A    between atoms: N4_13  and  C8_15
REMARK    8  A    between atoms: C10_17  and  C11_18
ROOT
HETATM    1  C6  UNL     1      31.100  60.343  37.093  1.00  0.00     0.679 A
HETATM    2  N3  UNL     1      31.252  60.747  38.381  1.00  0.00    -0.175 N
ATOM      3  H3  UNL     1      30.641  60.342  39.090  1.00  0.00     0.186 HD
HETATM    4  C7  UNL     1      32.164  61.651  38.770  1.00  0.00     0.141 A
HETATM    5  C17 UNL     1      32.980  62.185  37.783  1.00  0.00     0.071 A
HETATM    6 BR1  UNL     1      34.281  63.470  38.319  1.00  0.00    -0.046 Br
HETATM    7  C18 UNL     1      32.855  61.796  36.453  1.00  0.00     0.129 A
HETATM    8  N7  UNL     1      31.911  60.884  36.168  1.00  0.00    -0.201 N
ATOM      9  H7  UNL     1      31.803  60.587  35.199  1.00  0.00     0.183 HD
ENDROOT
BRANCH   4  10
HETATM   10  N4  UNL     1      32.340  62.080  40.081  1.00  0.00    -0.326 N
ATOM     11  H4  UNL     1      32.440  63.090  40.182  1.00  0.00     0.169 HD
BRANCH  10  12
HETATM   12  C8  UNL     1      32.399  61.442  41.165  1.00  0.00     0.123 A
HETATM   13  C9  UNL     1      32.735  60.102  41.232  1.00  0.00     0.076 A
HETATM   14  C10 UNL     1      32.710  59.700  42.545  1.00  0.00     0.033 A
HETATM   15  N5  UNL     1      32.363  60.785  43.256  1.00  0.00    -0.303 N
HETATM   16  N6  UNL     1      32.177  61.819  42.436  1.00  0.00    -0.285 N
ATOM     17  H5  UNL     1      32.257  60.813  44.270  1.00  0.00     0.186 HD
ATOM     18  H6  UNL     1      31.908  62.757  42.730  1.00  0.00     0.188 HD
BRANCH  14  19
HETATM   19  C11 UNL     1      32.994  58.362  43.126  1.00  0.00     0.037 C
HETATM   20  C12 UNL     1      31.720  57.536  43.234  1.00  0.00     0.011 C
HETATM   21  C13 UNL     1      31.924  56.352  44.135  1.00  0.00     0.001 C
HETATM   22  C14 UNL     1      33.401  55.969  44.069  1.00  0.00     0.000 C
HETATM   23  C15 UNL     1      34.266  57.025  44.721  1.00  0.00     0.001 C
HETATM   24  C16 UNL     1      33.697  58.422  44.457  1.00  0.00     0.011 C
ENDBRANCH  14  19
ENDBRANCH  10  12
ENDBRANCH   4  10
BRANCH   1  25
HETATM   25  N2  UNL     1      30.201  59.463  36.772  1.00  0.00    -0.226 N
ATOM     26  H2  UNL     1      30.464  58.559  36.380  1.00  0.00     0.177 HD
BRANCH  25  27
HETATM   27  C5  UNL     1      28.821  59.806  36.988  1.00  0.00     0.140 C
BRANCH  27  28
HETATM   28  C4  UNL     1      28.320  60.877  36.059  1.00  0.00     0.050 C
BRANCH  28  29
HETATM   29  C3  UNL     1      27.520  61.859  36.869  1.00  0.00     0.273 C
BRANCH  29  30
HETATM   30  N1  UNL     1      27.771  63.233  36.543  1.00  0.00     0.080 N
HETATM   31  C1  UNL     1      27.092  64.076  37.494  1.00  0.00     0.309 C
HETATM   32  C2  UNL     1      29.177  63.523  36.419  1.00  0.00     0.309 C
ENDBRANCH  29  30
ENDBRANCH  28  29
ENDBRANCH  27  28
ENDBRANCH  25  27
ENDBRANCH   1  25
TORSDOF 8
ENDMDL