MODEL 3
REMARK VINA RESULT: -5.183581495      1.186      2.103
REMARK  6 active torsions:
REMARK  status: ('A' for Active; 'I' for Inactive)
REMARK    1  A    between atoms: N1_2  and  C2_5
REMARK    2  A    between atoms: C2_5  and  C3_6
REMARK    3  A    between atoms: C3_6  and  N2_7
REMARK    4  A    between atoms: C4_9  and  C5_10
REMARK    5  A    between atoms: C6_15  and  N5_16
REMARK    6  A    between atoms: N6_19  and  N7_20
ROOT
HETATM    1  C5  UNL     1      47.382  16.452 -13.532  1.00  0.00     0.174 A
HETATM    2  N3  UNL     1      47.903  17.680 -13.782  1.00  0.00    -0.268 N
ATOM      3  H3  UNL     1      48.405  18.256 -13.107  1.00  0.00     0.189 HD
HETATM    4  N4  UNL     1      47.656  18.010 -15.036  1.00  0.00    -0.129 N
ATOM      5  H4  UNL     1      47.940  18.884 -15.479  1.00  0.00     0.205 HD
HETATM    6  C6  UNL     1      46.975  17.023 -15.641  1.00  0.00     0.713 A
HETATM    7  N6  UNL     1      46.815  16.072 -14.704  1.00  0.00    -0.073 N
ENDROOT
BRANCH   1   8
HETATM    8  C4  UNL     1      47.418  15.697 -12.285  1.00  0.00     0.136 C
HETATM    9  N2  UNL     1      47.259  16.357 -11.189  1.00  0.00    -0.394 N
ATOM     10  H2  UNL     1      47.116  17.367 -11.212  1.00  0.00     0.159 HD
BRANCH   9  11
HETATM   11  C3  UNL     1      47.286  15.661  -9.943  1.00  0.00     0.146 C
BRANCH  11  12
HETATM   12  C2  UNL     1      47.280  14.175 -10.208  1.00  0.00     0.251 C
BRANCH  12  13
HETATM   13  N1  UNL     1      46.172  13.515  -9.541  1.00  0.00    -0.077 N
HETATM   14  C1  UNL     1      45.256  14.551  -9.112  1.00  0.00     0.267 C
ATOM     15  H12 UNL     1      46.469  12.903  -8.781  1.00  0.00     0.276 HD
ATOM     16  H11 UNL     1      45.727  12.801 -10.117  1.00  0.00     0.276 HD
ENDBRANCH  12  13
ENDBRANCH  11  12
ENDBRANCH   9  11
ENDBRANCH   1   8
BRANCH   7  17
HETATM   17  N7  UNL     1      46.162  14.848 -14.864  1.00  0.00    -0.322 N
ATOM     18  H72 UNL     1      45.580  14.374 -14.173  1.00  0.00     0.178 HD
ATOM     19  H71 UNL     1      46.218  14.302 -15.724  1.00  0.00     0.178 HD
ENDBRANCH   7  17
BRANCH   6  20
HETATM   20  N5  UNL     1      46.566  17.009 -16.880  1.00  0.00    -0.232 N
ATOM     21  H52 UNL     1      45.606  16.987 -17.225  1.00  0.00     0.174 HD
ATOM     22  H51 UNL     1      47.155  17.018 -17.712  1.00  0.00     0.174 HD
ENDBRANCH   6  20
TORSDOF 6
ENDMDL