MODEL 4
REMARK VINA RESULT: -4.541808154      1.663      5.191
REMARK  7 active torsions:
REMARK  status: ('A' for Active; 'I' for Inactive)
REMARK    1  A    between atoms: N1_2  and  C2_3
REMARK    2  A    between atoms: N1_2  and  C5_10
REMARK    3  A    between atoms: C2_3  and  C3_4
REMARK    4  A    between atoms: C3_4  and  C4_5
REMARK    5  A    between atoms: C4_5  and  N2_6
REMARK    6  A    between atoms: C6_15  and  N5_16
REMARK    7  A    between atoms: N6_19  and  N7_20
ROOT
HETATM    1  C5  UNL     1      47.295  16.200 -12.955  1.00  0.00     0.731 A
HETATM    2  N3  UNL     1      47.598  16.935 -11.837  1.00  0.00    -0.115 N
ATOM      3  H3  UNL     1      47.835  17.927 -11.834  1.00  0.00     0.206 HD
HETATM    4  N4  UNL     1      47.539  16.164 -10.766  1.00  0.00    -0.116 N
ATOM      5  H4  UNL     1      47.721  16.462  -9.808  1.00  0.00     0.206 HD
HETATM    6  C6  UNL     1      47.199  14.923 -11.150  1.00  0.00     0.726 A
HETATM    7  N6  UNL     1      47.053  14.963 -12.499  1.00  0.00     0.085 N
ENDROOT
BRANCH   1   8
HETATM    8  N1  UNL     1      47.276  16.700 -14.286  1.00  0.00    -0.218 N
HETATM    9  C1  UNL     1      46.259  16.140 -15.177  1.00  0.00     0.168 C
BRANCH   8  10
HETATM   10  C2  UNL     1      48.196  17.709 -14.756  1.00  0.00     0.142 C
BRANCH  10  11
HETATM   11  C3  UNL     1      47.784  18.176 -16.133  1.00  0.00     0.048 C
BRANCH  11  12
HETATM   12  C4  UNL     1      48.948  18.284 -17.088  1.00  0.00     0.231 C
BRANCH  12  13
HETATM   13  N2  UNL     1      50.105  18.665 -16.348  1.00  0.00    -0.079 N
ATOM     14  H23 UNL     1      49.882  18.963 -15.398  1.00  0.00     0.274 HD
ATOM     15  H22 UNL     1      50.697  17.870 -16.108  1.00  0.00     0.274 HD
ATOM     16  H21 UNL     1      50.605  19.382 -16.876  1.00  0.00     0.274 HD
ENDBRANCH  12  13
ENDBRANCH  11  12
ENDBRANCH  10  11
ENDBRANCH   8  10
ENDBRANCH   1   8
BRANCH   7  17
HETATM   17  N7  UNL     1      46.708  13.871 -13.323  1.00  0.00    -0.309 N
ATOM     18  H72 UNL     1      45.808  13.391 -13.331  1.00  0.00     0.178 HD
ATOM     19  H71 UNL     1      47.341  13.445 -14.000  1.00  0.00     0.178 HD
ENDBRANCH   7  17
BRANCH   6  20
HETATM   20  N5  UNL     1      47.032  13.857 -10.439  1.00  0.00    -0.231 N
ATOM     21  H52 UNL     1      47.791  13.236 -10.158  1.00  0.00     0.174 HD
ATOM     22  H51 UNL     1      46.176  13.463 -10.048  1.00  0.00     0.174 HD
ENDBRANCH   6  20
TORSDOF 7
ENDMDL