MODEL 1
REMARK VINA RESULT: -5.366159594      0.000      0.000
REMARK  5 active torsions:
REMARK  status: ('A' for Active; 'I' for Inactive)
REMARK    1  A    between atoms: C4_9  and  C5_10
REMARK    2  A    between atoms: C5_10  and  N4_11
REMARK    3  A    between atoms: N4_11  and  C6_14
REMARK    4  A    between atoms: C6_14  and  C7_15
REMARK    5  A    between atoms: C7_15  and  N5_16
ROOT
HETATM    1  C1  UNL     1      49.200  18.772 -15.956  1.00  0.00     0.055 C
HETATM    2  C2  UNL     1      47.926  18.298 -15.274  1.00  0.00     0.174 C
HETATM    3  N1  UNL     1      47.076  17.717 -16.249  1.00  0.00    -0.365 N
ATOM      4  H1  UNL     1      47.061  18.242 -17.123  1.00  0.00     0.162 HD
HETATM    5  C3  UNL     1      46.320  16.677 -16.281  1.00  0.00     0.191 C
HETATM    6  N2  UNL     1      46.112  15.732 -15.241  1.00  0.00    -0.298 N
ATOM      7  H2  UNL     1      45.252  15.184 -15.287  1.00  0.00     0.183 HD
HETATM    8  N3  UNL     1      46.963  15.472 -14.162  1.00  0.00    -0.113 NA
HETATM    9  C4  UNL     1      47.322  16.727 -13.526  1.00  0.00     0.219 C
HETATM   10  N6  UNL     1      48.345  17.440 -14.217  1.00  0.00    -0.382 N
ATOM     11  H6  UNL     1      49.329  17.341 -13.966  1.00  0.00     0.157 HD
ENDROOT
BRANCH   9  12
HETATM   12  C5  UNL     1      47.877  16.372 -12.156  1.00  0.00     0.276 C
BRANCH  12  13
HETATM   13  N4  UNL     1      47.372  15.093 -11.691  1.00  0.00    -0.070 N
ATOM     14  H42 UNL     1      46.354  15.030 -11.709  1.00  0.00     0.277 HD
ATOM     15  H41 UNL     1      47.557  14.326 -12.338  1.00  0.00     0.277 HD
BRANCH  13  16
HETATM   16  C6  UNL     1      47.940  14.880 -10.367  1.00  0.00     0.259 C
BRANCH  16  17
HETATM   17  C7  UNL     1      47.210  13.784  -9.652  1.00  0.00     0.257 C
BRANCH  17  18
HETATM   18  N5  UNL     1      45.794  13.946  -9.777  1.00  0.00    -0.078 N
ATOM     19  H53 UNL     1      45.545  14.905 -10.021  1.00  0.00     0.274 HD
ATOM     20  H52 UNL     1      45.433  13.476 -10.606  1.00  0.00     0.274 HD
ATOM     21  H51 UNL     1      45.317  13.637  -8.930  1.00  0.00     0.274 HD
ENDBRANCH  17  18
ENDBRANCH  16  17
ENDBRANCH  13  16
ENDBRANCH  12  13
ENDBRANCH   9  12
TORSDOF 5
ENDMDL