MODEL 3
REMARK VINA RESULT: -5.455452994      0.952      1.860
REMARK  6 active torsions:
REMARK  status: ('A' for Active; 'I' for Inactive)
REMARK    1  A    between atoms: N1_1  and  C1_5
REMARK    2  A    between atoms: C1_5  and  C2_6
REMARK    3  A    between atoms: C2_6  and  N2_7
REMARK    4  A    between atoms: N2_7  and  C3_9
REMARK    5  A    between atoms: C3_9  and  C4_10
REMARK    6  A    between atoms: N5_15  and  O1_16
ROOT
HETATM    1  C4  UNL     1      47.662  15.871 -11.096  1.00  0.00     0.138 A
HETATM    2  N3  UNL     1      47.293  15.029 -12.016  1.00  0.00    -0.311 N
ATOM      3  H3  UNL     1      47.187  14.056 -11.728  1.00  0.00     0.170 HD
HETATM    4  C5  UNL     1      47.024  15.315 -13.358  1.00  0.00     0.239 A
HETATM    5  N4  UNL     1      46.615  14.316 -14.277  1.00  0.00    -0.059 NA
HETATM    6  N5  UNL     1      47.153  16.543 -13.745  1.00  0.00    -0.116 N
HETATM    7  N6  UNL     1      47.548  17.521 -12.832  1.00  0.00    -0.212 N
ATOM      8  H6  UNL     1      47.649  18.485 -13.151  1.00  0.00     0.211 HD
HETATM    9  N7  UNL     1      47.813  17.213 -11.477  1.00  0.00    -0.268 N
ATOM     10  H7  UNL     1      48.099  17.931 -10.811  1.00  0.00     0.190 HD
ENDROOT
BRANCH   1  11
HETATM   11  C3  UNL     1      47.893  15.325  -9.725  1.00  0.00     0.133 C
BRANCH  11  12
HETATM   12  N2  UNL     1      47.865  13.921  -9.708  1.00  0.00    -0.394 N
ATOM     13  H2  UNL     1      48.621  13.377 -10.125  1.00  0.00     0.159 HD
BRANCH  12  14
HETATM   14  C2  UNL     1      46.767  13.284  -9.102  1.00  0.00     0.146 C
BRANCH  14  15
HETATM   15  C1  UNL     1      45.743  14.301  -8.565  1.00  0.00     0.249 C
BRANCH  15  16
HETATM   16  N1  UNL     1      44.599  14.245  -9.426  1.00  0.00    -0.078 N
ATOM     17  H13 UNL     1      43.735  14.527  -8.963  1.00  0.00     0.274 HD
ATOM     18  H12 UNL     1      44.604  14.967 -10.145  1.00  0.00     0.274 HD
ATOM     19  H11 UNL     1      44.557  13.301  -9.808  1.00  0.00     0.274 HD
ENDBRANCH  15  16
ENDBRANCH  14  15
ENDBRANCH  12  14
ENDBRANCH  11  12
ENDBRANCH   1  11
BRANCH   6  20
HETATM   20  O1  UNL     1      46.905  16.889 -15.047  1.00  0.00    -0.264 OA
ATOM     21  H1  UNL     1      47.278  17.683 -15.414  1.00  0.00     0.247 HD
ENDBRANCH   6  20
TORSDOF 6
ENDMDL