MODEL 3
REMARK VINA RESULT: -5.271916217      1.726      5.594
REMARK  7 active torsions:
REMARK  status: ('A' for Active; 'I' for Inactive)
REMARK    1  A    between atoms: N1_1  and  N2_4
REMARK    2  A    between atoms: N3_6  and  C1_8
REMARK    3  A    between atoms: C2_11  and  N5_12
REMARK    4  A    between atoms: C3_17  and  N7_18
REMARK    5  A    between atoms: N7_18  and  C4_20
REMARK    6  A    between atoms: C4_20  and  C5_21
REMARK    7  A    between atoms: C5_21  and  N8_22
ROOT
HETATM    1  C1  UNL     1      47.003  15.879 -13.493  1.00  0.00     0.727 A
HETATM    2  N4  UNL     1      47.098  17.215 -13.245  1.00  0.00    -0.020 N
ATOM      3  H4  UNL     1      46.847  17.887 -13.971  1.00  0.00     0.203 HD
HETATM    4  C2  UNL     1      47.524  17.649 -12.045  1.00  0.00     0.705 A
HETATM    5  N6  UNL     1      47.854  16.755 -11.095  1.00  0.00    -0.022 N
ATOM      6  H6  UNL     1      48.175  17.094 -10.188  1.00  0.00     0.203 HD
HETATM    7  C3  UNL     1      47.771  15.428 -11.306  1.00  0.00     0.707 A
HETATM    8  N9  UNL     1      47.343  15.016 -12.512  1.00  0.00    -0.020 N
ATOM      9  H9  UNL     1      47.273  14.015 -12.693  1.00  0.00     0.203 HD
ENDROOT
BRANCH   7  10
HETATM   10  N7  UNL     1      48.105  14.657 -10.346  1.00  0.00    -0.223 N
ATOM     11  H7  UNL     1      49.079  14.692 -10.048  1.00  0.00     0.177 HD
BRANCH  10  12
HETATM   12  C4  UNL     1      47.255  13.754  -9.649  1.00  0.00     0.165 C
BRANCH  12  13
HETATM   13  C5  UNL     1      46.144  14.496  -8.896  1.00  0.00     0.249 C
BRANCH  13  14
HETATM   14  N8  UNL     1      44.853  14.204  -9.469  1.00  0.00    -0.078 N
ATOM     15  H83 UNL     1      44.695  14.728 -10.329  1.00  0.00     0.274 HD
ATOM     16  H82 UNL     1      44.816  13.260  -9.854  1.00  0.00     0.274 HD
ATOM     17  H81 UNL     1      44.110  14.363  -8.788  1.00  0.00     0.274 HD
ENDBRANCH  13  14
ENDBRANCH  12  13
ENDBRANCH  10  12
ENDBRANCH   7  10
BRANCH   4  18
HETATM   18  N5  UNL     1      47.619  18.919 -11.796  1.00  0.00    -0.234 N
ATOM     19  H52 UNL     1      47.429  19.596 -12.535  1.00  0.00     0.174 HD
ATOM     20  H51 UNL     1      47.881  19.249 -10.867  1.00  0.00     0.174 HD
ENDBRANCH   4  18
BRANCH   1  21
HETATM   21  N3  UNL     1      46.553  15.491 -14.764  1.00  0.00    -0.117 N
HETATM   22  N2  UNL     1      46.745  16.184 -15.769  1.00  0.00    -0.235 N
ATOM     23  H2  UNL     1      47.647  15.839 -16.095  1.00  0.00     0.208 HD
ATOM     24  H3  UNL     1      46.052  14.608 -14.862  1.00  0.00     0.207 HD
BRANCH  22  25
HETATM   25  N1  UNL     1      46.483  17.049 -16.608  1.00  0.00    -0.330 N
ATOM     26  H12 UNL     1      45.786  17.580 -16.086  1.00  0.00     0.178 HD
ATOM     27  H11 UNL     1      46.556  17.531 -17.504  1.00  0.00     0.178 HD
ENDBRANCH  22  25
ENDBRANCH   1  21
TORSDOF 7
ENDMDL