MODEL 4
REMARK VINA RESULT: -4.901320267      1.499      1.780
REMARK  5 active torsions:
REMARK  status: ('A' for Active; 'I' for Inactive)
REMARK    1  A    between atoms: N1_2  and  N2_3
REMARK    2  A    between atoms: N1_2  and  C2_6
REMARK    3  A    between atoms: C2_6  and  C3_7
REMARK    4  A    between atoms: C4_10  and  N4_11
REMARK    5  A    between atoms: N4_11  and  C5_13
ROOT
HETATM    1  C3  UNL     1      47.638  17.993 -15.468  1.00  0.00     0.111 A
HETATM    2  N3  UNL     1      47.906  17.947 -14.113  1.00  0.00    -0.185 N
ATOM      3  H3  UNL     1      48.417  18.708 -13.666  1.00  0.00     0.184 HD
HETATM    4  C4  UNL     1      47.488  16.889 -13.386  1.00  0.00     0.698 A
HETATM    5  N6  UNL     1      46.785  15.897 -13.986  1.00  0.00    -0.130 N
ATOM      6  H6  UNL     1      46.437  15.107 -13.443  1.00  0.00     0.205 HD
HETATM    7  N7  UNL     1      46.555  15.972 -15.305  1.00  0.00    -0.270 N
ATOM      8  H7  UNL     1      46.045  15.203 -15.740  1.00  0.00     0.189 HD
HETATM    9  C6  UNL     1      46.932  16.950 -16.067  1.00  0.00     0.143 A
HETATM   10  N8  UNL     1      46.647  16.928 -17.353  1.00  0.00    -0.383 N
ATOM     11  H81 UNL     1      46.131  16.165 -17.791  1.00  0.00     0.157 HD
ATOM     12  H82 UNL     1      46.945  17.697 -17.953  1.00  0.00     0.157 HD
ENDROOT
BRANCH   1  13
HETATM   13  C2  UNL     1      48.421  19.074 -16.262  1.00  0.00     0.143 C
BRANCH  13  14
HETATM   14  N1  UNL     1      47.980  20.389 -16.081  1.00  0.00    -0.312 N
HETATM   15  C1  UNL     1      47.014  20.801 -17.014  1.00  0.00     0.176 C
BRANCH  14  16
HETATM   16  N2  UNL     1      48.734  21.341 -15.533  1.00  0.00    -0.344 N
ATOM     17  H22 UNL     1      49.214  21.226 -14.641  1.00  0.00     0.177 HD
ATOM     18  H21 UNL     1      49.194  21.991 -16.171  1.00  0.00     0.177 HD
ENDBRANCH  14  16
ENDBRANCH  13  14
ENDBRANCH   1  13
BRANCH   4  19
HETATM   19  N4  UNL     1      47.786  16.706 -11.964  1.00  0.00    -0.188 N
ATOM     20  H4  UNL     1      47.901  17.507 -11.345  1.00  0.00     0.184 HD
BRANCH  19  21
HETATM   21  C5  UNL     1      47.908  15.396 -11.479  1.00  0.00     0.207 C
HETATM   22  N5  UNL     1      46.703  14.653 -11.241  1.00  0.00    -0.096 NA
ENDBRANCH  19  21
ENDBRANCH   4  19
TORSDOF 5
ENDMDL