MODEL 3
REMARK VINA RESULT: -5.161989807      1.662      3.049
REMARK  4 active torsions:
REMARK  status: ('A' for Active; 'I' for Inactive)
REMARK    1  A    between atoms: N5_15  and  C6_16
REMARK    2  A    between atoms: C6_16  and  C7_17
REMARK    3  A    between atoms: C7_17  and  N6_18
REMARK    4  A    between atoms: N6_18  and  N7_19
ROOT
HETATM    1  N1  UNL     1      46.420  16.898 -17.488  1.00  0.00    -0.383 N
ATOM      2  H11 UNL     1      46.036  15.956 -17.563  1.00  0.00     0.157 HD
ATOM      3  H12 UNL     1      46.412  17.458 -18.341  1.00  0.00     0.157 HD
HETATM    4  C1  UNL     1      46.897  17.378 -16.385  1.00  0.00     0.131 A
HETATM    5  N2  UNL     1      47.403  18.619 -16.286  1.00  0.00    -0.337 N
ATOM      6  H2  UNL     1      47.404  19.198 -17.126  1.00  0.00     0.168 HD
HETATM    7  C2  UNL     1      47.908  19.155 -15.161  1.00  0.00     0.183 A
HETATM    8  N3  UNL     1      47.909  18.401 -14.047  1.00  0.00    -0.336 N
ATOM      9  H3  UNL     1      48.287  18.784 -13.181  1.00  0.00     0.168 HD
HETATM   10  C3  UNL     1      47.421  17.150 -14.061  1.00  0.00     0.140 A
HETATM   11  C4  UNL     1      46.908  16.620 -15.230  1.00  0.00     0.122 A
HETATM   12  N4  UNL     1      46.513  15.387 -14.916  1.00  0.00    -0.346 N
ATOM     13  H4  UNL     1      46.086  14.723 -15.561  1.00  0.00     0.167 HD
HETATM   14  C5  UNL     1      46.765  15.155 -13.626  1.00  0.00     0.185 A
HETATM   15  N5  UNL     1      47.330  16.229 -13.059  1.00  0.00    -0.326 N
ENDROOT
BRANCH  15  16
HETATM   16  C6  UNL     1      47.755  16.393 -11.688  1.00  0.00     0.149 C
BRANCH  16  17
HETATM   17  C7  UNL     1      47.146  15.356 -10.778  1.00  0.00     0.154 C
BRANCH  17  18
HETATM   18  N6  UNL     1      48.253  14.491 -10.339  1.00  0.00    -0.147 NA
BRANCH  18  19
HETATM   19  N7  UNL     1      47.856  13.755  -9.204  1.00  0.00    -0.348 N
ATOM     20  H72 UNL     1      47.431  14.164  -8.372  1.00  0.00     0.172 HD
ATOM     21  H71 UNL     1      48.059  12.766  -9.350  1.00  0.00     0.172 HD
ENDBRANCH  18  19
ENDBRANCH  17  18
ENDBRANCH  16  17
ENDBRANCH  15  16
TORSDOF 4
ENDMDL