MODEL 4
REMARK VINA RESULT: -5.527540764      1.664      2.936
REMARK  4 active torsions:
REMARK  status: ('A' for Active; 'I' for Inactive)
REMARK    1  A    between atoms: N1_2  and  N2_4
REMARK    2  A    between atoms: N2_4  and  C2_6
REMARK    3  A    between atoms: C4_12  and  N5_13
REMARK    4  A    between atoms: N5_13  and  O1_14
REMARK       I    between atoms: N5_13  and  C5_16
REMARK       I    between atoms: C5_16  and  N6_17
REMARK       I    between atoms: C5_16  and  N7_21
ROOT
HETATM    1  C2  UNL     1      47.238  16.102 -13.079  1.00  0.00     0.162 A
HETATM    2  N3  UNL     1      46.675  15.587 -14.207  1.00  0.00    -0.335 N
ATOM      3  H3  UNL     1      46.469  16.109 -15.059  1.00  0.00     0.168 HD
HETATM    4  C3  UNL     1      46.436  14.282 -14.015  1.00  0.00     0.183 A
HETATM    5  N4  UNL     1      46.825  13.950 -12.788  1.00  0.00    -0.338 N
ATOM      6  H4  UNL     1      46.761  13.021 -12.371  1.00  0.00     0.167 HD
HETATM    7  C4  UNL     1      47.328  15.067 -12.184  1.00  0.00     0.157 A
ENDROOT
BRANCH   7   8
HETATM    8  N5  UNL     1      47.837  15.002 -10.863  1.00  0.00    -0.088 NA
HETATM    9  C5  UNL     1      47.105  14.080 -10.042  1.00  0.00     0.485 C
HETATM   10  N6  UNL     1      47.459  14.213  -8.648  1.00  0.00    -0.035 N
HETATM   11  N7  UNL     1      45.696  14.343 -10.194  1.00  0.00    -0.035 N
ATOM     12  H63 UNL     1      48.465  14.119  -8.508  1.00  0.00     0.278 HD
ATOM     13  H62 UNL     1      47.343  15.174  -8.325  1.00  0.00     0.278 HD
ATOM     14  H61 UNL     1      46.938  13.558  -8.064  1.00  0.00     0.278 HD
ATOM     15  H73 UNL     1      45.458  15.315  -9.998  1.00  0.00     0.278 HD
ATOM     16  H72 UNL     1      45.398  14.320 -11.169  1.00  0.00     0.278 HD
ATOM     17  H71 UNL     1      45.176  13.687  -9.610  1.00  0.00     0.278 HD
BRANCH   8  18
HETATM   18  O1  UNL     1      49.173  14.783 -10.860  1.00  0.00    -0.303 OA
ATOM     19  H1  UNL     1      49.481  14.501 -11.714  1.00  0.00     0.237 HD
ENDBRANCH   8  18
ENDBRANCH   7   8
BRANCH   1  20
HETATM   20  N2  UNL     1      47.632  17.431 -12.845  1.00  0.00    -0.287 N
ATOM     21  H2  UNL     1      48.072  17.925 -13.621  1.00  0.00     0.188 HD
BRANCH  20  22
HETATM   22  N1  UNL     1      47.482  18.120 -11.685  1.00  0.00    -0.339 N
HETATM   23  C1  UNL     1      47.365  19.532 -11.735  1.00  0.00     0.167 C
ATOM     24  H1  UNL     1      47.455  17.629 -10.791  1.00  0.00     0.179 HD
ENDBRANCH  20  22
ENDBRANCH   1  20
TORSDOF 4
ENDMDL