MODEL 3
REMARK VINA RESULT: -4.540794157      1.292      2.691
REMARK  7 active torsions:
REMARK  status: ('A' for Active; 'I' for Inactive)
REMARK    1  A    between atoms: N1_1  and  C1_4
REMARK    2  A    between atoms: N3_8  and  C3_9
REMARK    3  A    between atoms: C3_9  and  C4_10
REMARK    4  A    between atoms: C4_10  and  C5_11
REMARK    5  A    between atoms: C5_11  and  N4_12
REMARK    6  A    between atoms: C6_16  and  N5_17
REMARK    7  A    between atoms: N5_17  and  N6_19
ROOT
HETATM    1  C1  UNL     1      47.328  17.044 -14.137  1.00  0.00     0.691 A
HETATM    2  N2  UNL     1      47.716  17.739 -13.029  1.00  0.00    -0.187 N
ATOM      3  H2  UNL     1      47.954  18.728 -13.114  1.00  0.00     0.185 HD
HETATM    4  C2  UNL     1      47.788  17.140 -11.824  1.00  0.00     0.218 A
HETATM    5  N3  UNL     1      47.470  15.835 -11.727  1.00  0.00    -0.177 N
HETATM    6  C6  UNL     1      47.087  15.150 -12.830  1.00  0.00     0.714 A
HETATM    7  N7  UNL     1      47.014  15.747 -14.032  1.00  0.00    -0.021 N
ATOM      8  H7  UNL     1      46.724  15.219 -14.854  1.00  0.00     0.203 HD
ENDROOT
BRANCH   5   9
HETATM    9  C3  UNL     1      47.544  15.207 -10.447  1.00  0.00     0.150 C
BRANCH   9  10
HETATM   10  C4  UNL     1      46.329  15.327  -9.596  1.00  0.00     0.048 C
BRANCH  10  11
HETATM   11  C5  UNL     1      45.862  14.020  -9.016  1.00  0.00     0.231 C
BRANCH  11  12
HETATM   12  N4  UNL     1      46.992  13.091  -8.852  1.00  0.00    -0.079 N
ATOM     13  H43 UNL     1      47.853  13.468  -9.248  1.00  0.00     0.274 HD
ATOM     14  H42 UNL     1      47.288  13.025  -7.877  1.00  0.00     0.274 HD
ATOM     15  H41 UNL     1      46.766  12.176  -9.241  1.00  0.00     0.274 HD
ENDBRANCH  11  12
ENDBRANCH  10  11
ENDBRANCH   9  10
ENDBRANCH   5   9
BRANCH   6  16
HETATM   16  N5  UNL     1      46.793  13.918 -12.705  1.00  0.00    -0.138 N
ATOM     17  H5  UNL     1      46.964  13.482 -11.799  1.00  0.00     0.205 HD
BRANCH  16  18
HETATM   18  N6  UNL     1      46.259  13.126 -13.706  1.00  0.00    -0.331 N
ATOM     19  H62 UNL     1      45.786  13.612 -14.467  1.00  0.00     0.177 HD
ATOM     20  H61 UNL     1      46.307  12.107 -13.732  1.00  0.00     0.177 HD
ENDBRANCH  16  18
ENDBRANCH   6  16
BRANCH   1  21
HETATM   21  N1  UNL     1      47.257  17.611 -15.294  1.00  0.00    -0.234 N
ATOM     22  H12 UNL     1      46.646  17.208 -16.004  1.00  0.00     0.174 HD
ATOM     23  H11 UNL     1      47.799  18.448 -15.509  1.00  0.00     0.174 HD
ENDBRANCH   1  21
TORSDOF 7
ENDMDL