MODEL 1
REMARK VINA RESULT: -5.833280488      0.000      0.000
REMARK  5 active torsions:
REMARK  status: ('A' for Active; 'I' for Inactive)
REMARK    1  A    between atoms: N1_2  and  N2_3
REMARK    2  A    between atoms: N1_2  and  C2_6
REMARK    3  A    between atoms: C2_6  and  C3_7
REMARK    4  A    between atoms: C3_7  and  N3_8
REMARK    5  A    between atoms: N3_8  and  C4_10
ROOT
HETATM    1  N3  UNL     1      48.383  15.571 -11.269  1.00  0.00    -0.200 N
ATOM      2  H3  UNL     1      49.384  15.396 -11.363  1.00  0.00     0.183 HD
ENDROOT
BRANCH   1   3
HETATM    3  C3  UNL     1      47.792  16.707 -11.854  1.00  0.00     0.119 C
BRANCH   3   4
HETATM    4  C2  UNL     1      47.727  16.855 -13.315  1.00  0.00     0.099 C
BRANCH   4   5
HETATM    5  N1  UNL     1      46.686  16.293 -14.074  1.00  0.00    -0.217 NA
HETATM    6  C1  UNL     1      46.644  16.573 -15.473  1.00  0.00     0.141 C
BRANCH   5   7
HETATM    7  N2  UNL     1      46.821  14.879 -13.958  1.00  0.00    -0.360 NA
ATOM      8  H22 UNL     1      46.193  14.471 -14.652  1.00  0.00     0.171 HD
ATOM      9  H21 UNL     1      46.659  14.659 -12.975  1.00  0.00     0.171 HD
ENDBRANCH   5   7
ENDBRANCH   4   5
ENDBRANCH   3   4
ENDBRANCH   1   3
BRANCH   1  10
HETATM   10  C4  UNL     1      47.551  14.669 -10.541  1.00  0.00     0.689 C
HETATM   11  N4  UNL     1      48.057  14.015  -9.511  1.00  0.00    -0.224 N
HETATM   12  C5  UNL     1      47.102  13.125  -8.852  1.00  0.00     0.155 C
ATOM     13  H4  UNL     1      49.023  14.121  -9.204  1.00  0.00     0.177 HD
HETATM   14  C6  UNL     1      45.894  14.025  -8.541  1.00  0.00     0.155 C
HETATM   15  N5  UNL     1      45.267  14.357  -9.781  1.00  0.00    -0.125 NA
HETATM   16  N6  UNL     1      46.190  14.416 -10.839  1.00  0.00    -0.137 N
ATOM     17  H6  UNL     1      45.885  14.280 -11.803  1.00  0.00     0.201 HD
ENDBRANCH   1  10
TORSDOF 5
ENDMDL