MODEL 3
REMARK VINA RESULT: -5.510364547      2.194      5.464
REMARK  7 active torsions:
REMARK  status: ('A' for Active; 'I' for Inactive)
REMARK    1  A    between atoms: C2_2  and  C3_3
REMARK    2  A    between atoms: C3_3  and  C4_4
REMARK    3  A    between atoms: C4_4  and  N1_5
REMARK    4  A    between atoms: N1_5  and  C5_8
REMARK    5  A    between atoms: C5_8  and  C6_9
REMARK    6  A    between atoms: C6_9  and  C7_10
REMARK    7  A    between atoms: C7_10  and  C8_11
ROOT
HETATM    1  C5  UNL     1       7.574 -20.278  -1.916  1.00  0.00     0.232 C
ENDROOT
BRANCH   1   2
HETATM    2  N1  UNL     1       8.567 -20.391  -0.900  1.00  0.00    -0.075 N
ATOM      3  H12 UNL     1       9.438 -19.941  -1.182  1.00  0.00     0.277 HD
ATOM      4  H11 UNL     1       8.902 -21.351  -0.815  1.00  0.00     0.277 HD
BRANCH   2   5
HETATM    5  C4  UNL     1       8.097 -19.876   0.393  1.00  0.00     0.236 C
BRANCH   5   6
HETATM    6  C3  UNL     1       8.630 -20.928   1.428  1.00  0.00     0.054 C
BRANCH   6   7
HETATM    7  C2  UNL     1       7.386 -21.727   1.762  1.00  0.00    -0.035 C
HETATM    8  C1  UNL     1       7.295 -23.005   1.824  1.00  0.00     0.007 C
ENDBRANCH   6   7
ENDBRANCH   5   6
ENDBRANCH   2   5
ENDBRANCH   1   2
BRANCH   1   9
HETATM    9  C6  UNL     1       7.391 -21.634  -2.627  1.00  0.00     0.028 C
BRANCH   9  10
HETATM   10  C7  UNL     1       6.652 -22.566  -1.656  1.00  0.00     0.006 C
BRANCH  10  11
HETATM   11  C8  UNL     1       6.422 -23.886  -2.314  1.00  0.00    -0.014 C
HETATM   12  C9  UNL     1       6.603 -23.763  -3.840  1.00  0.00     0.004 C
HETATM   13  C10 UNL     1       7.158 -25.110  -4.205  1.00  0.00     0.000 C
HETATM   14  C11 UNL     1       8.198 -25.352  -3.110  1.00  0.00     0.000 C
HETATM   15  C12 UNL     1       7.393 -24.955  -1.870  1.00  0.00     0.004 C
ENDBRANCH  10  11
ENDBRANCH   9  10
ENDBRANCH   1   9
TORSDOF 7
ENDMDL