MODEL 5
REMARK VINA RESULT: -5.351672413      1.114      1.834
REMARK  7 active torsions:
REMARK  status: ('A' for Active; 'I' for Inactive)
REMARK    1  A    between atoms: C2_2  and  C3_3
REMARK    2  A    between atoms: C3_3  and  N1_4
REMARK    3  A    between atoms: N1_4  and  C4_7
REMARK    4  A    between atoms: C4_7  and  C5_8
REMARK    5  A    between atoms: C5_8  and  C6_9
REMARK    6  A    between atoms: C6_9  and  C7_10
REMARK    7  A    between atoms: C7_10  and  C8_11
ROOT
HETATM    1  C5  UNL     1       7.289 -21.581   1.509  1.00  0.00     0.027 C
ENDROOT
BRANCH   1   2
HETATM    2  C4  UNL     1       8.676 -21.016   1.427  1.00  0.00     0.232 C
BRANCH   2   3
HETATM    3  N1  UNL     1       8.679 -19.608   1.102  1.00  0.00    -0.072 N
ATOM      4  H12 UNL     1       9.625 -19.225   1.142  1.00  0.00     0.277 HD
ATOM      5  H11 UNL     1       8.248 -19.060   1.846  1.00  0.00     0.277 HD
BRANCH   3   6
HETATM    6  C3  UNL     1       8.065 -19.330  -0.165  1.00  0.00     0.259 C
BRANCH   6   7
HETATM    7  C2  UNL     1       8.908 -19.716  -1.317  1.00  0.00    -0.010 C
HETATM    8  C1  UNL     1       8.369 -19.790  -2.516  1.00  0.00     0.008 C
ENDBRANCH   6   7
ENDBRANCH   3   6
ENDBRANCH   2   3
ENDBRANCH   1   2
BRANCH   1   9
HETATM    9  C6  UNL     1       7.145 -22.911   0.805  1.00  0.00     0.002 C
BRANCH   9  10
HETATM   10  C7  UNL     1       6.532 -22.743  -0.563  1.00  0.00     0.005 C
BRANCH  10  11
HETATM   11  C8  UNL     1       7.359 -23.377  -1.645  1.00  0.00    -0.014 C
HETATM   12  C9  UNL     1       7.365 -24.876  -1.589  1.00  0.00     0.004 C
HETATM   13  C10 UNL     1       8.011 -25.231  -2.912  1.00  0.00     0.000 C
HETATM   14  C11 UNL     1       7.776 -24.057  -3.839  1.00  0.00     0.000 C
HETATM   15  C12 UNL     1       6.883 -23.102  -3.032  1.00  0.00     0.004 C
ENDBRANCH  10  11
ENDBRANCH   9  10
ENDBRANCH   1   9
TORSDOF 7
ENDMDL