MODEL 3
REMARK VINA RESULT: -5.610048646      2.433      5.233
REMARK  6 active torsions:
REMARK  status: ('A' for Active; 'I' for Inactive)
REMARK    1  A    between atoms: C2_2  and  C3_3
REMARK    2  A    between atoms: C3_3  and  N1_4
REMARK    3  A    between atoms: N1_4  and  C4_6
REMARK    4  A    between atoms: C4_6  and  C5_7
REMARK    5  A    between atoms: C5_7  and  C6_8
REMARK    6  A    between atoms: C6_8  and  C7_9
ROOT
HETATM    1  C5  UNL     1       7.799 -23.951  -2.277  1.00  0.00     0.045 C
ENDROOT
BRANCH   1   2
HETATM    2  C4  UNL     1       7.792 -24.456  -3.685  1.00  0.00     0.060 C
BRANCH   2   3
HETATM    3  N1  UNL     1       6.656 -24.244  -4.467  1.00  0.00    -0.379 N
ATOM      4  H1  UNL     1       5.782 -24.644  -4.130  1.00  0.00     0.164 HD
BRANCH   3   5
HETATM    5  C3  UNL     1       6.607 -23.541  -5.657  1.00  0.00     0.086 C
BRANCH   5   6
HETATM    6  C2  UNL     1       6.019 -22.181  -5.606  1.00  0.00     0.007 C
HETATM    7  C1  UNL     1       6.589 -21.138  -5.001  1.00  0.00     0.012 C
ENDBRANCH   5   6
ENDBRANCH   3   5
ENDBRANCH   2   3
ENDBRANCH   1   2
BRANCH   1   8
HETATM    8  C6  UNL     1       6.471 -23.329  -1.886  1.00  0.00     0.009 C
BRANCH   8   9
HETATM    9  C7  UNL     1       6.597 -22.106  -1.030  1.00  0.00    -0.014 C
HETATM   10  C8  UNL     1       5.772 -22.124   0.198  1.00  0.00     0.004 C
HETATM   11  C9  UNL     1       6.466 -22.621   1.429  1.00  0.00     0.000 C
HETATM   12  C10 UNL     1       7.800 -22.025   1.678  1.00  0.00     0.000 C
HETATM   13  C11 UNL     1       8.225 -21.158   0.515  1.00  0.00     0.000 C
HETATM   14  C12 UNL     1       8.094 -21.983  -0.728  1.00  0.00     0.004 C
ENDBRANCH   8   9
ENDBRANCH   1   8
TORSDOF 6
ENDMDL