MODEL 2
REMARK VINA RESULT: -5.290620478      1.082      2.358
REMARK  6 active torsions:
REMARK  status: ('A' for Active; 'I' for Inactive)
REMARK    1  A    between atoms: C2_2  and  C3_3
REMARK    2  A    between atoms: C3_3  and  C4_4
REMARK    3  A    between atoms: C4_4  and  C5_5
REMARK    4  A    between atoms: C5_5  and  N1_7
REMARK    5  A    between atoms: N1_7  and  C7_9
REMARK    6  A    between atoms: C7_9  and  C8_10
ROOT
HETATM    1  N1  UNL     1       7.538 -22.502  -0.817  1.00  0.00    -0.409 N
ATOM      2  H1  UNL     1       8.461 -22.253  -1.173  1.00  0.00     0.154 HD
ENDROOT
BRANCH   1   3
HETATM    3  C5  UNL     1       6.859 -23.344  -1.652  1.00  0.00     0.073 C
HETATM    4  C6  UNL     1       7.128 -24.798  -1.613  1.00  0.00     0.032 C
BRANCH   3   5
HETATM    5  C4  UNL     1       6.895 -22.865  -3.070  1.00  0.00     0.028 C
BRANCH   5   6
HETATM    6  C3  UNL     1       6.563 -23.817  -4.149  1.00  0.00     0.028 C
BRANCH   6   7
HETATM    7  C2  UNL     1       6.588 -23.367  -5.542  1.00  0.00    -0.037 C
HETATM    8  C1  UNL     1       5.941 -22.259  -5.880  1.00  0.00     0.007 C
ENDBRANCH   6   7
ENDBRANCH   5   6
ENDBRANCH   3   5
ENDBRANCH   1   3
BRANCH   1   9
HETATM    9  C7  UNL     1       7.263 -21.925   0.372  1.00  0.00     0.025 A
HETATM   10  C10 UNL     1       8.367 -21.061   1.008  1.00  0.00     0.033 A
HETATM   11  C11 UNL     1       7.643 -22.192   1.740  1.00  0.00     0.033 A
BRANCH   9  12
HETATM   12  C8  UNL     1       5.910 -21.158   0.260  1.00  0.00     0.026 C
HETATM   13  C9  UNL     1       4.856 -21.718   1.152  1.00  0.00     0.007 C
ENDBRANCH   9  12
ENDBRANCH   1   9
TORSDOF 6
ENDMDL