MODEL 4
REMARK VINA RESULT: -5.060745182      1.481      2.910
REMARK  7 active torsions:
REMARK  status: ('A' for Active; 'I' for Inactive)
REMARK    1  A    between atoms: C2_2  and  C4_4
REMARK    2  A    between atoms: C4_4  and  C5_5
REMARK    3  A    between atoms: C5_5  and  C6_6
REMARK    4  A    between atoms: C6_6  and  N1_7
REMARK    5  A    between atoms: N1_7  and  C7_9
REMARK    6  A    between atoms: C7_9  and  C8_10
REMARK    7  A    between atoms: C8_10  and  C9_11
ROOT
HETATM    1  N1  UNL     1       7.041 -21.651  -3.995  1.00  0.00    -0.421 N
ATOM      2  H1  UNL     1       6.210 -21.158  -4.321  1.00  0.00     0.153 HD
ENDROOT
BRANCH   1   3
HETATM    3  C6  UNL     1       7.752 -21.204  -2.823  1.00  0.00     0.113 C
BRANCH   3   4
HETATM    4  C5  UNL     1       6.927 -21.390  -1.617  1.00  0.00     0.019 C
BRANCH   4   5
HETATM    5  C4  UNL     1       7.484 -22.058  -0.427  1.00  0.00     0.005 C
BRANCH   5   6
HETATM    6  C2  UNL     1       6.519 -22.706   0.519  1.00  0.00    -0.023 C
HETATM    7  C1  UNL     1       5.327 -21.886   0.902  1.00  0.00     0.009 C
HETATM    8  C3  UNL     1       7.267 -23.097   1.787  1.00  0.00     0.009 C
ENDBRANCH   5   6
ENDBRANCH   4   5
ENDBRANCH   3   4
ENDBRANCH   1   3
BRANCH   1   9
HETATM    9  C7  UNL     1       7.522 -22.789  -4.683  1.00  0.00     0.114 C
BRANCH   9  10
HETATM   10  C8  UNL     1       6.578 -23.943  -4.458  1.00  0.00     0.024 C
BRANCH  10  11
HETATM   11  C9  UNL     1       7.221 -25.111  -3.770  1.00  0.00    -0.013 A
HETATM   12  C10 UNL     1       8.297 -24.952  -2.782  1.00  0.00     0.005 A
HETATM   13  C11 UNL     1       6.870 -25.165  -2.270  1.00  0.00     0.005 A
ENDBRANCH  10  11
ENDBRANCH   9  10
ENDBRANCH   1   9
TORSDOF 7
ENDMDL