MODEL 1
REMARK VINA RESULT: -5.233185342      0.000      0.000
REMARK  6 active torsions:
REMARK  status: ('A' for Active; 'I' for Inactive)
REMARK    1  A    between atoms: C2_2  and  C3_3
REMARK    2  A    between atoms: C3_3  and  C4_4
REMARK    3  A    between atoms: C4_4  and  C5_5
REMARK    4  A    between atoms: C5_5  and  N1_6
REMARK    5  A    between atoms: N1_6  and  C6_9
REMARK    6  A    between atoms: C6_9  and  C7_10
ROOT
HETATM    1  N1  UNL     1       8.178 -19.874  -1.802  1.00  0.00    -0.071 N
ATOM      2  H11 UNL     1       8.809 -19.123  -2.083  1.00  0.00     0.277 HD
ATOM      3  H12 UNL     1       8.853 -20.629  -1.684  1.00  0.00     0.277 HD
ENDROOT
BRANCH   1   4
HETATM    4  C5  UNL     1       7.253 -20.180  -2.854  1.00  0.00     0.233 C
BRANCH   4   5
HETATM    5  C4  UNL     1       7.540 -21.506  -3.489  1.00  0.00     0.031 C
BRANCH   5   6
HETATM    6  C3  UNL     1       6.778 -22.653  -2.889  1.00  0.00     0.028 C
BRANCH   6   7
HETATM    7  C2  UNL     1       7.622 -23.612  -2.141  1.00  0.00    -0.037 C
HETATM    8  C1  UNL     1       7.115 -24.710  -1.575  1.00  0.00     0.007 C
ENDBRANCH   6   7
ENDBRANCH   5   6
ENDBRANCH   4   5
ENDBRANCH   1   4
BRANCH   1   9
HETATM    9  C6  UNL     1       7.544 -19.561  -0.554  1.00  0.00     0.270 C
BRANCH   9  10
HETATM   10  C7  UNL     1       7.089 -20.729   0.200  1.00  0.00    -0.033 A
HETATM   11  C8  UNL     1       7.997 -21.536   0.855  1.00  0.00     0.009 A
HETATM   12  C9  UNL     1       7.584 -22.654   1.581  1.00  0.00     0.001 A
HETATM   13  C10 UNL     1       6.234 -22.956   1.642  1.00  0.00     0.000 A
HETATM   14  C11 UNL     1       5.313 -22.163   0.996  1.00  0.00     0.001 A
HETATM   15  C12 UNL     1       5.757 -21.066   0.288  1.00  0.00     0.009 A
ENDBRANCH   9  10
ENDBRANCH   1   9
TORSDOF 6
ENDMDL