MODEL 3
REMARK VINA RESULT: -4.877385885      1.951      3.222
REMARK  7 active torsions:
REMARK  status: ('A' for Active; 'I' for Inactive)
REMARK    1  A    between atoms: C2_2  and  C4_4
REMARK    2  A    between atoms: C4_4  and  C5_5
REMARK    3  A    between atoms: C5_5  and  N1_6
REMARK    4  A    between atoms: N1_6  and  C6_9
REMARK    5  A    between atoms: C6_9  and  C7_10
REMARK    6  A    between atoms: C7_10  and  C8_11
REMARK    7  A    between atoms: C8_11  and  C9_12
ROOT
HETATM    1  N1  UNL     1       7.271 -24.664  -1.641  1.00  0.00    -0.075 N
ATOM      2  H11 UNL     1       6.278 -24.897  -1.632  1.00  0.00     0.277 HD
ATOM      3  H12 UNL     1       7.599 -25.379  -0.992  1.00  0.00     0.277 HD
ENDROOT
BRANCH   1   4
HETATM    4  C5  UNL     1       7.515 -23.347  -1.152  1.00  0.00     0.232 C
BRANCH   4   5
HETATM    5  C4  UNL     1       6.298 -22.550  -0.783  1.00  0.00     0.031 C
BRANCH   5   6
HETATM    6  C2  UNL     1       6.397 -22.116   0.654  1.00  0.00    -0.021 C
HETATM    7  C1  UNL     1       7.063 -23.108   1.564  1.00  0.00     0.009 C
HETATM    8  C3  UNL     1       5.003 -21.754   1.125  1.00  0.00     0.009 C
ENDBRANCH   5   6
ENDBRANCH   4   5
ENDBRANCH   1   4
BRANCH   1   9
HETATM    9  C6  UNL     1       7.842 -24.820  -2.940  1.00  0.00     0.232 C
BRANCH   9  10
HETATM   10  C7  UNL     1       6.792 -25.041  -3.986  1.00  0.00     0.028 C
BRANCH  10  11
HETATM   11  C8  UNL     1       6.875 -23.976  -5.032  1.00  0.00     0.006 C
BRANCH  11  12
HETATM   12  C9  UNL     1       6.182 -22.699  -4.599  1.00  0.00    -0.014 A
HETATM   13  C10 UNL     1       6.952 -21.451  -4.436  1.00  0.00     0.005 A
HETATM   14  C11 UNL     1       6.146 -21.629  -5.685  1.00  0.00     0.005 A
ENDBRANCH  11  12
ENDBRANCH  10  11
ENDBRANCH   9  10
ENDBRANCH   1   9
TORSDOF 7
ENDMDL