MODEL 2
REMARK VINA RESULT: -4.922628122      2.402      3.103
REMARK  5 active torsions:
REMARK  status: ('A' for Active; 'I' for Inactive)
REMARK    1  A    between atoms: C1_4  and  O1_5
REMARK    2  A    between atoms: C1_4  and  C2_7
REMARK    3  A    between atoms: C2_7  and  C5_12
REMARK    4  A    between atoms: C3_8  and  C4_9
REMARK    5  A    between atoms: C4_9  and  O2_10
ROOT
HETATM    1  C2  UNL     1      -7.151  21.694  17.285  1.00  0.00     0.077 C
HETATM    2  C3  UNL     1      -5.856  21.737  17.317  1.00  0.00     0.020 C
ENDROOT
BRANCH   1   3
HETATM    3  C1  UNL     1      -8.084  21.794  18.374  1.00  0.00     0.148 C
HETATM    4  N1  UNL     1      -8.879  21.015  18.891  1.00  0.00    -0.379 N
ATOM      5  H12 UNL     1      -9.540  21.086  19.664  1.00  0.00     0.158 HD
ATOM      6  H11 UNL     1      -8.855  20.106  18.431  1.00  0.00     0.158 HD
BRANCH   3   7
HETATM    7  O1  UNL     1      -8.118  23.088  19.031  1.00  0.00    -0.346 OA
ATOM      8  H1  UNL     1      -7.866  23.782  18.432  1.00  0.00     0.219 HD
ENDBRANCH   3   7
ENDBRANCH   1   3
BRANCH   1   9
HETATM    9  C5  UNL     1      -7.721  21.516  15.919  1.00  0.00     0.269 C
HETATM   10  N2  UNL     1      -7.225  22.331  14.886  1.00  0.00    -0.057 NA
HETATM   11  O3  UNL     1      -8.599  20.670  15.746  1.00  0.00    -0.271 OA
ENDBRANCH   1   9
BRANCH   2  12
HETATM   12  C4  UNL     1      -4.977  21.898  18.463  1.00  0.00     0.192 C
BRANCH  12  13
HETATM   13  O2  UNL     1      -3.807  21.141  18.283  1.00  0.00    -0.397 OA
ATOM     14  H2  UNL     1      -3.048  21.647  18.548  1.00  0.00     0.209 HD
ENDBRANCH  12  13
ENDBRANCH   2  12
TORSDOF 5
ENDMDL