MODEL 4
REMARK VINA RESULT: -8.249396201      0.899      2.079
REMARK  3 active torsions:
REMARK  status: ('A' for Active; 'I' for Inactive)
REMARK    1  A    between atoms: C3_4  and  C4_5
REMARK    2  A    between atoms: C4_5  and  N2_6
REMARK       I    between atoms: N2_6  and  C5_8
REMARK       I    between atoms: C5_8  and  N3_10
REMARK    3  A    between atoms: N3_10  and  C6_12
ROOT
HETATM    1  N2  UNL     1      -8.387  21.635  11.378  1.00  0.00    -0.339 N
ATOM      2  H2  UNL     1      -8.967  22.204  10.762  1.00  0.00     0.164 HD
HETATM    3  C5  UNL     1      -8.894  20.348  11.803  1.00  0.00     0.320 C
HETATM    4  O1  UNL     1      -8.138  19.692  12.552  1.00  0.00    -0.247 OA
HETATM    5  N3  UNL     1     -10.141  19.942  11.368  1.00  0.00    -0.309 N
ATOM      6  H3  UNL     1     -10.646  20.580  10.754  1.00  0.00     0.170 HD
ENDROOT
BRANCH   1   7
HETATM    7  C4  UNL     1      -7.120  22.147  11.776  1.00  0.00     0.165 C
BRANCH   7   8
HETATM    8  C3  UNL     1      -7.036  22.544  13.199  1.00  0.00    -0.012 A
HETATM    9  C2  UNL     1      -6.516  21.861  14.268  1.00  0.00     0.100 A
HETATM   10  N1  UNL     1      -6.694  22.633  15.355  1.00  0.00    -0.360 N
HETATM   11  C1  UNL     1      -6.273  22.257  16.691  1.00  0.00     0.155 C
HETATM   12  C21 UNL     1      -7.300  23.780  15.065  1.00  0.00     0.044 A
HETATM   13  C16 UNL     1      -7.529  23.751  13.708  1.00  0.00    -0.000 A
HETATM   14  C20 UNL     1      -7.711  24.895  15.789  1.00  0.00     0.030 A
HETATM   15  C17 UNL     1      -8.161  24.835  13.113  1.00  0.00     0.014 A
HETATM   16  C18 UNL     1      -8.561  25.933  13.843  1.00  0.00     0.001 A
HETATM   17  C19 UNL     1      -8.336  25.969  15.199  1.00  0.00     0.002 A
ENDBRANCH   7   8
ENDBRANCH   1   7
BRANCH   5  18
HETATM   18  C6  UNL     1     -10.779  18.733  11.694  1.00  0.00     0.037 A
HETATM   19  C7  UNL     1     -12.041  18.784  12.325  1.00  0.00     0.030 A
HETATM   20  C8  UNL     1     -12.720  17.652  12.683  1.00  0.00     0.014 A
HETATM   21  C9  UNL     1     -12.223  16.394  12.454  1.00  0.00    -0.026 A
HETATM   22  C10 UNL     1     -12.878  15.243  12.800  1.00  0.00     0.012 A
HETATM   23  C14 UNL     1     -10.997  16.315  11.841  1.00  0.00    -0.024 A
HETATM   24  C11 UNL     1     -12.328  14.000  12.545  1.00  0.00     0.001 A
HETATM   25  C12 UNL     1     -11.101  13.890  11.932  1.00  0.00     0.001 A
HETATM   26  C13 UNL     1     -10.459  15.057  11.592  1.00  0.00     0.012 A
HETATM   27  C15 UNL     1     -10.294  17.468  11.470  1.00  0.00     0.042 A
ENDBRANCH   5  18
TORSDOF 3
ENDMDL