MODEL 5
REMARK VINA RESULT: -9.419305390      2.624      5.028
REMARK  3 active torsions:
REMARK  status: ('A' for Active; 'I' for Inactive)
REMARK    1  A    between atoms: C6_6  and  N1_7
REMARK    2  A    between atoms: N1_7  and  C7_9
REMARK    3  A    between atoms: C12_14  and  C13_15
ROOT
HETATM    1  C7  UNL     1      -7.070  21.668  13.396  1.00  0.00     0.041 A
HETATM    2  C8  UNL     1      -6.851  23.037  13.207  1.00  0.00     0.030 A
HETATM    3  C9  UNL     1      -6.431  23.483  11.967  1.00  0.00     0.002 A
HETATM    4  C10 UNL     1      -6.239  22.572  10.949  1.00  0.00     0.001 A
HETATM    5  C11 UNL     1      -6.453  21.236  11.131  1.00  0.00     0.016 A
HETATM    6  C12 UNL     1      -6.873  20.777  12.367  1.00  0.00     0.019 A
ENDROOT
BRANCH   6   7
HETATM    7  C13 UNL     1      -7.165  19.363  12.569  1.00  0.00     0.071 A
HETATM    8  N2  UNL     1      -6.213  18.540  13.066  1.00  0.00    -0.296 N
HETATM    9  N3  UNL     1      -6.384  17.266  13.279  1.00  0.00    -0.265 N
ATOM     10  H2  UNL     1      -5.302  18.943  13.287  1.00  0.00     0.187 HD
HETATM   11  C14 UNL     1      -7.579  16.724  12.992  1.00  0.00     0.271 A
ATOM     12  H3  UNL     1      -5.628  16.695  13.656  1.00  0.00     0.190 HD
HETATM   13  O1  UNL     1      -7.787  15.500  13.183  1.00  0.00    -0.266 OA
HETATM   14  C15 UNL     1      -8.613  17.484  12.481  1.00  0.00     0.046 A
HETATM   15  C16 UNL     1      -9.837  16.938  12.177  1.00  0.00     0.018 A
HETATM   16  C20 UNL     1      -8.395  18.841  12.265  1.00  0.00     0.009 A
HETATM   17  C17 UNL     1     -10.881  17.678  11.659  1.00  0.00     0.001 A
HETATM   18  C18 UNL     1     -10.640  19.014  11.455  1.00  0.00     0.001 A
HETATM   19  C19 UNL     1      -9.416  19.589  11.752  1.00  0.00     0.015 A
ENDBRANCH   6   7
BRANCH   1  20
HETATM   20  N1  UNL     1      -7.492  21.266  14.690  1.00  0.00    -0.384 N
ATOM     21  H1  UNL     1      -8.128  20.473  14.772  1.00  0.00     0.160 HD
BRANCH  20  22
HETATM   22  C6  UNL     1      -7.058  21.931  15.894  1.00  0.00     0.085 C
HETATM   23  C5  UNL     1      -8.249  22.557  16.615  1.00  0.00     0.026 C
HETATM   24  C4  UNL     1      -7.984  22.695  18.094  1.00  0.00     0.006 C
HETATM   25  C3  UNL     1      -6.521  22.884  18.428  1.00  0.00     0.033 C
HETATM   26  C2  UNL     1      -5.724  21.745  17.872  1.00  0.00    -0.087 C
HETATM   27  C1  UNL     1      -4.499  21.540  18.279  1.00  0.00     0.014 C
HETATM   28  C21 UNL     1      -6.437  20.919  16.861  1.00  0.00     0.058 C
ENDBRANCH  20  22
ENDBRANCH   1  20
TORSDOF 3
ENDMDL