MODEL 5
REMARK VINA RESULT: -5.923721876      1.259      1.402
REMARK  3 active torsions:
REMARK  status: ('A' for Active; 'I' for Inactive)
REMARK    1  A    between atoms: C9_9  and  N1_10
REMARK       I    between atoms: N1_10  and  C10_12
REMARK    2  A    between atoms: C10_12  and  C11_14
REMARK    3  A    between atoms: C12_15  and  C13_16
ROOT
HETATM    1  C1  UNL     1      -6.948  14.981  12.758  1.00  0.00     0.068 C
HETATM    2  C2  UNL     1      -7.011  16.361  13.349  1.00  0.00     0.006 A
HETATM    3  C3  UNL     1      -6.557  16.765  14.588  1.00  0.00     0.038 A
HETATM    4  C4  UNL     1      -6.795  18.113  14.767  1.00  0.00    -0.007 A
HETATM    5  C5  UNL     1      -6.575  19.043  15.758  1.00  0.00     0.026 A
HETATM    6  C6  UNL     1      -6.935  20.363  15.646  1.00  0.00    -0.025 A
HETATM    7  C7  UNL     1      -6.715  21.301  16.639  1.00  0.00     0.014 A
HETATM    8  C8  UNL     1      -7.097  22.597  16.466  1.00  0.00     0.030 A
HETATM    9  C9  UNL     1      -7.720  23.031  15.289  1.00  0.00     0.035 A
HETATM   10  C18 UNL     1      -7.927  22.081  14.321  1.00  0.00     0.042 A
HETATM   11  C19 UNL     1      -7.546  20.762  14.479  1.00  0.00    -0.022 A
HETATM   12  C20 UNL     1      -7.787  19.847  13.450  1.00  0.00     0.042 A
HETATM   13  C21 UNL     1      -7.409  18.528  13.603  1.00  0.00     0.043 A
HETATM   14  N3  UNL     1      -7.526  17.462  12.773  1.00  0.00    -0.359 N
ATOM     15  H3  UNL     1      -7.945  17.490  11.844  1.00  0.00     0.166 HD
ENDROOT
BRANCH   9  16
HETATM   16  N1  UNL     1      -8.084  24.378  15.231  1.00  0.00    -0.324 N
HETATM   17  C10 UNL     1      -8.350  25.092  14.047  1.00  0.00     0.245 C
HETATM   18  O1  UNL     1      -8.278  24.583  12.926  1.00  0.00    -0.268 OA
ATOM     19  H1  UNL     1      -8.165  24.884  16.113  1.00  0.00     0.169 HD
BRANCH  17  20
HETATM   20  C11 UNL     1      -8.735  26.518  14.107  1.00  0.00     0.075 C
HETATM   21  C12 UNL     1      -9.190  27.101  13.035  1.00  0.00     0.017 C
BRANCH  21  22
HETATM   22  C13 UNL     1      -9.587  28.496  13.016  1.00  0.00    -0.034 A
HETATM   23  C14 UNL     1     -10.354  29.114  13.966  1.00  0.00     0.028 A
HETATM   24  C15 UNL     1     -10.704  30.447  13.897  1.00  0.00     0.088 A
HETATM   25  N2  UNL     1     -10.275  31.173  12.855  1.00  0.00    -0.375 N
HETATM   26  C16 UNL     1      -9.524  30.609  11.907  1.00  0.00     0.088 A
ATOM     27  H2  UNL     1     -10.524  32.160  12.786  1.00  0.00     0.164 HD
HETATM   28  C17 UNL     1      -9.160  29.286  11.945  1.00  0.00     0.028 A
ENDBRANCH  21  22
ENDBRANCH  17  20
ENDBRANCH   9  16
TORSDOF 3
ENDMDL