MODEL 2
REMARK VINA RESULT: -9.980749591      1.574      2.254
REMARK  4 active torsions:
REMARK  status: ('A' for Active; 'I' for Inactive)
REMARK    1  A    between atoms: C3_7  and  C4_8
REMARK    2  A    between atoms: C4_8  and  O1_9
REMARK    3  A    between atoms: N3_11  and  C5_13
REMARK    4  A    between atoms: C5_13  and  C6_14
ROOT
HETATM    1  C5  UNL     1      -7.019  19.186  11.962  1.00  0.00     0.161 C
ENDROOT
BRANCH   1   2
HETATM    2  N3  UNL     1      -8.191  18.514  11.445  1.00  0.00    -0.365 N
HETATM    3  C4  UNL     1      -8.954  17.702  12.158  1.00  0.00     0.165 C
ATOM      4  H3  UNL     1      -8.445  18.677  10.471  1.00  0.00     0.162 HD
BRANCH   3   5
HETATM    5  C3  UNL     1     -10.003  16.865  12.540  1.00  0.00     0.106 A
HETATM    6  N2  UNL     1      -9.777  15.508  12.811  1.00  0.00    -0.296 N
HETATM    7  N1  UNL     1     -10.895  14.921  13.126  1.00  0.00    -0.304 N
ATOM      8  H2  UNL     1      -8.868  15.048  12.768  1.00  0.00     0.187 HD
HETATM    9  C2  UNL     1     -11.909  15.802  13.086  1.00  0.00     0.030 A
ATOM     10  H1  UNL     1     -10.989  13.934  13.367  1.00  0.00     0.186 HD
HETATM   11  C1  UNL     1     -13.342  15.513  13.358  1.00  0.00     0.070 C
HETATM   12  C20 UNL     1     -11.352  17.010  12.721  1.00  0.00    -0.006 A
HETATM   13  C21 UNL     1     -12.089  18.295  12.571  1.00  0.00     0.053 C
ENDBRANCH   3   5
BRANCH   3  14
HETATM   14  O1  UNL     1      -8.105  17.680  13.444  1.00  0.00    -0.345 OA
ATOM     15  H1  UNL     1      -8.195  16.766  13.689  1.00  0.00     0.219 HD
ENDBRANCH   3  14
ENDBRANCH   1   2
BRANCH   1  16
HETATM   16  C6  UNL     1      -7.105  20.640  11.900  1.00  0.00    -0.029 A
HETATM   17  C7  UNL     1      -6.976  21.417  10.761  1.00  0.00     0.010 A
HETATM   18  C8  UNL     1      -6.821  22.772  10.834  1.00  0.00     0.008 A
HETATM   19  C9  UNL     1      -6.787  23.466  12.053  1.00  0.00    -0.050 A
HETATM   20  C10 UNL     1      -6.532  24.903  12.090  1.00  0.00     0.049 C
HETATM   21  C11 UNL     1      -6.931  22.696  13.208  1.00  0.00    -0.009 A
HETATM   22  C12 UNL     1      -7.112  23.354  14.436  1.00  0.00    -0.018 A
HETATM   23  C16 UNL     1      -7.076  21.335  13.115  1.00  0.00    -0.017 A
HETATM   24  C13 UNL     1      -7.433  22.525  15.520  1.00  0.00    -0.044 A
HETATM   25  C19 UNL     1      -7.062  24.694  14.856  1.00  0.00     0.009 A
HETATM   26  C14 UNL     1      -7.564  21.182  15.445  1.00  0.00     0.009 A
HETATM   27  C17 UNL     1      -7.614  23.433  16.687  1.00  0.00     0.066 A
HETATM   28  C15 UNL     1      -7.388  20.559  14.241  1.00  0.00     0.013 A
HETATM   29  C18 UNL     1      -7.326  24.813  16.144  1.00  0.00    -0.021 A
ENDBRANCH   1  16
TORSDOF 4
ENDMDL