MODEL 5
REMARK VINA RESULT: -4.494054629      7.036      7.501
REMARK  4 active torsions:
REMARK  status: ('A' for Active; 'I' for Inactive)
REMARK    1  A    between atoms: C1_2  and  C5_10
REMARK    2  A    between atoms: C2_3  and  C3_4
REMARK       I    between atoms: C3_4  and  N2_6
REMARK    3  A    between atoms: N2_6  and  C4_8
REMARK    4  A    between atoms: C5_10  and  O3_11
ROOT
HETATM    1  N1  UNL     1      -8.119  19.179   8.998  1.00  0.00    -0.105 NA
HETATM    2  C1  UNL     1      -8.968  19.286  10.157  1.00  0.00     0.052 C
HETATM    3  C2  UNL     1      -9.918  18.417  10.264  1.00  0.00     0.098 C
ENDROOT
BRANCH   3   4
HETATM    4  C3  UNL     1     -10.925  18.253  11.287  1.00  0.00     0.248 C
HETATM    5  O1  UNL     1     -11.709  19.141  11.604  1.00  0.00    -0.268 OA
HETATM    6  N2  UNL     1     -10.993  16.978  11.957  1.00  0.00    -0.301 N
ATOM      7  H2  UNL     1     -10.354  16.220  11.716  1.00  0.00     0.171 HD
BRANCH   6   8
HETATM    8  C4  UNL     1     -11.969  16.817  12.952  1.00  0.00     0.355 C
HETATM    9  O2  UNL     1     -11.645  16.537  14.132  1.00  0.00    -0.283 OA
ENDBRANCH   6   8
ENDBRANCH   3   4
BRANCH   2  10
HETATM   10  C5  UNL     1      -8.690  20.362  11.114  1.00  0.00     0.218 C
BRANCH  10  11
HETATM   11  O3  UNL     1      -9.679  21.373  11.056  1.00  0.00    -0.395 OA
ATOM     12  H3  UNL     1      -9.466  22.099  11.631  1.00  0.00     0.209 HD
ENDBRANCH  10  11
ENDBRANCH   2  10
TORSDOF 4
ENDMDL