MODEL 3
REMARK VINA RESULT: -9.530928547      1.076      1.316
REMARK  3 active torsions:
REMARK  status: ('A' for Active; 'I' for Inactive)
REMARK    1  A    between atoms: C10_10  and  C11_11
REMARK    2  A    between atoms: C13_13  and  O1_14
REMARK    3  A    between atoms: O1_14  and  C14_15
ROOT
HETATM    1  C1  UNL     1      -6.936  25.251  12.817  1.00  0.00     0.038 C
HETATM    2  C2  UNL     1      -7.027  25.296  14.280  1.00  0.00    -0.002 C
HETATM    3  C3  UNL     1      -7.187  24.206  15.034  1.00  0.00     0.029 A
HETATM    4  C4  UNL     1      -7.272  24.310  16.484  1.00  0.00     0.037 A
HETATM    5  C5  UNL     1      -7.430  23.251  17.265  1.00  0.00    -0.046 A
HETATM    6  C6  UNL     1      -7.507  23.424  18.697  1.00  0.00     0.049 C
HETATM    7  C7  UNL     1      -7.525  21.936  16.660  1.00  0.00     0.014 A
HETATM    8  C8  UNL     1      -7.688  20.850  17.474  1.00  0.00     0.018 A
HETATM    9  C9  UNL     1      -7.776  19.605  16.886  1.00  0.00     0.033 A
HETATM   10  C10 UNL     1      -7.704  19.430  15.523  1.00  0.00     0.060 A
HETATM   11  N2  UNL     1      -7.543  20.510  14.743  1.00  0.00    -0.340 N
ATOM     12  H2  UNL     1      -7.488  20.402  13.730  1.00  0.00     0.167 HD
HETATM   13  C21 UNL     1      -7.455  21.736  15.292  1.00  0.00     0.117 A
HETATM   14  N3  UNL     1      -7.282  22.906  14.470  1.00  0.00    -0.342 N
ATOM     15  H3  UNL     1      -7.227  22.798  13.457  1.00  0.00     0.167 HD
ENDROOT
BRANCH  10  16
HETATM   16  C11 UNL     1      -7.806  18.081  14.994  1.00  0.00     0.061 A
HETATM   17  C12 UNL     1      -8.696  17.730  13.993  1.00  0.00     0.069 A
HETATM   18  C13 UNL     1      -8.810  16.465  13.479  1.00  0.00     0.079 A
HETATM   19  C19 UNL     1      -7.969  15.486  14.010  1.00  0.00     0.054 A
HETATM   20  C20 UNL     1      -7.092  15.847  15.001  1.00  0.00     0.091 A
HETATM   21  N1  UNL     1      -7.024  17.100  15.465  1.00  0.00    -0.364 N
ATOM     22  H1  UNL     1      -6.354  17.316  16.203  1.00  0.00     0.165 HD
BRANCH  18  23
HETATM   23  O1  UNL     1      -9.725  16.203  12.482  1.00  0.00    -0.311 OA
BRANCH  23  24
HETATM   24  C14 UNL     1     -11.084  16.219  12.669  1.00  0.00     0.072 A
HETATM   25  C15 UNL     1     -11.789  15.142  13.008  1.00  0.00     0.014 A
HETATM   26  C16 UNL     1     -13.215  15.471  13.135  1.00  0.00     0.057 A
HETATM   27  C17 UNL     1     -13.259  16.916  12.820  1.00  0.00    -0.020 A
HETATM   28  C18 UNL     1     -12.037  17.314  12.560  1.00  0.00     0.033 A
ENDBRANCH  23  24
ENDBRANCH  18  23
ENDBRANCH  10  16
TORSDOF 3
ENDMDL