MODEL 5
REMARK VINA RESULT: -8.866400541      1.840      3.774
REMARK  4 active torsions:
REMARK  status: ('A' for Active; 'I' for Inactive)
REMARK    1  A    between atoms: C9_12  and  N3_13
REMARK    2  A    between atoms: N3_13  and  C10_15
REMARK    3  A    between atoms: C15_20  and  O1_21
REMARK    4  A    between atoms: O1_21  and  C16_22
ROOT
HETATM    1  N3  UNL     1      -9.133  18.525  13.145  1.00  0.00    -0.361 N
ATOM      2  H3  UNL     1      -8.707  19.019  12.361  1.00  0.00     0.162 HD
ENDROOT
BRANCH   1   3
HETATM    3  C9  UNL     1      -9.570  17.221  12.842  1.00  0.00     0.241 A
HETATM    4  C3  UNL     1      -8.926  16.102  13.540  1.00  0.00     0.050 A
HETATM    5  C2  UNL     1      -7.660  15.904  13.805  1.00  0.00    -0.002 C
HETATM    6  N1  UNL     1      -9.984  15.202  13.903  1.00  0.00    -0.343 N
HETATM    7  C1  UNL     1      -6.647  16.886  13.391  1.00  0.00     0.038 C
HETATM    8  C4  UNL     1     -11.217  15.791  13.501  1.00  0.00     0.110 A
ATOM      9  H1  UNL     1      -9.873  14.300  14.368  1.00  0.00     0.167 HD
HETATM   10  C5  UNL     1     -12.573  15.566  13.535  1.00  0.00     0.051 A
HETATM   11  N2  UNL     1     -10.997  16.977  12.918  1.00  0.00    -0.310 N
HETATM   12  C6  UNL     1     -13.174  16.661  12.952  1.00  0.00     0.028 A
HETATM   13  C7  UNL     1     -12.177  17.509  12.584  1.00  0.00     0.012 A
HETATM   14  C8  UNL     1     -12.446  18.829  11.908  1.00  0.00     0.068 C
ENDBRANCH   1   3
BRANCH   1  15
HETATM   15  C10 UNL     1      -9.183  19.262  14.337  1.00  0.00     0.064 A
HETATM   16  C11 UNL     1     -10.244  19.160  15.204  1.00  0.00     0.032 A
HETATM   17  C12 UNL     1     -10.211  19.922  16.361  1.00  0.00     0.002 A
HETATM   18  C13 UNL     1      -9.189  20.772  16.702  1.00  0.00     0.003 A
HETATM   19  C14 UNL     1      -8.139  20.853  15.815  1.00  0.00     0.039 A
HETATM   20  C15 UNL     1      -8.129  20.118  14.657  1.00  0.00     0.102 A
BRANCH  20  21
HETATM   21  O1  UNL     1      -7.032  20.260  13.819  1.00  0.00    -0.309 OA
BRANCH  21  22
HETATM   22  C16 UNL     1      -6.910  21.292  12.907  1.00  0.00     0.076 A
HETATM   23  C17 UNL     1      -6.749  20.997  11.563  1.00  0.00     0.037 A
HETATM   24  C18 UNL     1      -6.623  21.998  10.610  1.00  0.00     0.003 A
HETATM   25  C19 UNL     1      -6.657  23.325  10.990  1.00  0.00     0.000 A
HETATM   26  C20 UNL     1      -6.814  23.643  12.304  1.00  0.00     0.003 A
HETATM   27  C21 UNL     1      -6.939  22.627  13.252  1.00  0.00     0.037 A
ENDBRANCH  21  22
ENDBRANCH  20  21
ENDBRANCH   1  15
TORSDOF 4
ENDMDL