MODEL 5
REMARK VINA RESULT: -4.836615369      4.222      6.081
REMARK  4 active torsions:
REMARK  status: ('A' for Active; 'I' for Inactive)
REMARK    1  A    between atoms: C1_2  and  C2_4
REMARK    2  A    between atoms: C2_4  and  O2_5
REMARK    3  A    between atoms: C3_7  and  C4_8
REMARK    4  A    between atoms: C5_9  and  O3_11
ROOT
HETATM    1  C2  UNL     1      -6.618  16.520  15.642  1.00  0.00     0.131 C
HETATM    2  C3  UNL     1      -7.120  17.728  15.634  1.00  0.00     0.045 C
ENDROOT
BRANCH   1   3
HETATM    3  C1  UNL     1      -7.459  15.343  15.492  1.00  0.00     0.287 C
HETATM    4  N1  UNL     1      -8.698  15.424  14.794  1.00  0.00    -0.055 NA
HETATM    5  O1  UNL     1      -7.066  14.260  15.992  1.00  0.00    -0.269 OA
ENDBRANCH   1   3
BRANCH   1   6
HETATM    6  O2  UNL     1      -5.239  16.395  15.801  1.00  0.00    -0.356 OA
ATOM      7  H2  UNL     1      -4.721  15.902  15.175  1.00  0.00     0.218 HD
ENDBRANCH   1   6
BRANCH   2   8
HETATM    8  C4  UNL     1      -6.280  18.907  15.785  1.00  0.00     0.055 C
HETATM    9  C5  UNL     1      -6.724  19.899  16.530  1.00  0.00     0.149 C
HETATM   10  N2  UNL     1      -7.986  19.822  17.170  1.00  0.00    -0.075 NA
BRANCH   9  11
HETATM   11  O3  UNL     1      -5.929  21.024  16.677  1.00  0.00    -0.348 OA
ATOM     12  H3  UNL     1      -5.900  21.655  15.967  1.00  0.00     0.219 HD
ENDBRANCH   9  11
ENDBRANCH   2   8
TORSDOF 4
ENDMDL