MODEL 4
REMARK VINA RESULT: -9.428931613      1.409      2.439
REMARK  3 active torsions:
REMARK  status: ('A' for Active; 'I' for Inactive)
REMARK    1  A    between atoms: C7_7  and  N1_8
REMARK    2  A    between atoms: N1_8  and  C8_10
REMARK    3  A    between atoms: C14_20  and  C15_21
ROOT
HETATM    1  C8  UNL     1      -7.847  19.251  14.384  1.00  0.00     0.120 A
HETATM    2  N2  UNL     1      -9.201  19.340  14.359  1.00  0.00    -0.327 N
ATOM      3  H2  UNL     1      -9.631  20.157  14.794  1.00  0.00     0.169 HD
HETATM    4  C9  UNL     1     -10.012  18.431  13.803  1.00  0.00     0.118 A
HETATM    5  N3  UNL     1     -11.364  18.347  13.680  1.00  0.00    -0.345 N
ATOM      6  H3  UNL     1     -12.028  19.038  14.030  1.00  0.00     0.167 HD
HETATM    7  C10 UNL     1     -11.695  17.235  13.038  1.00  0.00     0.018 A
HETATM    8  C11 UNL     1     -10.518  16.587  12.739  1.00  0.00    -0.021 A
HETATM    9  C12 UNL     1      -9.457  17.317  13.208  1.00  0.00     0.017 A
HETATM   10  C13 UNL     1      -8.090  17.202  13.220  1.00  0.00     0.034 A
HETATM   11  C14 UNL     1      -7.241  18.163  13.807  1.00  0.00     0.047 A
HETATM   12  C16 UNL     1     -10.583  15.307  12.017  1.00  0.00     0.041 C
HETATM   13  C17 UNL     1     -11.710  14.429  12.431  1.00  0.00     0.005 C
HETATM   14  C18 UNL     1     -12.901  15.148  12.973  1.00  0.00     0.006 C
HETATM   15  C19 UNL     1     -12.979  16.591  12.605  1.00  0.00     0.057 C
ENDROOT
BRANCH   1  16
HETATM   16  N1  UNL     1      -7.132  20.318  14.976  1.00  0.00    -0.342 N
ATOM     17  H1  UNL     1      -6.585  20.100  15.810  1.00  0.00     0.167 HD
BRANCH  16  18
HETATM   18  C7  UNL     1      -7.102  21.657  14.524  1.00  0.00     0.034 A
HETATM   19  C6  UNL     1      -7.275  22.781  15.274  1.00  0.00     0.036 A
HETATM   20  C4  UNL     1      -7.263  24.055  14.730  1.00  0.00    -0.059 A
HETATM   21  C3  UNL     1      -7.069  24.220  13.381  1.00  0.00     0.013 A
HETATM   22  C5  UNL     1      -7.458  25.248  15.603  1.00  0.00     0.048 C
HETATM   23  C2  UNL     1      -6.889  23.117  12.580  1.00  0.00    -0.059 A
HETATM   24  C1  UNL     1      -6.675  23.271  11.106  1.00  0.00     0.048 C
HETATM   25  C20 UNL     1      -6.907  21.875  13.149  1.00  0.00     0.036 A
ENDBRANCH  16  18
ENDBRANCH   1  16
BRANCH  11  26
HETATM   26  C15 UNL     1      -5.815  17.964  13.788  1.00  0.00     0.273 C
HETATM   27  O1  UNL     1      -5.008  18.014  14.712  1.00  0.00    -0.301 OA
ENDBRANCH  11  26
TORSDOF 3
ENDMDL