MODEL 5
REMARK VINA RESULT: -6.563467797      2.298      5.750
REMARK  10 active torsions:
REMARK  status: ('A' for Active; 'I' for Inactive)
REMARK    1  A    between atoms: C2_2  and  C3_3
REMARK    2  A    between atoms: C3_3  and  N1_4
REMARK    3  A    between atoms: N1_4  and  C4_6
REMARK    4  A    between atoms: C4_6  and  C5_7
REMARK    5  A    between atoms: C5_7  and  C6_8
REMARK    6  A    between atoms: C6_8  and  C7_9
REMARK    7  A    between atoms: C7_9  and  C8_10
REMARK    8  A    between atoms: C8_10  and  C9_11
REMARK    9  A    between atoms: C9_11  and  C10_12
REMARK   10  A    between atoms: C10_12  and  C11_13
ROOT
HETATM    1  C7  UNL     1      -6.613 -24.905   3.920  1.00  0.00     0.000 C
ENDROOT
BRANCH   1   2
HETATM    2  C6  UNL     1      -6.712 -23.812   4.946  1.00  0.00     0.002 C
BRANCH   2   3
HETATM    3  C5  UNL     1      -6.601 -22.477   4.292  1.00  0.00     0.019 C
BRANCH   3   4
HETATM    4  C4  UNL     1      -7.919 -21.728   4.579  1.00  0.00     0.114 C
BRANCH   4   5
HETATM    5  N1  UNL     1      -8.092 -21.551   5.993  1.00  0.00    -0.418 N
ATOM      6  H1  UNL     1      -8.758 -22.110   6.527  1.00  0.00     0.153 HD
BRANCH   5   7
HETATM    7  C3  UNL     1      -7.290 -20.558   6.611  1.00  0.00     0.140 C
BRANCH   7   8
HETATM    8  C2  UNL     1      -7.377 -19.200   6.041  1.00  0.00    -0.018 C
HETATM    9  C1  UNL     1      -6.333 -18.526   5.629  1.00  0.00     0.008 C
ENDBRANCH   7   8
ENDBRANCH   5   7
ENDBRANCH   4   5
ENDBRANCH   3   4
ENDBRANCH   2   3
ENDBRANCH   1   2
BRANCH   1  10
HETATM   10  C8  UNL     1      -7.958 -25.231   3.384  1.00  0.00     0.000 C
BRANCH  10  11
HETATM   11  C9  UNL     1      -8.048 -25.214   1.887  1.00  0.00     0.005 C
BRANCH  11  12
HETATM   12  C10 UNL     1      -6.933 -24.555   1.166  1.00  0.00     0.038 C
BRANCH  12  13
HETATM   13  C11 UNL     1      -7.323 -23.468   0.248  1.00  0.00    -0.058 A
HETATM   14  C12 UNL     1      -6.856 -23.361  -1.035  1.00  0.00     0.007 A
HETATM   15  C13 UNL     1      -7.252 -22.318  -1.879  1.00  0.00     0.001 A
HETATM   16  C14 UNL     1      -8.133 -21.357  -1.438  1.00  0.00     0.000 A
HETATM   17  C15 UNL     1      -8.608 -21.458  -0.152  1.00  0.00     0.001 A
HETATM   18  C16 UNL     1      -8.218 -22.483   0.678  1.00  0.00     0.007 A
ENDBRANCH  12  13
ENDBRANCH  11  12
ENDBRANCH  10  11
ENDBRANCH   1  10
TORSDOF 10
ENDMDL