MODEL 1
REMARK VINA RESULT: -5.750092860      0.000      0.000
REMARK  10 active torsions:
REMARK  status: ('A' for Active; 'I' for Inactive)
REMARK    1  A    between atoms: C2_2  and  C3_3
REMARK    2  A    between atoms: C3_3  and  C4_4
REMARK    3  A    between atoms: C4_4  and  C5_5
REMARK    4  A    between atoms: C5_5  and  N1_6
REMARK    5  A    between atoms: N1_6  and  C6_9
REMARK    6  A    between atoms: C6_9  and  C7_10
REMARK    7  A    between atoms: C7_10  and  C8_11
REMARK    8  A    between atoms: C8_11  and  C9_12
REMARK    9  A    between atoms: C9_12  and  C10_13
REMARK   10  A    between atoms: C10_13  and  C11_14
ROOT
HETATM    1  C6  UNL     1      -6.754 -23.465   4.872  1.00  0.00     0.232 C
ENDROOT
BRANCH   1   2
HETATM    2  N1  UNL     1      -8.044 -22.847   4.930  1.00  0.00    -0.075 N
ATOM      3  H12 UNL     1      -8.550 -23.140   5.767  1.00  0.00     0.277 HD
ATOM      4  H11 UNL     1      -8.664 -23.231   4.217  1.00  0.00     0.277 HD
BRANCH   2   5
HETATM    5  C5  UNL     1      -7.986 -21.380   4.840  1.00  0.00     0.232 C
BRANCH   5   6
HETATM    6  C4  UNL     1      -7.071 -20.949   3.766  1.00  0.00     0.027 C
BRANCH   6   7
HETATM    7  C3  UNL     1      -7.576 -20.094   2.673  1.00  0.00     0.001 C
BRANCH   7   8
HETATM    8  C2  UNL     1      -6.620 -19.394   1.789  1.00  0.00    -0.005 C
HETATM    9  C1  UNL     1      -7.118 -19.151   0.409  1.00  0.00     0.005 C
ENDBRANCH   7   8
ENDBRANCH   6   7
ENDBRANCH   5   6
ENDBRANCH   2   5
ENDBRANCH   1   2
BRANCH   1  10
HETATM   10  C7  UNL     1      -6.764 -24.703   3.986  1.00  0.00     0.027 C
BRANCH  10  11
HETATM   11  C8  UNL     1      -8.100 -24.745   3.322  1.00  0.00     0.002 C
BRANCH  11  12
HETATM   12  C9  UNL     1      -8.050 -24.991   1.829  1.00  0.00     0.000 C
BRANCH  12  13
HETATM   13  C10 UNL     1      -6.847 -24.445   1.201  1.00  0.00     0.004 C
BRANCH  13  14
HETATM   14  C11 UNL     1      -6.838 -23.041   0.728  1.00  0.00    -0.014 C
HETATM   15  C12 UNL     1      -8.073 -22.706  -0.048  1.00  0.00     0.004 C
HETATM   16  C13 UNL     1      -7.656 -22.777  -1.488  1.00  0.00     0.000 C
HETATM   17  C14 UNL     1      -6.148 -22.807  -1.508  1.00  0.00     0.000 C
HETATM   18  C15 UNL     1      -5.731 -22.562  -0.098  1.00  0.00     0.004 C
ENDBRANCH  13  14
ENDBRANCH  12  13
ENDBRANCH  11  12
ENDBRANCH  10  11
ENDBRANCH   1  10
TORSDOF 10
ENDMDL