MODEL 1
REMARK VINA RESULT: -6.304749980      0.000      0.000
REMARK  10 active torsions:
REMARK  status: ('A' for Active; 'I' for Inactive)
REMARK    1  A    between atoms: C2_2  and  C3_3
REMARK    2  A    between atoms: C3_3  and  C4_4
REMARK    3  A    between atoms: C4_4  and  C5_5
REMARK    4  A    between atoms: C5_5  and  C6_6
REMARK    5  A    between atoms: C6_6  and  N1_7
REMARK    6  A    between atoms: N1_7  and  C7_9
REMARK    7  A    between atoms: C7_9  and  C8_10
REMARK    8  A    between atoms: C8_10  and  C9_11
REMARK    9  A    between atoms: C9_11  and  C10_12
REMARK   10  A    between atoms: C10_12  and  C11_13
ROOT
HETATM    1  C8  UNL     1      -7.101 -24.963   3.251  1.00  0.00     0.044 C
ENDROOT
BRANCH   1   2
HETATM    2  C7  UNL     1      -8.038 -24.008   3.847  1.00  0.00     0.060 C
BRANCH   2   3
HETATM    3  N1  UNL     1      -7.795 -23.228   4.974  1.00  0.00    -0.382 N
ATOM      4  H1  UNL     1      -8.532 -22.614   5.323  1.00  0.00     0.163 HD
BRANCH   3   5
HETATM    5  C6  UNL     1      -6.575 -23.265   5.636  1.00  0.00     0.060 C
BRANCH   5   6
HETATM    6  C5  UNL     1      -5.853 -21.920   5.721  1.00  0.00     0.044 C
BRANCH   6   7
HETATM    7  C4  UNL     1      -6.504 -20.813   4.984  1.00  0.00     0.005 C
BRANCH   7   8
HETATM    8  C3  UNL     1      -6.946 -19.772   6.005  1.00  0.00     0.000 C
BRANCH   8   9
HETATM    9  C2  UNL     1      -6.468 -18.391   5.713  1.00  0.00    -0.005 C
HETATM   10  C1  UNL     1      -6.060 -18.344   4.234  1.00  0.00     0.005 C
ENDBRANCH   8   9
ENDBRANCH   7   8
ENDBRANCH   6   7
ENDBRANCH   5   6
ENDBRANCH   3   5
ENDBRANCH   2   3
ENDBRANCH   1   2
BRANCH   1  11
HETATM   11  C9  UNL     1      -6.527 -24.660   1.907  1.00  0.00     0.010 C
BRANCH  11  12
HETATM   12  C10 UNL     1      -6.394 -23.144   1.663  1.00  0.00     0.039 C
BRANCH  12  13
HETATM   13  C11 UNL     1      -7.099 -22.739   0.446  1.00  0.00    -0.056 A
HETATM   14  C12 UNL     1      -8.072 -21.758   0.483  1.00  0.00     0.024 A
HETATM   15  C13 UNL     1      -8.742 -21.340  -0.660  1.00  0.00     0.088 A
HETATM   16  N2  UNL     1      -8.442 -21.905  -1.852  1.00  0.00    -0.375 N
HETATM   17  C14 UNL     1      -7.499 -22.859  -1.897  1.00  0.00     0.088 A
ATOM     18  H2  UNL     1      -8.924 -21.610  -2.701  1.00  0.00     0.164 HD
HETATM   19  C15 UNL     1      -6.825 -23.287  -0.785  1.00  0.00     0.024 A
ENDBRANCH  12  13
ENDBRANCH  11  12
ENDBRANCH   1  11
TORSDOF 10
ENDMDL