MODEL 5
REMARK VINA RESULT: -5.320209057      2.396      4.567
REMARK  11 active torsions:
REMARK  status: ('A' for Active; 'I' for Inactive)
REMARK    1  A    between atoms: C3_3  and  C4_4
REMARK    2  A    between atoms: C4_4  and  C5_5
REMARK    3  A    between atoms: C5_5  and  C6_6
REMARK    4  A    between atoms: C6_6  and  O1_7
REMARK    5  A    between atoms: O1_7  and  C7_8
REMARK    6  A    between atoms: C7_8  and  C8_9
REMARK    7  A    between atoms: C8_9  and  C9_10
REMARK    8  A    between atoms: C9_10  and  C10_11
REMARK    9  A    between atoms: C10_11  and  C11_12
REMARK   10  A    between atoms: C11_12  and  C12_13
REMARK   11  A    between atoms: C11_12  and  C14_15
ROOT
HETATM    1  C1  UNL     1      -5.812 -22.129   5.942  1.00  0.00     0.012 C
HETATM    2  C2  UNL     1      -6.302 -21.187   5.364  1.00  0.00    -0.117 C
HETATM    3  C3  UNL     1      -6.904 -20.054   4.679  1.00  0.00     0.093 C
ENDROOT
BRANCH   3   4
HETATM    4  C4  UNL     1      -6.018 -18.816   4.838  1.00  0.00     0.014 C
BRANCH   4   5
HETATM    5  C5  UNL     1      -6.482 -17.830   3.765  1.00  0.00     0.027 C
BRANCH   5   6
HETATM    6  C6  UNL     1      -5.315 -17.375   2.935  1.00  0.00     0.167 C
BRANCH   6   7
HETATM    7  O1  UNL     1      -5.177 -18.082   1.784  1.00  0.00    -0.391 OA
BRANCH   7   8
HETATM    8  C7  UNL     1      -6.299 -18.154   1.031  1.00  0.00     0.167 C
BRANCH   8   9
HETATM    9  C8  UNL     1      -6.662 -19.467   0.449  1.00  0.00     0.026 C
BRANCH   9  10
HETATM   10  C9  UNL     1      -7.726 -20.262   1.151  1.00  0.00     0.002 C
BRANCH  10  11
HETATM   11  C10 UNL     1      -8.262 -21.333   0.299  1.00  0.00     0.005 C
BRANCH  11  12
HETATM   12  C11 UNL     1      -7.795 -22.755   0.667  1.00  0.00    -0.015 C
BRANCH  12  13
HETATM   13  C12 UNL     1      -6.982 -23.285  -0.441  1.00  0.00    -0.000 C
HETATM   14  C13 UNL     1      -7.346 -22.910  -1.832  1.00  0.00     0.005 C
ENDBRANCH  12  13
BRANCH  12  15
HETATM   15  C14 UNL     1      -7.203 -22.709   2.026  1.00  0.00    -0.000 C
HETATM   16  C15 UNL     1      -6.528 -23.938   2.531  1.00  0.00     0.005 C
ENDBRANCH  12  15
ENDBRANCH  11  12
ENDBRANCH  10  11
ENDBRANCH   9  10
ENDBRANCH   8   9
ENDBRANCH   7   8
ENDBRANCH   6   7
ENDBRANCH   5   6
ENDBRANCH   4   5
ENDBRANCH   3   4
TORSDOF 11
ENDMDL