MODEL 5
REMARK VINA RESULT: -5.928320995      2.078      5.655
REMARK  10 active torsions:
REMARK  status: ('A' for Active; 'I' for Inactive)
REMARK    1  A    between atoms: C2_2  and  C3_3
REMARK    2  A    between atoms: C3_3  and  C4_4
REMARK    3  A    between atoms: C4_4  and  C5_5
REMARK    4  A    between atoms: C5_5  and  C6_6
REMARK    5  A    between atoms: C6_6  and  C7_7
REMARK    6  A    between atoms: C10_10  and  C11_11
REMARK    7  A    between atoms: C11_11  and  C12_12
REMARK    8  A    between atoms: C12_12  and  C13_13
REMARK    9  A    between atoms: C13_13  and  N1_14
REMARK   10  A    between atoms: N1_14  and  C14_17
ROOT
HETATM    1  C7  UNL     1      -6.379 -23.245   1.139  1.00  0.00    -0.010 C
HETATM    2  C8  UNL     1      -7.625 -24.057   1.175  1.00  0.00     0.005 C
HETATM    3  C9  UNL     1      -7.554 -23.927   2.682  1.00  0.00     0.005 C
HETATM    4  C10 UNL     1      -6.779 -22.676   2.477  1.00  0.00    -0.010 C
ENDROOT
BRANCH   4   5
HETATM    5  C11 UNL     1      -7.344 -21.365   2.631  1.00  0.00     0.006 C
BRANCH   5   6
HETATM    6  C12 UNL     1      -7.351 -20.516   3.796  1.00  0.00     0.028 C
BRANCH   6   7
HETATM    7  C13 UNL     1      -8.407 -20.657   4.843  1.00  0.00     0.232 C
BRANCH   7   8
HETATM    8  N1  UNL     1      -8.268 -21.842   5.671  1.00  0.00    -0.075 N
ATOM      9  H12 UNL     1      -9.012 -21.923   6.364  1.00  0.00     0.277 HD
ATOM     10  H11 UNL     1      -8.461 -22.701   5.157  1.00  0.00     0.277 HD
BRANCH   8  11
HETATM   11  C14 UNL     1      -6.952 -21.838   6.269  1.00  0.00     0.228 C
HETATM   12  C15 UNL     1      -6.357 -23.210   6.153  1.00  0.00     0.034 C
ENDBRANCH   8  11
ENDBRANCH   7   8
ENDBRANCH   6   7
ENDBRANCH   5   6
ENDBRANCH   4   5
BRANCH   1  13
HETATM   13  C6  UNL     1      -6.118 -22.334   0.034  1.00  0.00     0.005 C
BRANCH  13  14
HETATM   14  C5  UNL     1      -6.934 -22.766  -1.197  1.00  0.00     0.000 C
BRANCH  14  15
HETATM   15  C4  UNL     1      -7.652 -21.626  -1.767  1.00  0.00     0.000 C
BRANCH  15  16
HETATM   16  C3  UNL     1      -8.432 -20.717  -0.914  1.00  0.00    -0.000 C
BRANCH  16  17
HETATM   17  C2  UNL     1      -9.645 -21.175  -0.224  1.00  0.00    -0.005 C
HETATM   18  C1  UNL     1     -10.811 -20.250  -0.379  1.00  0.00     0.005 C
ENDBRANCH  16  17
ENDBRANCH  15  16
ENDBRANCH  14  15
ENDBRANCH  13  14
ENDBRANCH   1  13
TORSDOF 10
ENDMDL