MODEL 4
REMARK VINA RESULT: -6.040111378      1.488      3.952
REMARK  10 active torsions:
REMARK  status: ('A' for Active; 'I' for Inactive)
REMARK    1  A    between atoms: C2_2  and  C3_3
REMARK    2  A    between atoms: C3_3  and  C4_4
REMARK    3  A    between atoms: C4_4  and  N1_5
REMARK    4  A    between atoms: N1_5  and  C5_8
REMARK    5  A    between atoms: C5_8  and  C6_9
REMARK    6  A    between atoms: C6_9  and  C7_10
REMARK    7  A    between atoms: C7_10  and  C8_11
REMARK    8  A    between atoms: C8_11  and  C9_12
REMARK    9  A    between atoms: C9_12  and  C10_13
REMARK   10  A    between atoms: C10_13  and  C11_14
ROOT
HETATM    1  C7  UNL     1      -6.714 -25.150   3.794  1.00  0.00     0.002 C
ENDROOT
BRANCH   1   2
HETATM    2  C6  UNL     1      -6.606 -24.046   4.813  1.00  0.00     0.027 C
BRANCH   2   3
HETATM    3  C5  UNL     1      -7.676 -23.016   4.755  1.00  0.00     0.232 C
BRANCH   3   4
HETATM    4  N1  UNL     1      -7.700 -22.139   5.898  1.00  0.00    -0.075 N
ATOM      5  H12 UNL     1      -7.614 -22.651   6.775  1.00  0.00     0.277 HD
ATOM      6  H11 UNL     1      -8.624 -21.735   6.051  1.00  0.00     0.277 HD
BRANCH   4   7
HETATM    7  C4  UNL     1      -6.697 -21.140   5.763  1.00  0.00     0.236 C
BRANCH   7   8
HETATM    8  C3  UNL     1      -6.781 -20.408   4.427  1.00  0.00     0.054 C
BRANCH   8   9
HETATM    9  C2  UNL     1      -6.304 -19.034   4.641  1.00  0.00    -0.035 C
HETATM   10  C1  UNL     1      -6.438 -18.451   5.810  1.00  0.00     0.007 C
ENDBRANCH   8   9
ENDBRANCH   7   8
ENDBRANCH   4   7
ENDBRANCH   3   4
ENDBRANCH   2   3
ENDBRANCH   1   2
BRANCH   1  11
HETATM   11  C8  UNL     1      -8.108 -25.108   3.171  1.00  0.00     0.000 C
BRANCH  11  12
HETATM   12  C9  UNL     1      -8.039 -25.077   1.689  1.00  0.00     0.000 C
BRANCH  12  13
HETATM   13  C10 UNL     1      -6.876 -24.384   1.104  1.00  0.00     0.004 C
BRANCH  13  14
HETATM   14  C11 UNL     1      -7.015 -23.093   0.416  1.00  0.00    -0.014 C
HETATM   15  C12 UNL     1      -7.936 -22.116   1.033  1.00  0.00     0.004 C
HETATM   16  C13 UNL     1      -8.763 -21.408  -0.050  1.00  0.00     0.000 C
HETATM   17  C14 UNL     1      -7.847 -20.894  -1.139  1.00  0.00     0.000 C
HETATM   18  C15 UNL     1      -7.163 -22.051  -1.847  1.00  0.00     0.000 C
HETATM   19  C16 UNL     1      -7.382 -23.318  -1.051  1.00  0.00     0.004 C
ENDBRANCH  13  14
ENDBRANCH  12  13
ENDBRANCH  11  12
ENDBRANCH   1  11
TORSDOF 10
ENDMDL