MODEL 3
REMARK VINA RESULT: -5.685483045      0.843      1.235
REMARK  11 active torsions:
REMARK  status: ('A' for Active; 'I' for Inactive)
REMARK    1  A    between atoms: C2_2  and  C3_3
REMARK    2  A    between atoms: C3_3  and  C4_4
REMARK    3  A    between atoms: C4_4  and  C5_5
REMARK    4  A    between atoms: C5_5  and  N1_6
REMARK    5  A    between atoms: N1_6  and  C6_8
REMARK    6  A    between atoms: C6_8  and  C7_9
REMARK    7  A    between atoms: C7_9  and  C8_10
REMARK    8  A    between atoms: C10_12  and  C11_13
REMARK    9  A    between atoms: C11_13  and  C12_14
REMARK   10  A    between atoms: C12_14  and  C13_15
REMARK   11  A    between atoms: C13_15  and  C14_16
ROOT
HETATM    1  C8  UNL     1      -6.678 -23.340   0.525  1.00  0.00    -0.078 A
HETATM    2  C9  UNL     1      -5.982 -23.255   1.597  1.00  0.00    -0.019 A
HETATM    3  C10 UNL     1      -6.832 -24.192   2.320  1.00  0.00     0.012 A
HETATM    4  C16 UNL     1      -7.619 -24.275   1.077  1.00  0.00     0.042 A
ENDROOT
BRANCH   1   5
HETATM    5  C7  UNL     1      -6.519 -22.667  -0.830  1.00  0.00     0.078 C
BRANCH   5   6
HETATM    6  C6  UNL     1      -7.685 -22.970  -1.704  1.00  0.00     0.064 C
BRANCH   6   7
HETATM    7  N1  UNL     1      -8.418 -21.841  -2.073  1.00  0.00    -0.379 N
ATOM      8  H1  UNL     1      -8.843 -21.844  -3.000  1.00  0.00     0.164 HD
BRANCH   7   9
HETATM    9  C5  UNL     1      -8.618 -20.718  -1.290  1.00  0.00     0.083 C
BRANCH   9  10
HETATM   10  C4  UNL     1      -9.444 -20.726  -0.083  1.00  0.00    -0.010 C
BRANCH  10  11
HETATM   11  C3  UNL     1      -9.180 -19.839   1.054  1.00  0.00     0.028 C
BRANCH  11  12
HETATM   12  C2  UNL     1      -8.151 -20.222   2.049  1.00  0.00    -0.001 C
HETATM   13  C1  UNL     1      -6.802 -19.644   1.837  1.00  0.00     0.005 C
ENDBRANCH  11  12
ENDBRANCH  10  11
ENDBRANCH   9  10
ENDBRANCH   7   9
ENDBRANCH   6   7
ENDBRANCH   5   6
ENDBRANCH   1   5
BRANCH   3  14
HETATM   14  C11 UNL     1      -7.559 -23.610   3.526  1.00  0.00     0.009 C
BRANCH  14  15
HETATM   15  C12 UNL     1      -6.891 -24.175   4.746  1.00  0.00     0.001 C
BRANCH  15  16
HETATM   16  C13 UNL     1      -6.248 -23.116   5.601  1.00  0.00    -0.000 C
BRANCH  16  17
HETATM   17  C14 UNL     1      -6.395 -21.740   5.039  1.00  0.00    -0.005 C
HETATM   18  C15 UNL     1      -7.003 -20.846   6.094  1.00  0.00     0.005 C
ENDBRANCH  16  17
ENDBRANCH  15  16
ENDBRANCH  14  15
ENDBRANCH   3  14
TORSDOF 11
ENDMDL