MODEL 5
REMARK VINA RESULT: -5.618664306      1.378      3.819
REMARK  11 active torsions:
REMARK  status: ('A' for Active; 'I' for Inactive)
REMARK    1  A    between atoms: C2_2  and  C3_3
REMARK    2  A    between atoms: C3_3  and  C4_4
REMARK    3  A    between atoms: C4_4  and  C5_5
REMARK    4  A    between atoms: C5_5  and  C6_6
REMARK    5  A    between atoms: C6_6  and  C7_7
REMARK    6  A    between atoms: C7_7  and  C8_8
REMARK    7  A    between atoms: C7_7  and  C9_13
REMARK    8  A    between atoms: C8_8  and  N1_9
REMARK    9  A    between atoms: C9_13  and  C10_14
REMARK   10  A    between atoms: C10_14  and  C11_15
REMARK   11  A    between atoms: C11_15  and  C12_16
ROOT
HETATM    1  C7  UNL     1      -7.417 -21.467  -1.206  1.00  0.00     0.011 C
ENDROOT
BRANCH   1   2
HETATM    2  C6  UNL     1      -6.416 -20.909  -0.256  1.00  0.00     0.006 C
BRANCH   2   3
HETATM    3  C5  UNL     1      -6.852 -19.691   0.480  1.00  0.00     0.000 C
BRANCH   3   4
HETATM    4  C4  UNL     1      -6.889 -20.004   1.958  1.00  0.00     0.000 C
BRANCH   4   5
HETATM    5  C3  UNL     1      -8.254 -20.049   2.553  1.00  0.00    -0.000 C
BRANCH   5   6
HETATM    6  C2  UNL     1      -8.091 -20.386   4.029  1.00  0.00    -0.005 C
HETATM    7  C1  UNL     1      -6.671 -20.180   4.485  1.00  0.00     0.005 C
ENDBRANCH   5   6
ENDBRANCH   4   5
ENDBRANCH   3   4
ENDBRANCH   2   3
ENDBRANCH   1   2
BRANCH   1   8
HETATM    8  C8  UNL     1      -8.773 -20.801  -1.111  1.00  0.00     0.234 C
BRANCH   8   9
HETATM    9  N1  UNL     1      -9.129 -20.220  -2.394  1.00  0.00    -0.079 N
ATOM     10  H13 UNL     1     -10.021 -20.573  -2.739  1.00  0.00     0.274 HD
ATOM     11  H12 UNL     1      -9.381 -19.235  -2.312  1.00  0.00     0.274 HD
ATOM     12  H11 UNL     1      -8.374 -20.368  -3.064  1.00  0.00     0.274 HD
ENDBRANCH   8   9
ENDBRANCH   1   8
BRANCH   1  13
HETATM   13  C9  UNL     1      -7.570 -22.965  -1.160  1.00  0.00     0.006 C
BRANCH  13  14
HETATM   14  C10 UNL     1      -6.626 -23.596  -0.180  1.00  0.00     0.001 C
BRANCH  14  15
HETATM   15  C11 UNL     1      -7.384 -24.481   0.812  1.00  0.00     0.005 C
BRANCH  15  16
HETATM   16  C12 UNL     1      -7.646 -23.736   2.099  1.00  0.00    -0.014 C
HETATM   17  C13 UNL     1      -6.367 -23.526   2.879  1.00  0.00     0.004 C
HETATM   18  C14 UNL     1      -6.717 -24.780   3.669  1.00  0.00     0.001 C
HETATM   19  C15 UNL     1      -8.154 -24.658   3.187  1.00  0.00     0.004 C
ENDBRANCH  15  16
ENDBRANCH  14  15
ENDBRANCH  13  14
ENDBRANCH   1  13
TORSDOF 11
ENDMDL