MODEL 3
REMARK VINA RESULT: -6.429506319      1.998      2.276
REMARK  3 active torsions:
REMARK  status: ('A' for Active; 'I' for Inactive)
REMARK    1  A    between atoms: C4_4  and  N1_5
REMARK    2  A    between atoms: N1_5  and  C5_7
REMARK    3  A    between atoms: C5_7  and  C6_8
ROOT
HETATM    1  N1  UNL     1       8.448 -19.219  -1.674  1.00  0.00    -0.381 N
ATOM      2  H1  UNL     1       9.426 -19.176  -1.962  1.00  0.00     0.160 HD
ENDROOT
BRANCH   1   3
HETATM    3  C4  UNL     1       8.059 -20.124  -0.602  1.00  0.00     0.054 A
HETATM    4  C3  UNL     1       6.776 -20.509  -0.396  1.00  0.00     0.045 A
HETATM    5  C2  UNL     1       6.536 -21.363   0.642  1.00  0.00    -0.018 A
HETATM    6  C1  UNL     1       5.206 -21.934   1.077  1.00  0.00     0.056 C
HETATM    7  S2  UNL     1       8.082 -21.611   1.308  1.00  0.00    -0.085 SA
HETATM    8  C8  UNL     1       8.993 -20.635   0.262  1.00  0.00     0.079 A
HETATM    9  S1  UNL     1      10.766 -20.374   0.328  1.00  0.00    -0.042 SA
ENDBRANCH   1   3
BRANCH   1  10
HETATM   10  C5  UNL     1       7.483 -18.391  -2.331  1.00  0.00     0.206 C
BRANCH  10  11
HETATM   11  C6  UNL     1       7.468 -17.033  -1.795  1.00  0.00     0.161 A
HETATM   12  N2  UNL     1       6.425 -16.372  -1.279  1.00  0.00    -0.277 N
HETATM   13  N3  UNL     1       6.788 -15.151  -0.890  1.00  0.00    -0.243 N
ATOM     14  H2  UNL     1       5.481 -16.750  -1.196  1.00  0.00     0.189 HD
HETATM   15  C7  UNL     1       8.099 -15.069  -1.180  1.00  0.00     0.385 A
ATOM     16  H3  UNL     1       6.199 -14.435  -0.465  1.00  0.00     0.192 HD
HETATM   17  O1  UNL     1       8.786 -14.040  -0.947  1.00  0.00    -0.236 OA
HETATM   18  O2  UNL     1       8.490 -16.207  -1.723  1.00  0.00    -0.244 OA
ENDBRANCH  10  11
ENDBRANCH   1  10
TORSDOF 3
ENDMDL