MODEL 2
REMARK VINA RESULT: -6.677355140      3.269      3.465
REMARK  3 active torsions:
REMARK  status: ('A' for Active; 'I' for Inactive)
REMARK       I    between atoms: C1_2  and  N1_4
REMARK    1  A    between atoms: N1_4  and  C2_6
REMARK    2  A    between atoms: C2_6  and  C3_7
REMARK    3  A    between atoms: C6_11  and  C7_12
ROOT
HETATM    1  C3  UNL     1       7.689 -18.909  -2.201  1.00  0.00     0.013 A
HETATM    2  S1  UNL     1       7.422 -17.323  -2.788  1.00  0.00    -0.104 SA
HETATM    3  C4  UNL     1       6.616 -16.629  -1.456  1.00  0.00     0.051 A
HETATM    4  C5  UNL     1       6.568 -17.670  -0.562  1.00  0.00     0.022 A
HETATM    5  C6  UNL     1       7.113 -18.843  -0.928  1.00  0.00     0.014 A
ENDROOT
BRANCH   5   6
HETATM    6  C7  UNL     1       7.134 -20.038  -0.036  1.00  0.00     0.105 A
HETATM    7  N2  UNL     1       6.225 -20.987   0.086  1.00  0.00    -0.290 N
HETATM    8  N3  UNL     1       6.450 -21.992   0.839  1.00  0.00    -0.259 N
ATOM      9  H2  UNL     1       5.343 -20.918  -0.421  1.00  0.00     0.188 HD
HETATM   10  C8  UNL     1       7.614 -22.050   1.493  1.00  0.00     0.304 A
ATOM     11  H3  UNL     1       5.758 -22.735   0.940  1.00  0.00     0.191 HD
HETATM   12  O2  UNL     1       8.023 -22.961   2.296  1.00  0.00    -0.258 OA
HETATM   13  S2  UNL     1       8.380 -20.604   0.981  1.00  0.00    -0.008 SA
ENDBRANCH   5   6
BRANCH   1  14
HETATM   14  C2  UNL     1       8.483 -19.985  -2.836  1.00  0.00     0.170 C
BRANCH  14  15
HETATM   15  N1  UNL     1       7.663 -20.914  -3.546  1.00  0.00    -0.343 N
HETATM   16  C1  UNL     1       7.216 -22.180  -3.168  1.00  0.00     0.314 C
HETATM   17  O1  UNL     1       7.463 -22.748  -2.078  1.00  0.00    -0.254 OA
HETATM   18 CL1  UNL     1       6.219 -23.125  -4.280  1.00  0.00    -0.020 Cl
ATOM     19  H1  UNL     1       7.359 -20.605  -4.469  1.00  0.00     0.164 HD
ENDBRANCH  14  15
ENDBRANCH   1  14
TORSDOF 3
ENDMDL