MODEL 2
REMARK VINA RESULT: -6.611451414      3.435      4.145
REMARK  2 active torsions:
REMARK  status: ('A' for Active; 'I' for Inactive)
REMARK    1  A    between atoms: C1_2  and  C2_4
REMARK    2  A    between atoms: C3_10  and  C4_11
ROOT
HETATM    1  C2  UNL     1       7.394 -21.582   1.005  1.00  0.00     0.133 A
HETATM    2  N2  UNL     1       8.054 -21.203   2.087  1.00  0.00    -0.288 N
ATOM      3  H2  UNL     1       7.629 -21.313   3.007  1.00  0.00     0.188 HD
HETATM    4  N3  UNL     1       9.227 -20.696   1.982  1.00  0.00    -0.269 N
ATOM      5  H3  UNL     1       9.837 -20.366   2.730  1.00  0.00     0.195 HD
HETATM    6  S1  UNL     1       9.529 -20.701   0.336  1.00  0.00     0.005 SA
HETATM    7  C3  UNL     1       8.022 -21.412  -0.177  1.00  0.00     0.072 A
ENDROOT
BRANCH   7   8
HETATM    8  C4  UNL     1       7.633 -21.646  -1.597  1.00  0.00     0.064 A
HETATM    9  C5  UNL     1       7.309 -20.525  -2.350  1.00  0.00     0.050 A
HETATM   10 CL1  UNL     1       7.275 -18.982  -1.475  1.00  0.00    -0.083 Cl
HETATM   11  C6  UNL     1       7.013 -20.453  -3.666  1.00  0.00     0.032 A
HETATM   12  C7  UNL     1       6.976 -21.521  -4.543  1.00  0.00     0.055 A
HETATM   13  S2  UNL     1       7.348 -23.015  -3.821  1.00  0.00    -0.059 SA
HETATM   14  C8  UNL     1       7.696 -22.900  -2.146  1.00  0.00     0.226 A
HETATM   15  O2  UNL     1       8.005 -23.925  -1.469  1.00  0.00    -0.279 OA
ENDBRANCH   7   8
BRANCH   1  16
HETATM   16  C1  UNL     1       5.991 -22.081   1.172  1.00  0.00     0.284 C
HETATM   17  N1  UNL     1       4.880 -21.218   0.945  1.00  0.00    -0.056 NA
HETATM   18  O1  UNL     1       5.705 -23.242   1.509  1.00  0.00    -0.269 OA
ENDBRANCH   1  16
TORSDOF 2
ENDMDL