MODEL 4
REMARK VINA RESULT: -6.420643807      2.117      2.873
REMARK  2 active torsions:
REMARK  status: ('A' for Active; 'I' for Inactive)
REMARK    1  A    between atoms: S1_2  and  C1_4
REMARK    2  A    between atoms: S1_2  and  N3_13
ROOT
HETATM    1  C1  UNL     1       7.667 -20.135  -0.209  1.00  0.00     0.094 A
HETATM    2  C2  UNL     1       8.852 -19.989   0.396  1.00  0.00     0.132 A
HETATM    3  N1  UNL     1       9.258 -20.874   1.432  1.00  0.00    -0.309 N
ATOM      4  H1  UNL     1      10.167 -20.739   1.875  1.00  0.00     0.186 HD
HETATM    5  N2  UNL     1       8.449 -21.919   1.857  1.00  0.00    -0.290 N
ATOM      6  H2  UNL     1       8.744 -22.551   2.601  1.00  0.00     0.188 HD
HETATM    7  C3  UNL     1       7.187 -22.072   1.210  1.00  0.00     0.119 A
HETATM    8 CL1  UNL     1       6.111 -23.366   1.690  1.00  0.00    -0.063 Cl
HETATM    9  C4  UNL     1       6.828 -21.238   0.249  1.00  0.00     0.069 A
ENDROOT
BRANCH   1  10
HETATM   10  S1  UNL     1       7.109 -19.100  -1.472  1.00  0.00     0.245 S
HETATM   11  O1  UNL     1       7.993 -17.880  -1.551  1.00  0.00    -0.206 OA
HETATM   12  O2  UNL     1       5.737 -18.581  -1.060  1.00  0.00    -0.206 OA
BRANCH  10  13
HETATM   13  N3  UNL     1       6.932 -19.869  -2.977  1.00  0.00    -0.205 NA
HETATM   14  C5  UNL     1       7.856 -20.973  -3.106  1.00  0.00     0.117 C
HETATM   15  C6  UNL     1       7.751 -21.699  -4.400  1.00  0.00     0.089 C
HETATM   16  S2  UNL     1       6.580 -20.967  -5.559  1.00  0.00    -0.167 SA
HETATM   17  C7  UNL     1       6.314 -19.196  -5.173  1.00  0.00     0.089 C
HETATM   18  C8  UNL     1       7.270 -18.903  -4.011  1.00  0.00     0.117 C
ENDBRANCH  10  13
ENDBRANCH   1  10
TORSDOF 2
ENDMDL