MODEL 3
REMARK VINA RESULT: -6.509234042      3.803      4.322
REMARK  5 active torsions:
REMARK  status: ('A' for Active; 'I' for Inactive)
REMARK    1  A    between atoms: O1_1  and  S1_3
REMARK    2  A    between atoms: S1_3  and  C1_4
REMARK    3  A    between atoms: C2_7  and  C3_8
REMARK    4  A    between atoms: C5_10  and  O2_11
REMARK    5  A    between atoms: C8_15  and  S2_16
ROOT
HETATM    1  C1  UNL     1      12.722 -16.573  -4.039  1.00  0.00     0.188 A
HETATM    2  N1  UNL     1      11.457 -16.688  -4.478  1.00  0.00    -0.318 N
ATOM      3  H1  UNL     1      10.737 -15.968  -4.417  1.00  0.00     0.169 HD
HETATM    4  C2  UNL     1      11.301 -17.912  -5.011  1.00  0.00     0.133 A
HETATM    5  N2  UNL     1      12.476 -18.534  -4.891  1.00  0.00    -0.283 N
ATOM      6  H2  UNL     1      12.672 -19.485  -5.205  1.00  0.00     0.188 HD
HETATM    7  N3  UNL     1      13.352 -17.730  -4.301  1.00  0.00    -0.276 N
ATOM      8  H3  UNL     1      14.324 -17.950  -4.086  1.00  0.00     0.189 HD
ENDROOT
BRANCH   4   9
HETATM    9  C3  UNL     1      10.051 -18.412  -5.596  1.00  0.00     0.030 A
HETATM   10  C4  UNL     1       9.827 -18.393  -6.955  1.00  0.00     0.053 A
HETATM   11  C5  UNL     1       8.643 -18.865  -7.516  1.00  0.00     0.066 A
HETATM   12  C6  UNL     1       7.654 -19.372  -6.697  1.00  0.00     0.038 A
HETATM   13  C7  UNL     1       7.863 -19.400  -5.330  1.00  0.00     0.023 A
HETATM   14  C8  UNL     1       9.052 -18.922  -4.798  1.00  0.00     0.030 A
BRANCH  11  15
HETATM   15  O2  UNL     1       8.504 -18.805  -8.905  1.00  0.00    -0.361 OA
ATOM     16  H2  UNL     1       8.931 -19.474  -9.426  1.00  0.00     0.217 HD
ENDBRANCH  11  15
BRANCH  14  17
HETATM   17  S2  UNL     1       9.346 -18.947  -3.033  1.00  0.00    -0.018 SA
HETATM   18 CL1  UNL     1       8.749 -17.137  -2.150  1.00  0.00    -0.038 Cl
ENDBRANCH  14  17
ENDBRANCH   4   9
BRANCH   1  19
HETATM   19  S1  UNL     1      13.454 -15.131  -3.243  1.00  0.00     0.065 SA
BRANCH  19  20
HETATM   20  O1  UNL     1      13.723 -15.562  -1.595  1.00  0.00    -0.323 OA
ATOM     21  H1  UNL     1      14.440 -16.185  -1.592  1.00  0.00     0.228 HD
ENDBRANCH  19  20
ENDBRANCH   1  19
TORSDOF 5
ENDMDL