MODEL 4
REMARK VINA RESULT: -6.735766089      3.250      4.101
REMARK  2 active torsions:
REMARK  status: ('A' for Active; 'I' for Inactive)
REMARK    1  A    between atoms: S1_2  and  N1_4
REMARK    2  A    between atoms: N1_4  and  C1_6
ROOT
HETATM    1  C1  UNL     1       7.149 -21.474  -1.774  1.00  0.00     0.130 A
HETATM    2  N2  UNL     1       7.299 -21.611  -0.445  1.00  0.00    -0.318 N
ATOM      3  H2  UNL     1       7.426 -20.789   0.147  1.00  0.00     0.170 HD
HETATM    4  C2  UNL     1       7.282 -22.853   0.104  1.00  0.00     0.177 A
HETATM    5  S2  UNL     1       7.467 -22.981   1.719  1.00  0.00    -0.040 SA
HETATM    6  N3  UNL     1       7.120 -23.964  -0.624  1.00  0.00    -0.332 N
ATOM      7  H3  UNL     1       7.115 -24.875  -0.164  1.00  0.00     0.168 HD
HETATM    8  C3  UNL     1       6.964 -23.888  -1.969  1.00  0.00     0.048 A
HETATM    9  C4  UNL     1       6.797 -25.013  -2.731  1.00  0.00     0.032 A
HETATM   10  C5  UNL     1       6.641 -24.927  -4.090  1.00  0.00     0.026 A
HETATM   11  C6  UNL     1       6.658 -23.656  -4.658  1.00  0.00     0.035 A
HETATM   12 CL1  UNL     1       6.458 -23.535  -6.397  1.00  0.00    -0.084 Cl
HETATM   13  C7  UNL     1       6.825 -22.517  -3.900  1.00  0.00     0.041 A
HETATM   14  C8  UNL     1       6.983 -22.609  -2.531  1.00  0.00     0.037 A
ENDROOT
BRANCH   1  15
HETATM   15  N1  UNL     1       7.157 -20.309  -2.364  1.00  0.00    -0.255 N
ATOM     16  H1  UNL     1       6.688 -20.203  -3.263  1.00  0.00     0.181 HD
BRANCH  15  17
HETATM   17  S1  UNL     1       7.937 -18.950  -1.659  1.00  0.00     0.360 S
HETATM   18  O1  UNL     1       7.108 -18.511  -0.461  1.00  0.00    -0.187 OA
HETATM   19  O2  UNL     1       9.317 -19.327  -1.194  1.00  0.00    -0.187 OA
ENDBRANCH  15  17
ENDBRANCH   1  15
TORSDOF 2
ENDMDL