MODEL 2
REMARK VINA RESULT: -6.025343835      1.664      1.908
REMARK  5 active torsions:
REMARK  status: ('A' for Active; 'I' for Inactive)
REMARK    1  A    between atoms: C2_2  and  S1_3
REMARK    2  A    between atoms: S1_3  and  C3_4
REMARK    3  A    between atoms: C4_7  and  C5_8
REMARK    4  A    between atoms: C7_11  and  O1_12
REMARK    5  A    between atoms: C8_14  and  O2_15
ROOT
HETATM    1  C3  UNL     1       9.545 -17.761  -2.427  1.00  0.00     0.160 A
HETATM    2  N1  UNL     1       8.580 -18.603  -2.004  1.00  0.00    -0.320 N
ATOM      3  H1  UNL     1       7.585 -18.519  -2.208  1.00  0.00     0.169 HD
HETATM    4  C4  UNL     1       9.145 -19.559  -1.279  1.00  0.00     0.142 A
HETATM    5  N2  UNL     1      10.470 -19.290  -1.263  1.00  0.00    -0.282 N
ATOM      6  H2  UNL     1      11.172 -19.852  -0.782  1.00  0.00     0.188 HD
HETATM    7  N3  UNL     1      10.723 -18.199  -1.957  1.00  0.00    -0.278 N
ATOM      8  H3  UNL     1      11.637 -17.772  -2.107  1.00  0.00     0.189 HD
ENDROOT
BRANCH   4   9
HETATM    9  C5  UNL     1       8.559 -20.727  -0.584  1.00  0.00     0.086 A
HETATM   10  S2  UNL     1       7.453 -21.870  -1.262  1.00  0.00    -0.092 SA
HETATM   11  C6  UNL     1       7.245 -22.878   0.087  1.00  0.00     0.090 A
HETATM   12  C7  UNL     1       8.036 -22.306   1.030  1.00  0.00     0.106 A
HETATM   13  C8  UNL     1       8.721 -21.187   0.684  1.00  0.00     0.120 A
BRANCH  12  14
HETATM   14  O1  UNL     1       8.136 -22.868   2.329  1.00  0.00    -0.357 OA
ATOM     15  H1  UNL     1       8.386 -22.330   3.071  1.00  0.00     0.217 HD
ENDBRANCH  12  14
BRANCH  13  16
HETATM   16  O2  UNL     1       9.579 -20.507   1.599  1.00  0.00    -0.357 OA
ATOM     17  H2  UNL     1       9.503 -20.655   2.534  1.00  0.00     0.218 HD
ENDBRANCH  13  16
ENDBRANCH   4   9
BRANCH   1  18
HETATM   18  S1  UNL     1       9.314 -16.315  -3.430  1.00  0.00    -0.093 SA
BRANCH  18  19
HETATM   19  C2  UNL     1       7.580 -15.820  -3.384  1.00  0.00     0.078 C
HETATM   20  C1  UNL     1       6.705 -16.741  -4.213  1.00  0.00     0.016 C
ENDBRANCH  18  19
ENDBRANCH   1  18
TORSDOF 5
ENDMDL