MODEL 3
REMARK VINA RESULT: -5.701333573      1.946      2.022
REMARK  5 active torsions:
REMARK  status: ('A' for Active; 'I' for Inactive)
REMARK    1  A    between atoms: C2_5  and  S1_6
REMARK    2  A    between atoms: S1_6  and  C3_7
REMARK    3  A    between atoms: C3_7  and  C4_8
REMARK    4  A    between atoms: C4_8  and  O2_9
REMARK    5  A    between atoms: C5_13  and  C6_14
ROOT
HETATM    1  O1  UNL     1      11.581 -20.079   0.598  1.00  0.00    -0.247 OA
HETATM    2  C1  UNL     1      10.472 -20.078  -0.001  1.00  0.00     0.327 A
HETATM    3  N1  UNL     1      10.376 -19.436  -1.175  1.00  0.00    -0.289 N
ATOM      4  H1  UNL     1      11.185 -18.958  -1.573  1.00  0.00     0.172 HD
HETATM    5  C2  UNL     1       9.201 -19.433  -1.812  1.00  0.00     0.149 A
HETATM    6  N2  UNL     1       8.153 -20.088  -1.231  1.00  0.00    -0.322 N
ATOM      7  H2  UNL     1       7.251 -20.093  -1.706  1.00  0.00     0.169 HD
HETATM    8  C5  UNL     1       8.268 -20.719  -0.066  1.00  0.00     0.128 A
HETATM    9  N3  UNL     1       9.431 -20.720   0.560  1.00  0.00    -0.293 N
ATOM     10  H3  UNL     1       9.539 -21.198   1.454  1.00  0.00     0.172 HD
ENDROOT
BRANCH   5  11
HETATM   11  S1  UNL     1       8.857 -18.653  -3.367  1.00  0.00    -0.092 SA
BRANCH  11  12
HETATM   12  C3  UNL     1       9.784 -19.281  -4.748  1.00  0.00     0.108 C
BRANCH  12  13
HETATM   13  C4  UNL     1       9.038 -20.334  -5.503  1.00  0.00     0.174 C
BRANCH  13  14
HETATM   14  O2  UNL     1       9.870 -21.238  -6.109  1.00  0.00    -0.400 OA
ATOM     15  H2  UNL     1       9.629 -21.410  -7.012  1.00  0.00     0.209 HD
ENDBRANCH  13  14
ENDBRANCH  12  13
ENDBRANCH  11  12
ENDBRANCH   5  11
BRANCH   8  16
HETATM   16  C6  UNL     1       7.031 -21.402   0.445  1.00  0.00     0.042 A
HETATM   17  C7  UNL     1       5.814 -21.115   0.269  1.00  0.00     0.006 A
HETATM   18  C8  UNL     1       5.204 -22.160   1.021  1.00  0.00     0.108 A
HETATM   19  S2  UNL     1       6.760 -22.797   1.432  1.00  0.00    -0.123 SA
ENDBRANCH   8  16
TORSDOF 5
ENDMDL