MODEL 1
REMARK VINA RESULT: -6.609472461      0.000      0.000
REMARK  2 active torsions:
REMARK  status: ('A' for Active; 'I' for Inactive)
REMARK       I    between atoms: C1_2  and  N1_3
REMARK    1  A    between atoms: C1_2  and  C5_10
REMARK    2  A    between atoms: N1_3  and  C2_5
ROOT
HETATM    1  C5  UNL     1       8.675 -20.634  -0.496  1.00  0.00     0.116 A
HETATM    2  C6  UNL     1       7.873 -21.720  -0.720  1.00  0.00     0.042 A
HETATM    3  C7  UNL     1       7.556 -22.622   0.291  1.00  0.00     0.078 A
HETATM    4  C8  UNL     1       8.089 -22.375   1.534  1.00  0.00     0.259 A
HETATM    5  O2  UNL     1       7.837 -23.163   2.496  1.00  0.00    -0.267 OA
HETATM    6  N2  UNL     1       8.876 -21.302   1.733  1.00  0.00    -0.266 N
ATOM      7  H2  UNL     1       9.263 -21.133   2.662  1.00  0.00     0.190 HD
HETATM    8  N3  UNL     1       9.165 -20.445   0.734  1.00  0.00    -0.293 N
ATOM      9  H3  UNL     1       9.766 -19.641   0.918  1.00  0.00     0.187 HD
ENDROOT
BRANCH   1  10
HETATM   10  C1  UNL     1       8.986 -19.717  -1.562  1.00  0.00     0.274 C
HETATM   11  O1  UNL     1       8.184 -19.615  -2.555  1.00  0.00    -0.266 OA
HETATM   12  N1  UNL     1      10.153 -18.901  -1.579  1.00  0.00    -0.316 N
ATOM     13  H1  UNL     1      10.827 -18.940  -0.815  1.00  0.00     0.170 HD
BRANCH  12  14
HETATM   14  C2  UNL     1      10.364 -18.006  -2.716  1.00  0.00     0.080 C
HETATM   15  C3  UNL     1       9.870 -16.818  -2.858  1.00  0.00     0.022 C
HETATM   16  C4  UNL     1      10.132 -16.002  -4.017  1.00  0.00     0.116 C
HETATM   17  S1  UNL     1      11.660 -16.560  -4.831  1.00  0.00    -0.087 SA
HETATM   18  S2  UNL     1      11.409 -18.572  -4.057  1.00  0.00    -0.040 SA
ENDBRANCH  12  14
ENDBRANCH   1  10
TORSDOF 2
ENDMDL