MODEL 2
REMARK VINA RESULT: -6.618189399      4.887      6.325
REMARK  3 active torsions:
REMARK  status: ('A' for Active; 'I' for Inactive)
REMARK    1  A    between atoms: S1_2  and  N1_4
REMARK    2  A    between atoms: S1_2  and  C5_11
REMARK    3  A    between atoms: N1_4  and  C1_6
ROOT
HETATM    1  O1  UNL     1       7.378 -24.862  -0.918  1.00  0.00    -0.200 OA
HETATM    2  S1  UNL     1       7.211 -23.429  -1.346  1.00  0.00     0.266 S
HETATM    3  O2  UNL     1       5.742 -23.108  -1.420  1.00  0.00    -0.200 OA
ENDROOT
BRANCH   2   4
HETATM    4  N1  UNL     1       7.921 -23.203  -2.864  1.00  0.00    -0.274 N
ATOM      5  H1  UNL     1       8.810 -23.664  -3.057  1.00  0.00     0.179 HD
BRANCH   4   6
HETATM    6  C1  UNL     1       7.338 -22.402  -3.884  1.00  0.00     0.083 A
HETATM    7  C2  UNL     1       6.497 -22.841  -4.894  1.00  0.00     0.038 A
HETATM    8  C3  UNL     1       6.050 -21.913  -5.757  1.00  0.00     0.010 A
HETATM    9  C4  UNL     1       6.451 -20.622  -5.578  1.00  0.00     0.052 A
HETATM   10  S2  UNL     1       7.444 -20.742  -4.206  1.00  0.00    -0.084 SA
ENDBRANCH   4   6
ENDBRANCH   2   4
BRANCH   2  11
HETATM   11  C5  UNL     1       7.897 -22.384  -0.119  1.00  0.00     0.117 C
HETATM   12  C6  UNL     1       8.866 -21.571  -0.476  1.00  0.00     0.023 C
HETATM   13  C7  UNL     1       9.509 -20.656   0.462  1.00  0.00     0.168 C
HETATM   14  N2  UNL     1       9.110 -20.893   1.807  1.00  0.00    -0.332 N
HETATM   15  N3  UNL     1       8.081 -21.756   2.106  1.00  0.00    -0.293 N
ATOM     16  H2  UNL     1       9.596 -20.413   2.565  1.00  0.00     0.180 HD
HETATM   17  C8  UNL     1       7.452 -22.499   1.263  1.00  0.00     0.141 C
ATOM     18  H3  UNL     1       7.790 -21.813   3.083  1.00  0.00     0.187 HD
HETATM   19 CL1  UNL     1       6.097 -23.506   1.740  1.00  0.00    -0.061 Cl
ENDBRANCH   2  11
TORSDOF 3
ENDMDL