MODEL 4
REMARK VINA RESULT: -8.304170053      1.712      2.383
REMARK  16 active torsions:
REMARK  status: ('A' for Active; 'I' for Inactive)
REMARK    1  A    between atoms: N1_1  and  C1_4
REMARK    2  A    between atoms: C5_8  and  C6_9
REMARK    3  A    between atoms: C6_9  and  C7_10
REMARK    4  A    between atoms: C7_10  and  C8_11
REMARK       I    between atoms: C8_11  and  N2_13
REMARK    5  A    between atoms: N2_13  and  C9_15
REMARK    6  A    between atoms: C9_15  and  C10_16
REMARK    7  A    between atoms: C10_16  and  C11_17
REMARK    8  A    between atoms: C11_17  and  C12_18
REMARK    9  A    between atoms: C12_18  and  C13_19
REMARK   10  A    between atoms: C13_19  and  C14_20
REMARK   11  A    between atoms: C14_20  and  C15_21
REMARK   12  A    between atoms: C15_21  and  N3_22
REMARK   13  A    between atoms: N3_22  and  C16_24
REMARK   14  A    between atoms: C18_30  and  N6_31
REMARK   15  A    between atoms: N6_31  and  C19_33
REMARK   16  A    between atoms: C19_33  and  C20_34
ROOT
HETATM    1  N3  UNL     1      50.512  21.250  -9.688  1.00  0.00    -0.226 N
ATOM      2  H3  UNL     1      49.965  22.077  -9.446  1.00  0.00     0.177 HD
ENDROOT
BRANCH   1   3
HETATM    3  C15 UNL     1      51.328  21.381 -10.831  1.00  0.00     0.138 C
BRANCH   3   4
HETATM    4  C14 UNL     1      51.072  22.668 -11.600  1.00  0.00     0.020 C
BRANCH   4   5
HETATM    5  C13 UNL     1      51.556  22.609 -13.024  1.00  0.00     0.002 C
BRANCH   5   6
HETATM    6  C12 UNL     1      50.515  23.010 -14.022  1.00  0.00     0.000 C
BRANCH   6   7
HETATM    7  C11 UNL     1      49.314  23.660 -13.374  1.00  0.00     0.002 C
BRANCH   7   8
HETATM    8  C10 UNL     1      48.020  23.220 -14.025  1.00  0.00     0.020 C
BRANCH   8   9
HETATM    9  C9  UNL     1      47.086  22.562 -13.068  1.00  0.00     0.122 C
BRANCH   9  10
HETATM   10  N2  UNL     1      46.946  21.163 -13.410  1.00  0.00    -0.361 N
HETATM   11  C8  UNL     1      47.458  20.083 -12.666  1.00  0.00     0.217 C
HETATM   12  O1  UNL     1      48.115  20.267 -11.592  1.00  0.00    -0.274 OA
ATOM     13  H2  UNL     1      46.432  20.940 -14.264  1.00  0.00     0.162 HD
BRANCH  11  14
HETATM   14  C7  UNL     1      47.225  18.699 -13.150  1.00  0.00     0.108 C
BRANCH  14  15
HETATM   15  C6  UNL     1      46.912  18.669 -14.627  1.00  0.00     0.066 C
BRANCH  15  16
HETATM   16  C5  UNL     1      48.072  18.390 -15.462  1.00  0.00     0.011 A
HETATM   17  C4  UNL     1      48.808  17.236 -15.339  1.00  0.00     0.025 A
HETATM   18  C3  UNL     1      49.908  16.964 -16.125  1.00  0.00     0.006 A
HETATM   19  C2  UNL     1      50.279  17.882 -17.063  1.00  0.00     0.048 A
HETATM   20  C1  UNL     1      49.543  19.037 -17.186  1.00  0.00     0.098 A
HETATM   21  N9  UNL     1      48.461  19.273 -16.391  1.00  0.00    -0.346 N
ATOM     22  H9  UNL     1      47.936  20.140 -16.507  1.00  0.00     0.167 HD
BRANCH  20  23
HETATM   23  N1  UNL     1      49.921  19.885 -18.082  1.00  0.00    -0.385 N
ATOM     24  H12 UNL     1      49.692  19.758 -19.068  1.00  0.00     0.157 HD
ATOM     25  H11 UNL     1      50.459  20.692 -17.765  1.00  0.00     0.157 HD
ENDBRANCH  20  23
ENDBRANCH  15  16
ENDBRANCH  14  15
ENDBRANCH  11  14
ENDBRANCH   9  10
ENDBRANCH   8   9
ENDBRANCH   7   8
ENDBRANCH   6   7
ENDBRANCH   5   6
ENDBRANCH   4   5
ENDBRANCH   3   4
ENDBRANCH   1   3
BRANCH   1  26
HETATM   26  C16 UNL     1      50.356  20.245  -8.908  1.00  0.00     0.693 A
HETATM   27  N4  UNL     1      50.979  20.128  -7.728  1.00  0.00    -0.187 N
HETATM   28  C17 UNL     1      50.771  19.044  -6.947  1.00  0.00     0.215 A
ATOM     29  H4  UNL     1      51.615  20.862  -7.417  1.00  0.00     0.185 HD
HETATM   30  N5  UNL     1      49.936  18.072  -7.349  1.00  0.00    -0.187 N
HETATM   31  C18 UNL     1      49.283  18.146  -8.533  1.00  0.00     0.693 A
ATOM     32  H5  UNL     1      49.791  17.260  -6.749  1.00  0.00     0.185 HD
HETATM   33  N8  UNL     1      49.511  19.229  -9.279  1.00  0.00    -0.022 N
ATOM     34  H8  UNL     1      49.030  19.306 -10.176  1.00  0.00     0.203 HD
BRANCH  31  35
HETATM   35  N6  UNL     1      48.473  17.225  -8.936  1.00  0.00    -0.221 N
ATOM     36  H6  UNL     1      48.584  16.777  -9.845  1.00  0.00     0.178 HD
BRANCH  35  37
HETATM   37  C19 UNL     1      47.398  16.859  -8.036  1.00  0.00     0.184 C
BRANCH  37  38
HETATM   38  C20 UNL     1      46.107  17.333  -8.648  1.00  0.00     0.002 A
HETATM   39  C21 UNL     1      45.920  18.283  -9.612  1.00  0.00     0.029 A
HETATM   40  C22 UNL     1      44.646  18.533  -9.994  1.00  0.00    -0.015 A
HETATM   41  C23 UNL     1      44.224  19.467 -10.967  1.00  0.00     0.030 A
HETATM   42  C26 UNL     1      43.660  17.815  -9.382  1.00  0.00     0.031 A
HETATM   43  C24 UNL     1      42.898  19.604 -11.243  1.00  0.00     0.088 A
HETATM   44  N7  UNL     1      41.907  18.890 -10.637  1.00  0.00    -0.374 N
HETATM   45  C25 UNL     1      42.306  18.002  -9.712  1.00  0.00     0.107 A
ATOM     46  H7  UNL     1      40.923  19.022 -10.872  1.00  0.00     0.164 HD
HETATM   47  S1  UNL     1      44.523  16.817  -8.300  1.00  0.00    -0.091 SA
ENDBRANCH  37  38
ENDBRANCH  35  37
ENDBRANCH  31  35
ENDBRANCH   1  26
TORSDOF 16
ENDMDL