MODEL 5
REMARK VINA RESULT: -8.297053686      3.395      5.360
REMARK  14 active torsions:
REMARK  status: ('A' for Active; 'I' for Inactive)
REMARK    1  A    between atoms: C2_2  and  C3_3
REMARK    2  A    between atoms: C3_3  and  N1_4
REMARK    3  A    between atoms: N1_4  and  C4_5
REMARK    4  A    between atoms: N1_4  and  C12_22
REMARK    5  A    between atoms: C4_5  and  C5_6
REMARK    6  A    between atoms: C5_6  and  N2_7
REMARK       I    between atoms: N2_7  and  C6_9
REMARK    7  A    between atoms: C6_9  and  C7_11
REMARK    8  A    between atoms: C9_13  and  C10_14
REMARK    9  A    between atoms: C12_22  and  C13_23
REMARK   10  A    between atoms: C13_23  and  C14_24
REMARK   11  A    between atoms: N6_27  and  C17_28
REMARK   12  A    between atoms: C18_31  and  N8_32
REMARK   13  A    between atoms: C19_37  and  S1_38
REMARK   14  A    between atoms: S1_38  and  C20_39
ROOT
HETATM    1  C12 UNL     1      44.251  15.261 -11.734  1.00  0.00     0.127 C
ENDROOT
BRANCH   1   2
HETATM    2  N1  UNL     1      43.649  15.118 -10.447  1.00  0.00    -0.372 N
BRANCH   2   3
HETATM    3  C3  UNL     1      42.610  14.192 -10.364  1.00  0.00     0.062 C
BRANCH   3   4
HETATM    4  C2  UNL     1      42.724  12.867 -11.013  1.00  0.00     0.040 C
HETATM    5  C1  UNL     1      41.695  12.749 -12.146  1.00  0.00     0.010 C
ENDBRANCH   3   4
ENDBRANCH   2   3
BRANCH   2   6
HETATM    6  C4  UNL     1      44.181  15.771  -9.353  1.00  0.00     0.082 C
BRANCH   6   7
HETATM    7  C5  UNL     1      45.129  15.084  -8.438  1.00  0.00     0.167 C
BRANCH   7   8
HETATM    8  N2  UNL     1      46.459  15.733  -8.528  1.00  0.00    -0.351 N
HETATM    9  C6  UNL     1      47.353  15.638  -7.434  1.00  0.00     0.268 C
HETATM   10  O1  UNL     1      47.057  15.022  -6.372  1.00  0.00    -0.266 OA
ATOM     11  H2  UNL     1      46.727  16.244  -9.369  1.00  0.00     0.163 HD
BRANCH   9  12
HETATM   12  C7  UNL     1      48.665  16.278  -7.552  1.00  0.00     0.101 A
HETATM   13  C8  UNL     1      49.204  17.267  -6.756  1.00  0.00     0.051 A
HETATM   14  C9  UNL     1      50.456  17.590  -7.191  1.00  0.00     0.022 A
HETATM   15  C11 UNL     1      50.693  16.783  -8.280  1.00  0.00     0.103 A
HETATM   16  N5  UNL     1      49.618  16.002  -8.488  1.00  0.00    -0.361 N
ATOM     17  H5  UNL     1      49.529  15.310  -9.232  1.00  0.00     0.165 HD
BRANCH  14  18
HETATM   18  C10 UNL     1      51.360  18.599  -6.625  1.00  0.00     0.121 C
HETATM   19  N3  UNL     1      50.898  19.668  -6.070  1.00  0.00    -0.387 N
ATOM     20  H32 UNL     1      49.887  19.799  -6.033  1.00  0.00     0.157 HD
ATOM     21  H31 UNL     1      51.526  20.369  -5.676  1.00  0.00     0.157 HD
HETATM   22  N4  UNL     1      52.758  18.418  -6.674  1.00  0.00    -0.082 NA
ENDBRANCH  14  18
ENDBRANCH   9  12
ENDBRANCH   7   8
ENDBRANCH   6   7
ENDBRANCH   2   6
ENDBRANCH   1   2
BRANCH   1  23
HETATM   23  C13 UNL     1      43.403  16.085 -12.632  1.00  0.00     0.025 C
BRANCH  23  24
HETATM   24  C14 UNL     1      44.106  17.346 -13.107  1.00  0.00    -0.010 C
HETATM   25  C15 UNL     1      45.495  17.074 -13.585  1.00  0.00     0.024 C
HETATM   26  C16 UNL     1      46.028  18.398 -14.108  1.00  0.00     0.125 C
HETATM   27  N6  UNL     1      46.096  19.354 -13.042  1.00  0.00    -0.366 N
HETATM   28  C24 UNL     1      45.290  19.224 -11.874  1.00  0.00     0.125 C
HETATM   29  C25 UNL     1      44.053  18.445 -12.112  1.00  0.00     0.024 C
BRANCH  27  30
HETATM   30  C17 UNL     1      47.003  20.449 -13.112  1.00  0.00     0.127 A
HETATM   31  N7  UNL     1      46.591  21.640 -13.620  1.00  0.00    -0.176 N
HETATM   32  C18 UNL     1      47.385  22.710 -13.707  1.00  0.00     0.678 A
ATOM     33  H7  UNL     1      45.629  21.721 -13.951  1.00  0.00     0.186 HD
HETATM   34  N9  UNL     1      48.653  22.631 -13.281  1.00  0.00    -0.185 N
HETATM   35  C19 UNL     1      49.116  21.457 -12.761  1.00  0.00     0.095 A
ATOM     36  H9  UNL     1      49.267  23.443 -13.345  1.00  0.00     0.185 HD
HETATM   37  C22 UNL     1      48.301  20.349 -12.669  1.00  0.00     0.017 A
HETATM   38  C23 UNL     1      48.757  19.047 -12.129  1.00  0.00     0.055 C
BRANCH  32  39
HETATM   39  N8  UNL     1      46.975  23.845 -14.203  1.00  0.00    -0.234 N
ATOM     40  H82 UNL     1      46.430  23.823 -15.065  1.00  0.00     0.174 HD
ATOM     41  H81 UNL     1      47.177  24.740 -13.756  1.00  0.00     0.174 HD
ENDBRANCH  32  39
BRANCH  35  42
HETATM   42  S1  UNL     1      50.819  21.368 -12.226  1.00  0.00    -0.112 SA
BRANCH  42  43
HETATM   43  C20 UNL     1      50.916  21.844 -10.494  1.00  0.00     0.076 C
HETATM   44  C21 UNL     1      50.959  20.643  -9.614  1.00  0.00     0.016 C
ENDBRANCH  42  43
ENDBRANCH  35  42
ENDBRANCH  27  30
ENDBRANCH  23  24
ENDBRANCH   1  23
TORSDOF 14
ENDMDL