MODEL 4
REMARK VINA RESULT: -8.328149436      1.755      3.129
REMARK  16 active torsions:
REMARK  status: ('A' for Active; 'I' for Inactive)
REMARK    1  A    between atoms: C2_2  and  C3_3
REMARK    2  A    between atoms: C4_4  and  C5_5
REMARK    3  A    between atoms: C5_5  and  N1_6
REMARK    4  A    between atoms: N1_6  and  C6_8
REMARK    5  A    between atoms: C9_11  and  O1_12
REMARK    6  A    between atoms: O1_12  and  C10_13
REMARK    7  A    between atoms: C10_13  and  C11_14
REMARK    8  A    between atoms: C11_14  and  C12_15
REMARK    9  A    between atoms: C12_15  and  N2_16
REMARK   10  A    between atoms: N2_16  and  C13_19
REMARK   11  A    between atoms: C13_19  and  C14_20
REMARK   12  A    between atoms: C14_20  and  C15_21
REMARK   13  A    between atoms: C15_21  and  N3_22
REMARK   14  A    between atoms: C24_34  and  O2_35
REMARK   15  A    between atoms: C29_41  and  O3_42
REMARK   16  A    between atoms: C30_44  and  O4_45
ROOT
HETATM    1  C6  UNL     1      45.773  19.937 -12.438  1.00  0.00     0.108 C
HETATM    2  C7  UNL     1      46.077  19.431 -13.799  1.00  0.00     0.030 C
HETATM    3  C8  UNL     1      47.119  18.358 -13.865  1.00  0.00     0.035 C
HETATM    4  C9  UNL     1      48.541  18.882 -13.868  1.00  0.00     0.133 C
HETATM    5  C20 UNL     1      49.059  19.330 -12.562  1.00  0.00     0.085 C
HETATM    6  C21 UNL     1      49.996  20.470 -12.584  1.00  0.00    -0.042 A
HETATM    7  C22 UNL     1      50.330  21.249 -13.658  1.00  0.00     0.011 A
HETATM    8  C23 UNL     1      51.230  22.303 -13.581  1.00  0.00     0.037 A
HETATM    9  C24 UNL     1      51.819  22.592 -12.381  1.00  0.00     0.066 A
HETATM   10  C25 UNL     1      51.489  21.805 -11.267  1.00  0.00     0.044 A
HETATM   11  C26 UNL     1      50.597  20.770 -11.378  1.00  0.00    -0.049 A
HETATM   12  C27 UNL     1      50.232  19.935 -10.219  1.00  0.00     0.042 C
HETATM   13  C28 UNL     1      48.719  19.992 -10.182  1.00  0.00     0.046 C
HETATM   14  C29 UNL     1      48.063  19.550 -11.461  1.00  0.00     0.096 C
HETATM   15  C30 UNL     1      47.006  20.563 -11.791  1.00  0.00     0.175 C
ENDROOT
BRANCH   4  16
HETATM   16  O1  UNL     1      49.345  17.836 -14.330  1.00  0.00    -0.385 OA
BRANCH  16  17
HETATM   17  C10 UNL     1      49.313  17.579 -15.659  1.00  0.00     0.169 C
BRANCH  17  18
HETATM   18  C11 UNL     1      49.679  16.195 -16.098  1.00  0.00     0.054 C
BRANCH  18  19
HETATM   19  C12 UNL     1      48.679  15.240 -15.429  1.00  0.00     0.234 C
BRANCH  19  20
HETATM   20  N2  UNL     1      48.949  15.057 -14.045  1.00  0.00    -0.075 N
ATOM     21  H22 UNL     1      49.703  14.386 -13.901  1.00  0.00     0.277 HD
ATOM     22  H21 UNL     1      49.390  15.883 -13.641  1.00  0.00     0.277 HD
BRANCH  20  23
HETATM   23  C13 UNL     1      47.783  14.687 -13.322  1.00  0.00     0.234 C
BRANCH  23  24
HETATM   24  C14 UNL     1      47.980  14.697 -11.818  1.00  0.00     0.047 C
BRANCH  24  25
HETATM   25  C15 UNL     1      46.687  15.024 -11.105  1.00  0.00     0.122 C
BRANCH  25  26
HETATM   26  N3  UNL     1      45.751  15.767 -11.874  1.00  0.00    -0.380 N
HETATM   27  C16 UNL     1      44.481  15.669 -11.899  1.00  0.00     0.072 C
HETATM   28  C17 UNL     1      43.586  16.504 -12.743  1.00  0.00     0.077 C
HETATM   29  N4  UNL     1      43.664  14.762 -11.156  1.00  0.00    -0.380 N
HETATM   30  C18 UNL     1      42.195  16.141 -12.304  1.00  0.00     0.027 C
HETATM   31  C19 UNL     1      42.344  14.746 -11.736  1.00  0.00     0.121 C
ATOM     32  H4  UNL     1      43.965  14.216 -10.348  1.00  0.00     0.160 HD
ATOM     33  H3  UNL     1      46.151  16.476 -12.489  1.00  0.00     0.160 HD
ENDBRANCH  25  26
ENDBRANCH  24  25
ENDBRANCH  23  24
ENDBRANCH  20  23
ENDBRANCH  19  20
ENDBRANCH  18  19
ENDBRANCH  17  18
ENDBRANCH  16  17
ENDBRANCH   4  16
BRANCH  14  34
HETATM   34  O3  UNL     1      47.389  18.360 -11.088  1.00  0.00    -0.386 OA
ATOM     35  H3  UNL     1      47.025  18.405 -10.211  1.00  0.00     0.210 HD
ENDBRANCH  14  34
BRANCH   1  36
HETATM   36  N1  UNL     1      44.775  20.962 -12.461  1.00  0.00    -0.411 N
ATOM     37  H1  UNL     1      44.923  21.858 -12.925  1.00  0.00     0.153 HD
BRANCH  36  38
HETATM   38  C5  UNL     1      43.544  20.638 -11.780  1.00  0.00     0.141 C
BRANCH  38  39
HETATM   39  C4  UNL     1      43.868  19.616 -10.760  1.00  0.00    -0.012 C
HETATM   40  C3  UNL     1      42.989  18.953 -10.031  1.00  0.00    -0.029 C
BRANCH  40  41
HETATM   41  C2  UNL     1      41.530  19.092 -10.084  1.00  0.00     0.022 C
HETATM   42  C1  UNL     1      40.946  18.200  -8.984  1.00  0.00     0.009 C
ENDBRANCH  40  41
ENDBRANCH  38  39
ENDBRANCH  36  38
ENDBRANCH   1  36
BRANCH  15  43
HETATM   43  O4  UNL     1      47.483  21.658 -12.488  1.00  0.00    -0.390 OA
ATOM     44  H4  UNL     1      47.663  21.466 -13.401  1.00  0.00     0.210 HD
ENDBRANCH  15  43
BRANCH   9  45
HETATM   45  O2  UNL     1      52.717  23.641 -12.301  1.00  0.00    -0.361 OA
ATOM     46  H2  UNL     1      53.488  23.555 -11.754  1.00  0.00     0.217 HD
ENDBRANCH   9  45
TORSDOF 16
ENDMDL