MODEL 3
REMARK VINA RESULT: -7.222612866      0.977      1.259
REMARK  20 active torsions:
REMARK  status: ('A' for Active; 'I' for Inactive)
REMARK    1  A    between atoms: C4_4  and  C5_5
REMARK    2  A    between atoms: C5_5  and  C6_6
REMARK    3  A    between atoms: C7_7  and  C9_9
REMARK    4  A    between atoms: C9_9  and  C10_10
REMARK    5  A    between atoms: C10_10  and  C11_11
REMARK    6  A    between atoms: C12_12  and  C13_13
REMARK    7  A    between atoms: C13_13  and  C14_14
REMARK    8  A    between atoms: C14_14  and  C15_15
REMARK    9  A    between atoms: C15_15  and  O1_16
REMARK   10  A    between atoms: C15_15  and  C16_18
REMARK   11  A    between atoms: C18_20  and  O2_21
REMARK   12  A    between atoms: C18_20  and  C19_23
REMARK   13  A    between atoms: C19_23  and  C21_25
REMARK   14  A    between atoms: C19_23  and  N1_40
REMARK   15  A    between atoms: C21_25  and  O3_26
REMARK   16  A    between atoms: C21_25  and  C22_28
REMARK   17  A    between atoms: C23_30  and  C24_31
REMARK   18  A    between atoms: C24_31  and  O5_32
REMARK   19  A    between atoms: C25_34  and  O6_35
REMARK   20  A    between atoms: C26_37  and  O7_38
ROOT
HETATM    1  C16 UNL     1      46.283  16.853 -13.549  1.00  0.00    -0.023 C
HETATM    2  C17 UNL     1      47.375  15.931 -13.860  1.00  0.00     0.049 C
HETATM    3  C18 UNL     1      46.344  18.296 -13.526  1.00  0.00     0.089 C
ENDROOT
BRANCH   3   4
HETATM    4  O2  UNL     1      46.385  18.791 -14.841  1.00  0.00    -0.362 OA
ATOM      5  H2  UNL     1      45.618  18.497 -15.318  1.00  0.00     0.217 HD
ENDBRANCH   3   4
BRANCH   3   6
HETATM    6  C19 UNL     1      47.129  19.132 -12.635  1.00  0.00     0.232 C
HETATM    7  C20 UNL     1      48.228  18.416 -11.842  1.00  0.00     0.060 C
BRANCH   6   8
HETATM    8  C21 UNL     1      48.032  20.012 -13.587  1.00  0.00     0.195 C
BRANCH   8   9
HETATM    9  O3  UNL     1      48.991  19.159 -14.122  1.00  0.00    -0.390 OA
ATOM     10  H3  UNL     1      48.641  18.841 -14.946  1.00  0.00     0.210 HD
ENDBRANCH   8   9
BRANCH   8  11
HETATM   11  C22 UNL     1      48.739  21.100 -12.819  1.00  0.00     0.185 C
HETATM   12  O4  UNL     1      50.080  21.088 -12.794  1.00  0.00    -0.370 OA
HETATM   13  C23 UNL     1      50.615  22.209 -13.388  1.00  0.00     0.177 C
HETATM   14  C25 UNL     1      49.536  23.043 -13.970  1.00  0.00     0.180 C
HETATM   15  C26 UNL     1      48.271  22.395 -13.466  1.00  0.00     0.181 C
BRANCH  13  16
HETATM   16  C24 UNL     1      51.511  23.053 -12.542  1.00  0.00     0.198 C
BRANCH  16  17
HETATM   17  O5  UNL     1      52.342  23.847 -13.340  1.00  0.00    -0.398 OA
ATOM     18  H5  UNL     1      52.018  24.738 -13.380  1.00  0.00     0.209 HD
ENDBRANCH  16  17
ENDBRANCH  13  16
BRANCH  14  19
HETATM   19  O6  UNL     1      49.613  24.382 -13.625  1.00  0.00    -0.390 OA
ATOM     20  H6  UNL     1      48.799  24.742 -13.292  1.00  0.00     0.210 HD
ENDBRANCH  14  19
BRANCH  15  21
HETATM   21  O7  UNL     1      47.613  23.235 -12.560  1.00  0.00    -0.390 OA
ATOM     22  H7  UNL     1      47.073  23.884 -12.996  1.00  0.00     0.210 HD
ENDBRANCH  15  21
ENDBRANCH   8  11
ENDBRANCH   6   8
BRANCH   6  23
HETATM   23  N1  UNL     1      46.512  20.157 -11.843  1.00  0.00     0.107 N
HETATM   24  C27 UNL     1      45.231  20.631 -11.954  1.00  0.00     0.276 A
HETATM   25  C28 UNL     1      44.871  20.203 -10.551  1.00  0.00     0.060 A
HETATM   26  C29 UNL     1      46.310  19.811 -10.441  1.00  0.00     0.276 A
ENDBRANCH   6  23
ENDBRANCH   3   6
BRANCH   1  27
HETATM   27  C15 UNL     1      45.041  16.250 -14.224  1.00  0.00     0.159 C
BRANCH  27  28
HETATM   28  C14 UNL     1      43.779  16.599 -13.475  1.00  0.00     0.121 C
BRANCH  28  29
HETATM   29  C13 UNL     1      43.211  15.846 -12.616  1.00  0.00    -0.153 C
BRANCH  29  30
HETATM   30  C12 UNL     1      42.611  15.041 -11.671  1.00  0.00     0.047 C
HETATM   31  C11 UNL     1      41.428  15.312 -11.006  1.00  0.00    -0.019 C
BRANCH  31  32
HETATM   32  C10 UNL     1      41.140  14.244 -10.087  1.00  0.00     0.032 C
BRANCH  32  33
HETATM   33  C9  UNL     1      40.772  15.249  -8.838  1.00  0.00     0.037 C
BRANCH  33  34
HETATM   34  C7  UNL     1      41.541  14.998  -7.716  1.00  0.00    -0.087 C
HETATM   35  C6  UNL     1      42.678  15.606  -7.452  1.00  0.00    -0.021 C
HETATM   36  C8  UNL     1      41.108  13.979  -6.665  1.00  0.00     0.043 C
BRANCH  35  37
HETATM   37  C5  UNL     1      43.288  16.627  -8.344  1.00  0.00     0.054 C
BRANCH  37  38
HETATM   38  C4  UNL     1      44.663  16.895  -7.888  1.00  0.00    -0.021 C
HETATM   39  C2  UNL     1      45.720  16.663  -8.607  1.00  0.00    -0.091 C
HETATM   40  C1  UNL     1      47.097  16.974  -8.041  1.00  0.00     0.042 C
HETATM   41  C3  UNL     1      45.695  16.118  -9.970  1.00  0.00     0.042 C
ENDBRANCH  37  38
ENDBRANCH  35  37
ENDBRANCH  33  34
ENDBRANCH  32  33
ENDBRANCH  31  32
ENDBRANCH  29  30
ENDBRANCH  28  29
ENDBRANCH  27  28
BRANCH  27  42
HETATM   42  O1  UNL     1      45.164  14.880 -14.368  1.00  0.00    -0.390 OA
ATOM     43  H1  UNL     1      45.293  14.645 -15.281  1.00  0.00     0.210 HD
ENDBRANCH  27  42
ENDBRANCH   1  27
TORSDOF 20
ENDMDL