MODEL 5
REMARK VINA RESULT: -8.161846093      1.039      1.609
REMARK  19 active torsions:
REMARK  status: ('A' for Active; 'I' for Inactive)
REMARK    1  A    between atoms: C2_2  and  C4_4
REMARK    2  A    between atoms: C4_4  and  C7_7
REMARK    3  A    between atoms: C7_7  and  C8_8
REMARK    4  A    between atoms: C8_8  and  C9_9
REMARK    5  A    between atoms: C8_8  and  C21_22
REMARK    6  A    between atoms: C9_9  and  S1_10
REMARK    7  A    between atoms: S1_10  and  C10_11
REMARK    8  A    between atoms: C10_11  and  C11_12
REMARK    9  A    between atoms: C11_12  and  C12_13
REMARK   10  A    between atoms: C12_13  and  C13_14
REMARK   11  A    between atoms: C13_14  and  C14_15
REMARK   12  A    between atoms: C14_15  and  C15_16
REMARK   13  A    between atoms: C15_16  and  C16_17
REMARK       I    between atoms: C21_22  and  N1_24
REMARK   14  A    between atoms: N1_24  and  C22_26
REMARK   15  A    between atoms: C23_27  and  O2_28
REMARK   16  A    between atoms: C24_30  and  O3_31
REMARK   17  A    between atoms: C25_33  and  O4_34
REMARK   18  A    between atoms: C26_36  and  O5_37
REMARK   19  A    between atoms: C27_39  and  O6_40
ROOT
HETATM    1  C8  UNL     1      49.089  19.946 -12.147  1.00  0.00     0.016 C
ENDROOT
BRANCH   1   2
HETATM    2  C7  UNL     1      50.261  20.658 -12.664  1.00  0.00    -0.004 C
BRANCH   2   3
HETATM    3  C4  UNL     1      50.192  21.748 -13.619  1.00  0.00    -0.026 C
HETATM    4  C5  UNL     1      49.339  22.950 -13.238  1.00  0.00     0.019 C
HETATM    5  C6  UNL     1      49.804  21.421 -15.042  1.00  0.00     0.019 C
BRANCH   3   6
HETATM    6  C2  UNL     1      51.610  22.337 -13.758  1.00  0.00    -0.011 C
HETATM    7  C1  UNL     1      51.852  22.878 -15.124  1.00  0.00     0.010 C
HETATM    8  C3  UNL     1      51.940  23.328 -12.698  1.00  0.00     0.010 C
ENDBRANCH   3   6
ENDBRANCH   2   3
ENDBRANCH   1   2
BRANCH   1   9
HETATM    9  C9  UNL     1      48.444  18.893 -12.955  1.00  0.00     0.117 C
BRANCH   9  10
HETATM   10  S1  UNL     1      46.773  19.378 -13.536  1.00  0.00    -0.164 SA
BRANCH  10  11
HETATM   11  C10 UNL     1      45.961  17.979 -14.351  1.00  0.00     0.074 C
BRANCH  11  12
HETATM   12  C11 UNL     1      44.760  17.615 -13.468  1.00  0.00     0.010 C
BRANCH  12  13
HETATM   13  C12 UNL     1      44.504  16.125 -13.589  1.00  0.00     0.001 C
BRANCH  13  14
HETATM   14  C13 UNL     1      43.130  15.776 -13.081  1.00  0.00     0.000 C
BRANCH  14  15
HETATM   15  C14 UNL     1      43.083  15.844 -11.576  1.00  0.00     0.000 C
BRANCH  15  16
HETATM   16  C15 UNL     1      41.992  16.822 -11.186  1.00  0.00     0.004 C
BRANCH  16  17
HETATM   17  C16 UNL     1      42.275  17.551  -9.910  1.00  0.00    -0.014 C
HETATM   18  C17 UNL     1      43.698  18.043  -9.814  1.00  0.00     0.004 C
HETATM   19  C18 UNL     1      43.705  19.351 -10.586  1.00  0.00     0.000 C
HETATM   20  C19 UNL     1      42.342  19.930 -10.367  1.00  0.00     0.000 C
HETATM   21  C20 UNL     1      41.436  18.818  -9.923  1.00  0.00     0.004 C
ENDBRANCH  16  17
ENDBRANCH  15  16
ENDBRANCH  14  15
ENDBRANCH  13  14
ENDBRANCH  12  13
ENDBRANCH  11  12
ENDBRANCH  10  11
ENDBRANCH   9  10
ENDBRANCH   1   9
BRANCH   1  22
HETATM   22  C21 UNL     1      49.119  19.671 -10.668  1.00  0.00     0.248 C
HETATM   23  O1  UNL     1      47.977  19.664 -10.100  1.00  0.00    -0.268 OA
HETATM   24  N1  UNL     1      50.261  19.430  -9.912  1.00  0.00    -0.347 N
ATOM     25  H1  UNL     1      51.183  19.429 -10.347  1.00  0.00     0.163 HD
BRANCH  24  26
HETATM   26  C22 UNL     1      50.111  19.176  -8.471  1.00  0.00     0.147 C
HETATM   27  C23 UNL     1      51.118  20.035  -7.747  1.00  0.00     0.174 C
HETATM   28  C24 UNL     1      51.292  19.626  -6.320  1.00  0.00     0.180 C
HETATM   29  C25 UNL     1      51.804  18.201  -6.310  1.00  0.00     0.180 C
HETATM   30  C26 UNL     1      50.753  17.314  -6.898  1.00  0.00     0.180 C
HETATM   31  C27 UNL     1      50.292  17.712  -8.259  1.00  0.00     0.174 C
BRANCH  27  32
HETATM   32  O2  UNL     1      50.611  21.347  -7.764  1.00  0.00    -0.391 OA
ATOM     33  H2  UNL     1      51.151  21.839  -8.370  1.00  0.00     0.210 HD
ENDBRANCH  27  32
BRANCH  28  34
HETATM   34  O3  UNL     1      52.262  20.432  -5.741  1.00  0.00    -0.390 OA
ATOM     35  H3  UNL     1      53.092  19.971  -5.760  1.00  0.00     0.210 HD
ENDBRANCH  28  34
BRANCH  29  36
HETATM   36  O4  UNL     1      52.962  18.197  -7.111  1.00  0.00    -0.390 OA
ATOM     37  H4  UNL     1      52.899  18.962  -7.669  1.00  0.00     0.210 HD
ENDBRANCH  29  36
BRANCH  30  38
HETATM   38  O5  UNL     1      49.716  17.175  -5.980  1.00  0.00    -0.390 OA
ATOM     39  H5  UNL     1      48.911  17.485  -6.378  1.00  0.00     0.210 HD
ENDBRANCH  30  38
BRANCH  31  40
HETATM   40  O6  UNL     1      49.072  17.060  -8.497  1.00  0.00    -0.391 OA
ATOM     41  H6  UNL     1      49.033  16.272  -7.969  1.00  0.00     0.210 HD
ENDBRANCH  31  40
ENDBRANCH  24  26
ENDBRANCH   1  22
TORSDOF 19
ENDMDL