MODEL 2
REMARK VINA RESULT: -9.571386772      1.350      1.937
REMARK  15 active torsions:
REMARK  status: ('A' for Active; 'I' for Inactive)
REMARK    1  A    between atoms: C2_2  and  C3_6
REMARK    2  A    between atoms: C4_7  and  C5_8
REMARK    3  A    between atoms: C9_12  and  C10_13
REMARK    4  A    between atoms: C11_14  and  C12_15
REMARK    5  A    between atoms: C12_15  and  O1_16
REMARK    6  A    between atoms: C12_15  and  C13_18
REMARK    7  A    between atoms: C15_20  and  O2_21
REMARK    8  A    between atoms: C15_20  and  C16_23
REMARK    9  A    between atoms: C18_27  and  C19_28
REMARK   10  A    between atoms: C20_32  and  C21_33
REMARK   11  A    between atoms: C21_33  and  C22_34
REMARK   12  A    between atoms: C23_35  and  C24_36
REMARK   13  A    between atoms: C24_36  and  C25_37
REMARK   14  A    between atoms: C25_37  and  C26_38
REMARK   15  A    between atoms: C26_38  and  C27_39
ROOT
HETATM    1  C5  UNL     1      44.643  18.669 -10.479  1.00  0.00     0.017 C
HETATM    2  C6  UNL     1      43.345  19.433 -10.774  1.00  0.00    -0.010 C
HETATM    3  C7  UNL     1      42.382  18.632 -11.589  1.00  0.00     0.010 C
HETATM    4  C8  UNL     1      43.787  20.631 -11.598  1.00  0.00     0.013 C
HETATM    5  C9  UNL     1      44.873  19.990 -12.488  1.00  0.00     0.013 C
HETATM    6  C20 UNL     1      45.625  19.099 -11.559  1.00  0.00     0.004 C
ENDROOT
BRANCH   5   7
HETATM    7  C10 UNL     1      45.644  21.095 -13.078  1.00  0.00    -0.023 C
HETATM    8  C11 UNL     1      46.768  21.539 -12.569  1.00  0.00     0.003 C
BRANCH   8   9
HETATM    9  C12 UNL     1      47.510  22.678 -13.228  1.00  0.00     0.169 C
BRANCH   9  10
HETATM   10  O1  UNL     1      47.682  23.648 -12.246  1.00  0.00    -0.389 OA
ATOM     11  H1  UNL     1      47.319  24.451 -12.602  1.00  0.00     0.210 HD
ENDBRANCH   9  10
BRANCH   9  12
HETATM   12  C13 UNL     1      48.826  22.239 -13.791  1.00  0.00     0.158 C
HETATM   13  C14 UNL     1      49.821  23.376 -13.716  1.00  0.00     0.084 C
HETATM   14  C15 UNL     1      51.174  22.730 -13.982  1.00  0.00     0.150 C
HETATM   15  C17 UNL     1      51.065  21.525 -14.874  1.00  0.00     0.092 C
HETATM   16  C18 UNL     1      49.845  21.483 -15.724  1.00  0.00     0.226 C
HETATM   17  O7  UNL     1      48.685  21.907 -15.122  1.00  0.00    -0.367 OA
BRANCH  14  18
HETATM   18  O2  UNL     1      52.034  23.681 -14.559  1.00  0.00    -0.379 OA
ATOM     19  H2  UNL     1      52.186  23.453 -15.468  1.00  0.00     0.211 HD
ENDBRANCH  14  18
BRANCH  14  20
HETATM   20  C16 UNL     1      51.743  22.365 -12.666  1.00  0.00     0.209 C
HETATM   21  O3  UNL     1      52.743  22.931 -12.149  1.00  0.00    -0.646 OA
HETATM   22  O4  UNL     1      51.169  21.349 -11.932  1.00  0.00    -0.646 OA
ENDBRANCH  14  20
BRANCH  16  23
HETATM   23  C19 UNL     1      49.640  20.078 -16.172  1.00  0.00     0.203 C
HETATM   24  O5  UNL     1      49.663  19.772 -17.407  1.00  0.00    -0.646 OA
HETATM   25  O6  UNL     1      49.414  19.030 -15.290  1.00  0.00    -0.646 OA
ENDBRANCH  16  23
ENDBRANCH   9  12
ENDBRANCH   8   9
ENDBRANCH   5   7
BRANCH   6  26
HETATM   26  C21 UNL     1      46.083  17.855 -12.285  1.00  0.00     0.033 C
BRANCH  26  27
HETATM   27  C22 UNL     1      47.482  17.967 -12.736  1.00  0.00    -0.030 C
HETATM   28  C23 UNL     1      48.549  17.961 -11.994  1.00  0.00    -0.031 C
BRANCH  28  29
HETATM   29  C24 UNL     1      48.563  17.837 -10.531  1.00  0.00     0.027 C
BRANCH  29  30
HETATM   30  C25 UNL     1      49.141  19.135  -9.977  1.00  0.00     0.014 C
BRANCH  30  31
HETATM   31  C26 UNL     1      49.899  18.860  -8.696  1.00  0.00     0.113 C
BRANCH  31  32
HETATM   32  C27 UNL     1      50.682  20.055  -8.331  1.00  0.00     0.172 C
HETATM   33  O8  UNL     1      50.137  21.175  -8.287  1.00  0.00    -0.648 OA
HETATM   34  O9  UNL     1      52.025  19.939  -8.036  1.00  0.00    -0.648 OA
ENDBRANCH  31  32
ENDBRANCH  30  31
ENDBRANCH  29  30
ENDBRANCH  28  29
ENDBRANCH  26  27
ENDBRANCH   6  26
BRANCH   1  35
HETATM   35  C4  UNL     1      44.307  17.260 -10.481  1.00  0.00    -0.019 C
HETATM   36  C3  UNL     1      44.351  16.373  -9.539  1.00  0.00     0.020 C
BRANCH  36  37
HETATM   37  C2  UNL     1      44.753  16.488  -8.156  1.00  0.00    -0.002 C
HETATM   38  C1  UNL     1      46.206  16.777  -7.816  1.00  0.00     0.067 C
HETATM   39  N1  UNL     1      43.960  16.361  -7.169  1.00  0.00    -0.403 N
ATOM     40  H12 UNL     1      44.244  16.441  -6.193  1.00  0.00     0.156 HD
ATOM     41  H11 UNL     1      42.984  16.167  -7.398  1.00  0.00     0.156 HD
ENDBRANCH  36  37
ENDBRANCH   1  35
TORSDOF 15
ENDMDL