MODEL 4
REMARK VINA RESULT: -9.444437957      1.592      2.699
REMARK  17 active torsions:
REMARK  status: ('A' for Active; 'I' for Inactive)
REMARK    1  A    between atoms: C2_2  and  C3_3
REMARK    2  A    between atoms: C3_3  and  C4_4
REMARK    3  A    between atoms: C4_4  and  N1_5
REMARK    4  A    between atoms: N1_5  and  C5_6
REMARK    5  A    between atoms: N1_5  and  C8_9
REMARK    6  A    between atoms: C5_6  and  C6_7
REMARK    7  A    between atoms: C8_9  and  C9_10
REMARK    8  A    between atoms: C9_10  and  N2_11
REMARK    9  A    between atoms: N2_11  and  C10_12
REMARK   10  A    between atoms: N2_11  and  C16_25
REMARK   11  A    between atoms: C10_12  and  C11_13
REMARK   12  A    between atoms: C11_13  and  N3_14
REMARK       I    between atoms: N3_14  and  C12_16
REMARK   13  A    between atoms: C12_16  and  C13_18
REMARK   14  A    between atoms: C16_25  and  O2_26
REMARK   15  A    between atoms: C16_25  and  C17_28
REMARK   16  A    between atoms: C24_38  and  N7_39
REMARK   17  A    between atoms: C25_44  and  N9_45
ROOT
HETATM    1  N2  UNL     1      49.944  17.939  -7.855  1.00  0.00    -0.358 N
ENDROOT
BRANCH   1   2
HETATM    2  C9  UNL     1      49.145  16.935  -7.031  1.00  0.00     0.155 C
BRANCH   2   3
HETATM    3  C8  UNL     1      49.337  15.577  -7.490  1.00  0.00     0.292 C
BRANCH   3   4
HETATM    4  N1  UNL     1      48.267  14.821  -8.083  1.00  0.00     0.090 N
BRANCH   4   5
HETATM    5  C4  UNL     1      47.056  15.312  -7.470  1.00  0.00     0.272 C
BRANCH   5   6
HETATM    6  C3  UNL     1      45.865  15.593  -8.251  1.00  0.00     0.030 C
BRANCH   6   7
HETATM    7  C2  UNL     1      44.878  16.622  -7.937  1.00  0.00    -0.003 C
HETATM    8  C1  UNL     1      44.533  17.547  -9.083  1.00  0.00     0.005 C
ENDBRANCH   6   7
ENDBRANCH   5   6
ENDBRANCH   4   5
BRANCH   4   9
HETATM    9  C5  UNL     1      48.222  14.625  -9.454  1.00  0.00     0.272 C
BRANCH   9  10
HETATM   10  C6  UNL     1      49.435  15.090 -10.257  1.00  0.00     0.026 C
HETATM   11  C7  UNL     1      49.067  15.268 -11.715  1.00  0.00     0.007 C
ENDBRANCH   9  10
ENDBRANCH   4   9
ENDBRANCH   3   4
ENDBRANCH   2   3
ENDBRANCH   1   2
BRANCH   1  12
HETATM   12  C10 UNL     1      51.286  18.204  -7.481  1.00  0.00     0.144 C
BRANCH  12  13
HETATM   13  C11 UNL     1      51.558  19.511  -6.807  1.00  0.00     0.143 C
BRANCH  13  14
HETATM   14  N3  UNL     1      51.643  19.312  -5.378  1.00  0.00    -0.353 N
HETATM   15  C12 UNL     1      52.760  18.845  -4.675  1.00  0.00     0.285 C
HETATM   16  O1  UNL     1      53.832  18.559  -5.264  1.00  0.00    -0.264 OA
ATOM     17  H3  UNL     1      50.811  19.532  -4.830  1.00  0.00     0.162 HD
BRANCH  15  18
HETATM   18  C13 UNL     1      52.752  18.662  -3.230  1.00  0.00     0.174 A
HETATM   19  N4  UNL     1      51.689  18.613  -2.415  1.00  0.00    -0.346 N
HETATM   20  C14 UNL     1      52.104  18.442  -1.145  1.00  0.00     0.107 A
ATOM     21  H4  UNL     1      50.716  18.693  -2.710  1.00  0.00     0.167 HD
HETATM   22  C15 UNL     1      53.479  18.381  -1.169  1.00  0.00     0.107 A
HETATM   23  N5  UNL     1      53.844  18.520  -2.455  1.00  0.00    -0.346 N
ATOM     24  H5  UNL     1      54.807  18.517  -2.793  1.00  0.00     0.167 HD
ENDBRANCH  15  18
ENDBRANCH  13  14
ENDBRANCH  12  13
ENDBRANCH   1  12
BRANCH   1  25
HETATM   25  C16 UNL     1      49.217  18.515  -8.884  1.00  0.00     0.148 C
BRANCH  25  26
HETATM   26  O2  UNL     1      47.882  18.417  -8.730  1.00  0.00    -0.346 OA
ATOM     27  H2  UNL     1      47.544  18.901  -7.984  1.00  0.00     0.219 HD
ENDBRANCH  25  26
BRANCH  25  28
HETATM   28  C17 UNL     1      49.529  19.204 -10.101  1.00  0.00     0.017 A
HETATM   29  C18 UNL     1      48.864  18.860 -11.299  1.00  0.00     0.017 A
HETATM   30  C19 UNL     1      49.121  19.508 -12.486  1.00  0.00     0.016 A
HETATM   31  C20 UNL     1      50.041  20.523 -12.547  1.00  0.00     0.016 A
HETATM   32  C21 UNL     1      50.719  20.901 -11.414  1.00  0.00     0.090 A
HETATM   33  C26 UNL     1      50.520  21.360 -13.558  1.00  0.00     0.073 A
HETATM   34  C22 UNL     1      50.442  20.225 -10.212  1.00  0.00     0.054 A
HETATM   35  O3  UNL     1      51.541  21.879 -11.690  1.00  0.00    -0.291 OA
HETATM   36  C23 UNL     1      51.463  22.196 -12.970  1.00  0.00     0.178 A
HETATM   37  N6  UNL     1      52.083  23.108 -13.728  1.00  0.00    -0.169 N
HETATM   38  C24 UNL     1      51.800  23.214 -15.032  1.00  0.00     0.679 A
ATOM     39  H6  UNL     1      52.776  23.727 -13.309  1.00  0.00     0.186 HD
HETATM   40  N8  UNL     1      50.905  22.428 -15.620  1.00  0.00    -0.176 N
HETATM   41  C25 UNL     1      50.230  21.469 -14.898  1.00  0.00     0.130 A
ATOM     42  H8  UNL     1      50.716  22.536 -16.616  1.00  0.00     0.186 HD
BRANCH  38  43
HETATM   43  N7  UNL     1      52.421  24.116 -15.753  1.00  0.00    -0.234 N
ATOM     44  H72 UNL     1      52.451  25.079 -15.418  1.00  0.00     0.174 HD
ATOM     45  H71 UNL     1      52.859  23.840 -16.631  1.00  0.00     0.174 HD
ENDBRANCH  38  43
BRANCH  41  46
HETATM   46  N9  UNL     1      49.396  20.747 -15.465  1.00  0.00    -0.384 N
ATOM     47  H92 UNL     1      49.072  20.920 -16.417  1.00  0.00     0.157 HD
ATOM     48  H91 UNL     1      49.008  19.942 -14.975  1.00  0.00     0.157 HD
ENDBRANCH  41  46
ENDBRANCH  25  28
ENDBRANCH   1  25
TORSDOF 17
ENDMDL