MODEL 5
REMARK VINA RESULT: -8.451886153      2.343      3.311
REMARK  13 active torsions:
REMARK  status: ('A' for Active; 'I' for Inactive)
REMARK    1  A    between atoms: C2_3  and  C3_4
REMARK    2  A    between atoms: N3_9  and  C6_11
REMARK    3  A    between atoms: C6_11  and  C7_12
REMARK    4  A    between atoms: C7_12  and  C8_13
REMARK    5  A    between atoms: C8_13  and  N4_14
REMARK       I    between atoms: N4_14  and  C9_16
REMARK    6  A    between atoms: C10_21  and  S1_22
REMARK    7  A    between atoms: S1_22  and  C11_23
REMARK    8  A    between atoms: C11_23  and  C12_24
REMARK    9  A    between atoms: C12_24  and  N7_25
REMARK   10  A    between atoms: C17_35  and  O1_36
REMARK   11  A    between atoms: O1_36  and  C18_37
REMARK   12  A    between atoms: C18_37  and  C19_38
REMARK   13  A    between atoms: C19_38  and  C20_39
ROOT
HETATM    1  C3  UNL     1      48.134  18.828 -11.019  1.00  0.00     0.025 A
HETATM    2  C4  UNL     1      48.664  19.513 -12.112  1.00  0.00     0.105 A
HETATM    3  N2  UNL     1      49.699  20.359 -12.017  1.00  0.00    -0.351 N
ATOM      4  H2  UNL     1      50.033  20.823 -12.861  1.00  0.00     0.166 HD
HETATM    5  C5  UNL     1      50.311  20.620 -10.850  1.00  0.00     0.118 A
HETATM    6  N3  UNL     1      51.337  21.431 -10.786  1.00  0.00    -0.375 N
ATOM      7  H3  UNL     1      51.788  21.614  -9.890  1.00  0.00     0.161 HD
HETATM    8  C10 UNL     1      49.825  19.975  -9.751  1.00  0.00     0.045 A
HETATM    9  C13 UNL     1      48.741  19.081  -9.829  1.00  0.00     0.039 A
ENDROOT
BRANCH   1  10
HETATM   10  C2  UNL     1      46.989  17.937 -11.237  1.00  0.00     0.120 A
HETATM   11  N1  UNL     1      46.725  16.704 -10.803  1.00  0.00    -0.335 N
HETATM   12  C1  UNL     1      47.533  15.876  -9.964  1.00  0.00     0.158 C
HETATM   13  C26 UNL     1      45.514  16.292 -11.302  1.00  0.00     0.065 A
HETATM   14  C14 UNL     1      45.015  17.311 -12.072  1.00  0.00     0.061 A
HETATM   15  C25 UNL     1      44.796  15.131 -11.159  1.00  0.00     0.068 A
HETATM   16  N8  UNL     1      45.913  18.282 -12.019  1.00  0.00    -0.340 N
HETATM   17  C15 UNL     1      43.779  17.147 -12.699  1.00  0.00     0.035 A
ATOM     18  H8  UNL     1      45.817  19.176 -12.499  1.00  0.00     0.167 HD
HETATM   19  C16 UNL     1      43.040  15.996 -12.574  1.00  0.00     0.039 A
HETATM   20  C17 UNL     1      43.557  14.981 -11.795  1.00  0.00     0.071 A
BRANCH  20  21
HETATM   21  O1  UNL     1      42.873  13.797 -11.623  1.00  0.00    -0.351 OA
BRANCH  21  22
HETATM   22  C18 UNL     1      42.334  13.344 -10.414  1.00  0.00     0.176 C
BRANCH  22  23
HETATM   23  C19 UNL     1      41.057  14.049 -10.044  1.00  0.00     0.031 C
BRANCH  23  24
HETATM   24  C20 UNL     1      41.129  14.724  -8.695  1.00  0.00    -0.009 C
HETATM   25  C21 UNL     1      41.879  13.775  -7.751  1.00  0.00     0.032 C
HETATM   26  C22 UNL     1      41.669  14.332  -6.359  1.00  0.00     0.232 C
HETATM   27  N9  UNL     1      41.954  15.750  -6.302  1.00  0.00    -0.075 N
HETATM   28  C23 UNL     1      42.713  16.192  -7.459  1.00  0.00     0.232 C
ATOM     29  H92 UNL     1      41.101  16.297  -6.186  1.00  0.00     0.277 HD
ATOM     30  H91 UNL     1      42.423  16.001  -5.432  1.00  0.00     0.277 HD
HETATM   31  C24 UNL     1      41.938  15.989  -8.748  1.00  0.00     0.032 C
ENDBRANCH  23  24
ENDBRANCH  22  23
ENDBRANCH  21  22
ENDBRANCH  20  21
ENDBRANCH   1  10
BRANCH   8  32
HETATM   32  S1  UNL     1      50.529  20.229  -8.143  1.00  0.00    -0.124 SA
BRANCH  32  33
HETATM   33  C11 UNL     1      50.708  18.731  -7.198  1.00  0.00     0.106 C
BRANCH  33  34
HETATM   34  C12 UNL     1      51.911  18.612  -6.343  1.00  0.00     0.240 C
BRANCH  34  35
HETATM   35  N7  UNL     1      51.860  19.464  -5.177  1.00  0.00    -0.079 N
ATOM     36  H73 UNL     1      51.975  20.444  -5.437  1.00  0.00     0.274 HD
ATOM     37  H72 UNL     1      50.915  19.503  -4.795  1.00  0.00     0.274 HD
ATOM     38  H71 UNL     1      52.532  19.197  -4.459  1.00  0.00     0.274 HD
ENDBRANCH  34  35
ENDBRANCH  33  34
ENDBRANCH  32  33
ENDBRANCH   8  32
BRANCH   6  39
HETATM   39  C6  UNL     1      51.827  22.061 -11.979  1.00  0.00     0.123 C
BRANCH  39  40
HETATM   40  C7  UNL     1      51.285  23.425 -12.244  1.00  0.00     0.039 C
BRANCH  40  41
HETATM   41  C8  UNL     1      50.723  23.642 -13.601  1.00  0.00     0.123 C
BRANCH  41  42
HETATM   42  N4  UNL     1      49.361  24.074 -13.673  1.00  0.00    -0.365 N
HETATM   43  C9  UNL     1      48.307  23.226 -14.151  1.00  0.00     0.181 C
HETATM   44  N5  UNL     1      47.086  23.612 -14.171  1.00  0.00    -0.374 N
HETATM   45  N6  UNL     1      48.628  21.926 -14.622  1.00  0.00    -0.064 NA
ATOM     46  H52 UNL     1      46.856  24.546 -13.833  1.00  0.00     0.158 HD
ATOM     47  H51 UNL     1      46.337  23.009 -14.511  1.00  0.00     0.158 HD
ATOM     48  H4  UNL     1      49.131  25.022 -13.373  1.00  0.00     0.162 HD
ENDBRANCH  41  42
ENDBRANCH  40  41
ENDBRANCH  39  40
ENDBRANCH   6  39
TORSDOF 13
ENDMDL