MODEL 2
REMARK VINA RESULT: -7.270551572      2.778      3.511
REMARK  18 active torsions:
REMARK  status: ('A' for Active; 'I' for Inactive)
REMARK    1  A    between atoms: C2_2  and  C3_3
REMARK    2  A    between atoms: C3_3  and  N1_4
REMARK       I    between atoms: N1_4  and  C4_6
REMARK    3  A    between atoms: C4_6  and  C5_8
REMARK    4  A    between atoms: C5_8  and  C6_9
REMARK    5  A    between atoms: C6_9  and  C7_10
REMARK    6  A    between atoms: C12_18  and  C13_19
REMARK    7  A    between atoms: C13_19  and  C14_20
REMARK    8  A    between atoms: C14_20  and  C15_21
REMARK    9  A    between atoms: C15_21  and  C16_22
REMARK   10  A    between atoms: C16_22  and  C17_23
REMARK   11  A    between atoms: C17_23  and  C18_24
REMARK   12  A    between atoms: C18_24  and  O3_25
REMARK   13  A    between atoms: N3_27  and  O4_29
REMARK   14  A    between atoms: C19_31  and  O5_32
REMARK   15  A    between atoms: C20_36  and  C21_37
REMARK   16  A    between atoms: C21_37  and  C22_38
REMARK   17  A    between atoms: C22_38  and  S1_39
REMARK   18  A    between atoms: C24_41  and  O6_42
ROOT
HETATM    1  C7  UNL     1      44.834  17.701 -12.343  1.00  0.00     0.084 C
HETATM    2  C8  UNL     1      44.584  19.166 -12.705  1.00  0.00     0.026 C
HETATM    3  C9  UNL     1      44.907  20.104 -11.621  1.00  0.00     0.011 C
HETATM    4  C10 UNL     1      46.240  20.759 -11.610  1.00  0.00     0.103 C
HETATM    5  C11 UNL     1      46.726  21.239 -12.922  1.00  0.00     0.218 C
HETATM    6  O2  UNL     1      45.789  21.652 -13.698  1.00  0.00    -0.274 OA
HETATM    7  N2  UNL     1      48.036  21.300 -13.406  1.00  0.00    -0.349 N
ATOM      8  H2  UNL     1      48.347  22.224 -13.704  1.00  0.00     0.163 HD
HETATM    9  C12 UNL     1      49.027  20.232 -13.550  1.00  0.00     0.159 C
HETATM   10  C19 UNL     1      48.457  18.990 -14.084  1.00  0.00     0.139 C
HETATM   11  N4  UNL     1      48.552  17.650 -13.917  1.00  0.00    -0.339 N
ATOM     12  H4  UNL     1      49.090  17.260 -14.691  1.00  0.00     0.167 HD
HETATM   13  C20 UNL     1      48.171  16.592 -13.049  1.00  0.00     0.062 C
HETATM   14  C24 UNL     1      47.221  16.735 -11.975  1.00  0.00     0.159 C
HETATM   15  N5  UNL     1      46.103  17.494 -11.719  1.00  0.00    -0.365 N
ATOM     16  H5  UNL     1      46.204  18.049 -10.869  1.00  0.00     0.162 HD
ENDROOT
BRANCH   9  17
HETATM   17  C13 UNL     1      49.872  20.235 -12.355  1.00  0.00     0.033 C
BRANCH  17  18
HETATM   18  C14 UNL     1      50.606  21.508 -12.031  1.00  0.00     0.002 C
BRANCH  18  19
HETATM   19  C15 UNL     1      50.760  21.635 -10.525  1.00  0.00     0.001 C
BRANCH  19  20
HETATM   20  C16 UNL     1      50.663  20.335  -9.799  1.00  0.00     0.008 C
BRANCH  20  21
HETATM   21  C17 UNL     1      50.154  20.502  -8.393  1.00  0.00     0.086 C
BRANCH  21  22
HETATM   22  C18 UNL     1      51.159  20.012  -7.424  1.00  0.00     0.135 C
HETATM   23  N3  UNL     1      50.888  19.970  -6.166  1.00  0.00    -0.251 N
ATOM     24  H3  UNL     1      49.970  20.281  -5.847  1.00  0.00     0.196 HD
BRANCH  22  25
HETATM   25  O3  UNL     1      52.407  19.591  -7.846  1.00  0.00    -0.348 OA
ATOM     26  H3  UNL     1      53.058  20.215  -8.146  1.00  0.00     0.219 HD
ENDBRANCH  22  25
BRANCH  23  27
HETATM   27  O4  UNL     1      51.797  19.521  -5.241  1.00  0.00    -0.288 OA
ATOM     28  H4  UNL     1      52.643  19.936  -5.124  1.00  0.00     0.244 HD
ENDBRANCH  23  27
ENDBRANCH  21  22
ENDBRANCH  20  21
ENDBRANCH  19  20
ENDBRANCH  18  19
ENDBRANCH  17  18
ENDBRANCH   9  17
BRANCH  10  29
HETATM   29  O5  UNL     1      47.594  19.342 -15.017  1.00  0.00    -0.348 OA
ATOM     30  H5  UNL     1      48.104  19.583 -15.782  1.00  0.00     0.219 HD
ENDBRANCH  10  29
BRANCH  13  31
HETATM   31  C21 UNL     1      47.859  15.273 -13.749  1.00  0.00     0.072 C
BRANCH  31  32
HETATM   32  C22 UNL     1      48.449  15.181 -15.128  1.00  0.00     0.079 C
BRANCH  32  33
HETATM   33  S1  UNL     1      47.888  13.582 -15.859  1.00  0.00    -0.173 SA
HETATM   34  C23 UNL     1      46.430  13.038 -14.908  1.00  0.00     0.089 C
ENDBRANCH  32  33
ENDBRANCH  31  32
ENDBRANCH  13  31
BRANCH  14  35
HETATM   35  O6  UNL     1      47.504  15.917 -10.973  1.00  0.00    -0.345 OA
ATOM     36  H6  UNL     1      46.713  15.624 -10.535  1.00  0.00     0.219 HD
ENDBRANCH  14  35
BRANCH   1  37
HETATM   37  C6  UNL     1      44.536  16.867 -13.523  1.00  0.00     0.034 C
BRANCH  37  38
HETATM   38  C5  UNL     1      43.525  15.784 -13.329  1.00  0.00     0.105 C
BRANCH  38  39
HETATM   39  C4  UNL     1      42.815  15.752 -12.060  1.00  0.00     0.217 C
HETATM   40  N1  UNL     1      41.598  16.468 -11.902  1.00  0.00    -0.361 N
ATOM     41  H1  UNL     1      41.232  16.999 -12.692  1.00  0.00     0.162 HD
HETATM   42  O1  UNL     1      43.211  15.116 -11.054  1.00  0.00    -0.274 OA
BRANCH  40  43
HETATM   43  C3  UNL     1      40.855  16.470 -10.651  1.00  0.00     0.122 C
BRANCH  43  44
HETATM   44  C2  UNL     1      40.780  17.910 -10.146  1.00  0.00     0.015 C
HETATM   45  C1  UNL     1      42.132  18.433  -9.732  1.00  0.00     0.006 C
ENDBRANCH  43  44
ENDBRANCH  40  43
ENDBRANCH  38  39
ENDBRANCH  37  38
ENDBRANCH   1  37
TORSDOF 18
ENDMDL