MODEL 2
REMARK VINA RESULT: -8.453001992      2.071      4.419
REMARK  14 active torsions:
REMARK  status: ('A' for Active; 'I' for Inactive)
REMARK    1  A    between atoms: C5_12  and  C6_13
REMARK    2  A    between atoms: C6_13  and  C7_14
REMARK    3  A    between atoms: C10_17  and  O2_18
REMARK    4  A    between atoms: O2_18  and  C11_19
REMARK    5  A    between atoms: C11_19  and  C12_20
REMARK    6  A    between atoms: C12_20  and  C13_21
REMARK    7  A    between atoms: C13_21  and  C14_22
REMARK    8  A    between atoms: C14_22  and  C15_23
REMARK    9  A    between atoms: C15_23  and  C16_24
REMARK   10  A    between atoms: C16_24  and  C17_25
REMARK   11  A    between atoms: C17_25  and  C18_26
REMARK   12  A    between atoms: C18_26  and  C19_27
REMARK   13  A    between atoms: C24_37  and  N6_38
REMARK   14  A    between atoms: N6_38  and  C25_40
ROOT
HETATM    1  C7  UNL     1      47.563  18.535 -10.645  1.00  0.00    -0.026 A
HETATM    2  C8  UNL     1      46.852  17.872  -9.646  1.00  0.00     0.012 A
HETATM    3  C9  UNL     1      45.508  18.026  -9.415  1.00  0.00     0.037 A
HETATM    4  C10 UNL     1      44.848  18.901 -10.239  1.00  0.00     0.070 A
HETATM    5  C23 UNL     1      45.559  19.580 -11.264  1.00  0.00     0.067 A
HETATM    6  C24 UNL     1      46.906  19.398 -11.464  1.00  0.00     0.058 A
ENDROOT
BRANCH   4   7
HETATM    7  O2  UNL     1      43.507  19.172 -10.129  1.00  0.00    -0.351 OA
BRANCH   7   8
HETATM    8  C11 UNL     1      42.513  18.281  -9.798  1.00  0.00     0.175 C
BRANCH   8   9
HETATM    9  C12 UNL     1      41.502  18.154 -10.911  1.00  0.00     0.027 C
BRANCH   9  10
HETATM   10  C13 UNL     1      41.844  16.945 -11.733  1.00  0.00     0.002 C
BRANCH  10  11
HETATM   11  C14 UNL     1      42.773  15.967 -11.096  1.00  0.00     0.000 C
BRANCH  11  12
HETATM   12  C15 UNL     1      43.954  15.736 -12.005  1.00  0.00     0.000 C
BRANCH  12  13
HETATM   13  C16 UNL     1      43.736  16.316 -13.377  1.00  0.00     0.000 C
BRANCH  13  14
HETATM   14  C17 UNL     1      44.937  17.116 -13.846  1.00  0.00     0.002 C
BRANCH  14  15
HETATM   15  C18 UNL     1      46.139  16.244 -13.721  1.00  0.00     0.035 C
BRANCH  15  16
HETATM   16  C19 UNL     1      47.452  16.935 -13.975  1.00  0.00     0.203 C
HETATM   17  C20 UNL     1      48.606  16.033 -13.741  1.00  0.00     0.146 C
HETATM   18  N4  UNL     1      49.375  15.641 -14.866  1.00  0.00    -0.418 N
HETATM   19  C21 UNL     1      49.770  16.707 -15.739  1.00  0.00     0.141 C
ATOM     20  H4  UNL     1      49.629  14.669 -15.042  1.00  0.00     0.153 HD
HETATM   21  C22 UNL     1      48.881  17.918 -15.635  1.00  0.00     0.252 C
HETATM   22  N5  UNL     1      47.534  17.588 -15.258  1.00  0.00    -0.068 N
ATOM     23  H52 UNL     1      47.080  17.029 -15.981  1.00  0.00     0.277 HD
ATOM     24  H51 UNL     1      46.935  18.414 -15.286  1.00  0.00     0.277 HD
ENDBRANCH  15  16
ENDBRANCH  14  15
ENDBRANCH  13  14
ENDBRANCH  12  13
ENDBRANCH  11  12
ENDBRANCH  10  11
ENDBRANCH   9  10
ENDBRANCH   8   9
ENDBRANCH   7   8
ENDBRANCH   4   7
BRANCH   6  25
HETATM   25  N6  UNL     1      47.577  20.068 -12.512  1.00  0.00    -0.192 N
ATOM     26  H6  UNL     1      47.698  19.541 -13.378  1.00  0.00     0.184 HD
BRANCH  25  27
HETATM   27  C25 UNL     1      48.096  21.366 -12.503  1.00  0.00     0.674 C
HETATM   28  N7  UNL     1      49.414  21.514 -12.292  1.00  0.00    -0.226 N
HETATM   29  C26 UNL     1      49.963  22.879 -12.279  1.00  0.00     0.139 C
ATOM     30  H7  UNL     1      50.016  20.704 -12.145  1.00  0.00     0.177 HD
HETATM   31  C27 UNL     1      49.433  23.642 -13.473  1.00  0.00     0.040 C
HETATM   32  C28 UNL     1      47.947  23.691 -13.404  1.00  0.00     0.139 C
HETATM   33  N8  UNL     1      47.411  22.588 -12.657  1.00  0.00    -0.226 N
ATOM     34  H8  UNL     1      46.495  22.693 -12.220  1.00  0.00     0.177 HD
ENDBRANCH  25  27
ENDBRANCH   6  25
BRANCH   1  35
HETATM   35  C6  UNL     1      49.008  18.222 -10.669  1.00  0.00     0.084 C
BRANCH  35  36
HETATM   36  C5  UNL     1      49.762  18.561  -9.473  1.00  0.00     0.006 A
HETATM   37  C2  UNL     1      50.400  17.690  -8.662  1.00  0.00     0.116 A
HETATM   38  N1  UNL     1      50.329  16.459  -8.610  1.00  0.00    -0.362 N
HETATM   39  N2  UNL     1      51.192  18.234  -7.659  1.00  0.00    -0.294 N
HETATM   40  C1  UNL     1      49.826  15.305  -9.143  1.00  0.00     0.120 C
ATOM     41  H1  UNL     1      50.901  16.176  -7.815  1.00  0.00     0.165 HD
HETATM   42  C3  UNL     1      51.353  19.529  -7.454  1.00  0.00     0.325 A
ATOM     43  H2  UNL     1      51.684  17.589  -7.039  1.00  0.00     0.172 HD
HETATM   44  O1  UNL     1      52.102  19.967  -6.507  1.00  0.00    -0.247 OA
HETATM   45  N3  UNL     1      50.715  20.384  -8.259  1.00  0.00    -0.318 N
HETATM   46  C4  UNL     1      49.928  19.940  -9.258  1.00  0.00     0.104 A
ATOM     47  H3  UNL     1      50.825  21.388  -8.114  1.00  0.00     0.170 HD
ENDBRANCH  35  36
ENDBRANCH   1  35
TORSDOF 14
ENDMDL