MODEL 5
REMARK VINA RESULT: -6.410250697      1.870      2.360
REMARK  9 active torsions:
REMARK  status: ('A' for Active; 'I' for Inactive)
REMARK    1  A    between atoms: O1_2  and  C2_3
REMARK    2  A    between atoms: C4_5  and  C5_6
REMARK    3  A    between atoms: C6_7  and  C7_8
REMARK    4  A    between atoms: C7_8  and  C8_10
REMARK    5  A    between atoms: C10_13  and  O3_14
REMARK    6  A    between atoms: C12_17  and  O4_18
REMARK    7  A    between atoms: C16_24  and  O6_25
REMARK    8  A    between atoms: C19_28  and  O7_29
REMARK    9  A    between atoms: C21_31  and  O8_32
ROOT
HETATM    1  C8  UNL     1      -6.532   2.855  -2.740  1.00  0.00     0.090 A
HETATM    2  C9  UNL     1      -5.792   1.843  -3.302  1.00  0.00     0.167 A
HETATM    3  F1  UNL     1      -4.644   1.399  -2.742  1.00  0.00    -0.202 F
HETATM    4  C10 UNL     1      -6.205   1.226  -4.492  1.00  0.00     0.121 A
HETATM    5  C11 UNL     1      -7.368   1.643  -5.099  1.00  0.00     0.074 A
HETATM    6  C12 UNL     1      -8.059   1.284  -6.237  1.00  0.00     0.197 A
HETATM    7  O5  UNL     1      -9.137   2.011  -6.370  1.00  0.00    -0.291 OA
HETATM    8  C13 UNL     1      -9.221   2.872  -5.354  1.00  0.00     0.066 A
HETATM    9  C14 UNL     1     -10.297   3.877  -5.131  1.00  0.00     0.078 C
HETATM   10  C15 UNL     1      -8.130   2.674  -4.534  1.00  0.00     0.046 A
HETATM   11  C16 UNL     1      -7.693   3.259  -3.360  1.00  0.00     0.099 A
ENDROOT
BRANCH   1  12
HETATM   12  C7  UNL     1      -6.115   3.508  -1.501  1.00  0.00     0.188 C
HETATM   13  O2  UNL     1      -5.818   4.721  -1.507  1.00  0.00    -0.287 OA
BRANCH  12  14
HETATM   14  C6  UNL     1      -6.031   2.779  -0.241  1.00  0.00     0.056 C
HETATM   15  C5  UNL     1      -4.999   2.984   0.550  1.00  0.00     0.015 C
BRANCH  15  16
HETATM   16  C4  UNL     1      -4.817   2.308   1.833  1.00  0.00    -0.031 A
HETATM   17  C3  UNL     1      -5.930   2.085   2.639  1.00  0.00     0.051 A
HETATM   18  C2  UNL     1      -5.837   1.454   3.862  1.00  0.00     0.105 A
HETATM   19  C21 UNL     1      -4.579   1.039   4.278  1.00  0.00     0.135 A
HETATM   20  C19 UNL     1      -3.455   1.236   3.520  1.00  0.00     0.105 A
HETATM   21  C18 UNL     1      -3.602   1.871   2.307  1.00  0.00     0.051 A
BRANCH  18  22
HETATM   22  O1  UNL     1      -6.940   1.226   4.674  1.00  0.00    -0.353 OA
HETATM   23  C1  UNL     1      -8.052   0.571   4.091  1.00  0.00     0.210 C
ENDBRANCH  18  22
BRANCH  19  24
HETATM   24  O8  UNL     1      -4.492   0.407   5.507  1.00  0.00    -0.351 OA
HETATM   25  C22 UNL     1      -4.773  -0.991   5.528  1.00  0.00     0.210 C
ENDBRANCH  19  24
BRANCH  20  26
HETATM   26  O7  UNL     1      -2.227   0.802   3.984  1.00  0.00    -0.353 OA
HETATM   27  C20 UNL     1      -1.098   1.023   3.161  1.00  0.00     0.210 C
ENDBRANCH  20  26
ENDBRANCH  15  16
ENDBRANCH  12  14
ENDBRANCH   1  12
BRANCH  11  28
HETATM   28  O6  UNL     1      -8.450   4.279  -2.802  1.00  0.00    -0.354 OA
HETATM   29  C17 UNL     1      -9.330   3.905  -1.730  1.00  0.00     0.210 C
ENDBRANCH  11  28
BRANCH   4  30
HETATM   30  O3  UNL     1      -5.449   0.214  -5.040  1.00  0.00    -0.357 OA
ATOM     31  H3  UNL     1      -5.723  -0.198  -5.850  1.00  0.00     0.218 HD
ENDBRANCH   4  30
BRANCH   6  32
HETATM   32  O4  UNL     1      -7.677   0.282  -7.141  1.00  0.00    -0.340 OA
ATOM     33  H4  UNL     1      -7.803   0.310  -8.082  1.00  0.00     0.220 HD
ENDBRANCH   6  32
TORSDOF 9
ENDMDL