MODEL 1
REMARK VINA RESULT: -6.118815307      0.000      0.000
REMARK  10 active torsions:
REMARK  status: ('A' for Active; 'I' for Inactive)
REMARK    1  A    between atoms: C2_2  and  C3_3
REMARK    2  A    between atoms: C3_3  and  C4_4
REMARK    3  A    between atoms: C4_4  and  N1_5
REMARK    4  A    between atoms: C5_6  and  C6_7
REMARK    5  A    between atoms: C6_7  and  N2_8
REMARK    6  A    between atoms: C15_17  and  C17_19
REMARK    7  A    between atoms: C18_26  and  C19_27
REMARK    8  A    between atoms: C19_27  and  N5_28
REMARK    9  A    between atoms: C20_29  and  O1_30
REMARK   10  A    between atoms: C23_34  and  O2_35
ROOT
HETATM    1  N1  UNL     1      -4.818   1.677   4.314  1.00  0.00    -0.319 N
HETATM    2  C5  UNL     1      -3.497   1.763   4.562  1.00  0.00     0.134 A
HETATM    3  N3  UNL     1      -3.143   0.736   5.368  1.00  0.00    -0.283 N
ATOM      4  H3  UNL     1      -2.206   0.545   5.723  1.00  0.00     0.188 HD
HETATM    5  N4  UNL     1      -4.209   0.038   5.608  1.00  0.00    -0.286 N
ATOM      6  H4  UNL     1      -4.245  -0.800   6.188  1.00  0.00     0.188 HD
HETATM    7  C18 UNL     1      -5.276   0.595   4.965  1.00  0.00     0.118 A
ENDROOT
BRANCH   2   8
HETATM    8  C6  UNL     1      -2.534   2.753   4.024  1.00  0.00     0.111 C
BRANCH   8   9
HETATM    9  N2  UNL     1      -2.208   2.643   2.664  1.00  0.00    -0.274 NA
HETATM   10  C7  UNL     1      -2.303   4.014   2.104  1.00  0.00     0.101 C
HETATM   11  C8  UNL     1      -2.591   3.936   0.641  1.00  0.00     0.003 C
HETATM   12  C9  UNL     1      -1.771   4.935  -0.101  1.00  0.00     0.006 C
HETATM   13  C13 UNL     1      -2.326   2.565   0.126  1.00  0.00    -0.007 C
HETATM   14  C10 UNL     1      -2.159   5.021  -1.563  1.00  0.00     0.000 C
HETATM   15  C11 UNL     1      -2.728   3.725  -2.073  1.00  0.00     0.000 C
HETATM   16  C12 UNL     1      -2.190   2.508  -1.375  1.00  0.00     0.005 C
HETATM   17  C14 UNL     1      -1.095   1.918   0.698  1.00  0.00     0.036 C
HETATM   18  C15 UNL     1      -1.008   2.053   2.228  1.00  0.00     0.072 C
HETATM   19  C16 UNL     1      -0.767   0.662   2.737  1.00  0.00     0.038 C
BRANCH  18  20
HETATM   20  C17 UNL     1       0.270   2.836   2.505  1.00  0.00     0.375 C
HETATM   21  F1  UNL     1       0.927   3.067   1.274  1.00  0.00    -0.212 F
HETATM   22  F2  UNL     1       1.180   2.172   3.273  1.00  0.00    -0.212 F
ENDBRANCH  18  20
ENDBRANCH   8   9
ENDBRANCH   2   8
BRANCH   1  23
HETATM   23  C4  UNL     1      -5.594   2.586   3.529  1.00  0.00     0.132 C
BRANCH  23  24
HETATM   24  C3  UNL     1      -5.747   2.187   2.081  1.00  0.00     0.020 C
BRANCH  24  25
HETATM   25  C2  UNL     1      -6.102   3.406   1.272  1.00  0.00    -0.003 C
HETATM   26  C1  UNL     1      -6.091   3.106  -0.222  1.00  0.00     0.005 C
ENDBRANCH  24  25
ENDBRANCH  23  24
ENDBRANCH   1  23
BRANCH   7  27
HETATM   27  C19 UNL     1      -6.660   0.095   4.965  1.00  0.00     0.211 C
BRANCH  27  28
HETATM   28  N5  UNL     1      -7.529   0.849   5.865  1.00  0.00    -0.301 N
HETATM   29  C20 UNL     1      -7.413   1.154   7.143  1.00  0.00     0.144 A
HETATM   30  C21 UNL     1      -8.490   1.893   7.532  1.00  0.00     0.060 A
HETATM   31  C22 UNL     1      -9.304   2.044   6.434  1.00  0.00     0.060 A
HETATM   32  C23 UNL     1      -8.687   1.386   5.401  1.00  0.00     0.144 A
BRANCH  29  33
HETATM   33  O1  UNL     1      -6.358   0.789   7.994  1.00  0.00    -0.346 OA
ATOM     34  H1  UNL     1      -6.297   0.968   8.925  1.00  0.00     0.219 HD
ENDBRANCH  29  33
BRANCH  32  35
HETATM   35  O2  UNL     1      -9.199   1.301   4.091  1.00  0.00    -0.346 OA
ATOM     36  H2  UNL     1      -9.395   2.021   3.504  1.00  0.00     0.219 HD
ENDBRANCH  32  35
ENDBRANCH  27  28
ENDBRANCH   7  27
TORSDOF 10
ENDMDL