MODEL 1
REMARK VINA RESULT: -6.192754931      0.000      0.000
REMARK  9 active torsions:
REMARK  status: ('A' for Active; 'I' for Inactive)
REMARK    1  A    between atoms: O1_2  and  C2_3
REMARK    2  A    between atoms: C4_5  and  C5_6
REMARK    3  A    between atoms: C6_8  and  C7_9
REMARK    4  A    between atoms: C8_10  and  O2_11
REMARK    5  A    between atoms: C12_17  and  O3_18
REMARK    6  A    between atoms: C14_20  and  O4_21
REMARK    7  A    between atoms: C18_25  and  O5_26
REMARK    8  A    between atoms: C20_29  and  O6_30
REMARK    9  A    between atoms: C22_32  and  O7_33
ROOT
HETATM    1  C7  UNL     1      -4.303   2.898  -0.663  1.00  0.00     0.034 A
HETATM    2  C8  UNL     1      -2.918   2.850  -0.872  1.00  0.00     0.079 A
HETATM    3  C9  UNL     1      -2.032   2.472   0.104  1.00  0.00     0.053 A
HETATM    4  C10 UNL     1      -2.490   2.126   1.333  1.00  0.00     0.021 A
HETATM    5  C11 UNL     1      -1.579   1.742   2.327  1.00  0.00     0.163 A
HETATM    6  F2  UNL     1      -0.249   1.708   2.088  1.00  0.00    -0.202 F
HETATM    7  C12 UNL     1      -2.024   1.389   3.572  1.00  0.00     0.141 A
HETATM    8  C14 UNL     1      -3.392   1.425   3.812  1.00  0.00     0.105 A
HETATM    9  C16 UNL     1      -4.289   1.801   2.840  1.00  0.00     0.055 A
HETATM   10  C17 UNL     1      -3.836   2.158   1.578  1.00  0.00     0.014 A
HETATM   11  C18 UNL     1      -4.749   2.540   0.591  1.00  0.00     0.090 A
ENDROOT
BRANCH   1  12
HETATM   12  C6  UNL     1      -5.185   3.294  -1.756  1.00  0.00     0.060 C
HETATM   13  C5  UNL     1      -5.822   2.474  -2.554  1.00  0.00     0.127 C
HETATM   14  F1  UNL     1      -5.697   1.123  -2.316  1.00  0.00    -0.205 F
BRANCH  13  15
HETATM   15  C4  UNL     1      -6.691   2.891  -3.639  1.00  0.00     0.008 A
HETATM   16  C3  UNL     1      -6.318   3.849  -4.552  1.00  0.00     0.054 A
HETATM   17  C2  UNL     1      -7.190   4.217  -5.585  1.00  0.00     0.105 A
HETATM   18  C22 UNL     1      -8.403   3.609  -5.664  1.00  0.00     0.135 A
HETATM   19  C20 UNL     1      -8.829   2.638  -4.770  1.00  0.00     0.105 A
HETATM   20  C19 UNL     1      -7.942   2.309  -3.773  1.00  0.00     0.054 A
BRANCH  17  21
HETATM   21  O1  UNL     1      -6.811   5.179  -6.500  1.00  0.00    -0.353 OA
HETATM   22  C1  UNL     1      -5.611   5.882  -6.262  1.00  0.00     0.210 C
ENDBRANCH  17  21
BRANCH  18  23
HETATM   23  O7  UNL     1      -9.271   3.963  -6.679  1.00  0.00    -0.351 OA
HETATM   24  C23 UNL     1     -10.160   5.054  -6.401  1.00  0.00     0.210 C
ENDBRANCH  18  23
BRANCH  19  25
HETATM   25  O6  UNL     1     -10.078   2.055  -4.903  1.00  0.00    -0.353 OA
HETATM   26  C21 UNL     1     -10.154   0.802  -5.554  1.00  0.00     0.210 C
ENDBRANCH  19  25
ENDBRANCH  13  15
ENDBRANCH   1  12
BRANCH   2  27
HETATM   27  O2  UNL     1      -2.445   3.206  -2.136  1.00  0.00    -0.360 OA
ATOM     28  H2  UNL     1      -2.112   4.089  -2.245  1.00  0.00     0.217 HD
ENDBRANCH   2  27
BRANCH  11  29
HETATM   29  O5  UNL     1      -6.097   2.536   0.911  1.00  0.00    -0.359 OA
ATOM     30  H5  UNL     1      -6.488   3.227   1.432  1.00  0.00     0.217 HD
ENDBRANCH  11  29
BRANCH   8  31
HETATM   31  O4  UNL     1      -3.841   1.068   5.074  1.00  0.00    -0.353 OA
HETATM   32  C15 UNL     1      -4.862   0.130   5.219  1.00  0.00     0.210 C
ENDBRANCH   8  31
BRANCH   7  33
HETATM   33  O3  UNL     1      -1.136   1.004   4.575  1.00  0.00    -0.350 OA
HETATM   34  C13 UNL     1      -0.534   2.015   5.351  1.00  0.00     0.210 C
ENDBRANCH   7  33
TORSDOF 9
ENDMDL