MODEL 5
REMARK VINA RESULT: -5.547097173      1.105      1.890
REMARK  8 active torsions:
REMARK  status: ('A' for Active; 'I' for Inactive)
REMARK    1  A    between atoms: O1_2  and  C2_3
REMARK    2  A    between atoms: C5_7  and  C6_8
REMARK    3  A    between atoms: C7_10  and  C8_11
REMARK    4  A    between atoms: C11_14  and  C12_15
REMARK    5  A    between atoms: C12_15  and  O3_16
REMARK    6  A    between atoms: C12_15  and  O4_18
REMARK    7  A    between atoms: C14_20  and  C15_21
REMARK    8  A    between atoms: C21_34  and  O5_35
ROOT
HETATM    1  C6  UNL     1      -4.012   1.726   3.828  1.00  0.00     0.103 A
HETATM    2  O2  UNL     1      -4.834   0.731   3.968  1.00  0.00    -0.312 OA
HETATM    3  C7  UNL     1      -5.557   0.855   5.070  1.00  0.00     0.069 A
HETATM    4  C11 UNL     1      -5.179   2.000   5.677  1.00  0.00     0.040 A
HETATM    5  C14 UNL     1      -4.174   2.590   4.893  1.00  0.00     0.026 A
ENDROOT
BRANCH   5   6
HETATM    6  C15 UNL     1      -3.452   3.841   5.113  1.00  0.00     0.019 A
HETATM    7  C16 UNL     1      -3.897   5.037   4.593  1.00  0.00     0.018 A
HETATM    8  C17 UNL     1      -3.198   6.199   4.806  1.00  0.00     0.034 A
HETATM    9  C18 UNL     1      -2.036   6.181   5.549  1.00  0.00     0.080 A
HETATM   10  N1  UNL     1      -1.143   7.130   5.927  1.00  0.00    -0.284 N
HETATM   11  C19 UNL     1      -1.585   4.992   6.071  1.00  0.00     0.117 A
HETATM   12  N2  UNL     1      -0.188   6.549   6.650  1.00  0.00    -0.242 N
ATOM     13  H1  UNL     1      -1.196   8.123   5.697  1.00  0.00     0.188 HD
HETATM   14  N3  UNL     1      -0.429   5.262   6.751  1.00  0.00    -0.281 N
ATOM     15  H2  UNL     1       0.611   7.031   7.063  1.00  0.00     0.208 HD
ATOM     16  H3  UNL     1       0.145   4.582   7.250  1.00  0.00     0.188 HD
HETATM   17  C20 UNL     1      -2.294   3.833   5.851  1.00  0.00     0.158 A
HETATM   18  F2  UNL     1      -1.790   2.688   6.386  1.00  0.00    -0.203 F
ENDBRANCH   5   6
BRANCH   1  19
HETATM   19  C5  UNL     1      -3.094   1.838   2.696  1.00  0.00     0.071 A
HETATM   20  C4  UNL     1      -1.763   1.490   2.788  1.00  0.00     0.134 A
HETATM   21  C3  UNL     1      -0.916   1.605   1.706  1.00  0.00     0.080 A
HETATM   22  F1  UNL     1      -1.336   1.030   3.996  1.00  0.00    -0.205 F
HETATM   23  C2  UNL     1      -1.346   2.071   0.482  1.00  0.00     0.073 A
HETATM   24  C23 UNL     1      -2.677   2.423   0.377  1.00  0.00     0.074 A
HETATM   25  C21 UNL     1      -3.526   2.308   1.459  1.00  0.00     0.086 A
BRANCH  23  26
HETATM   26  O1  UNL     1      -0.470   2.178  -0.599  1.00  0.00    -0.356 OA
HETATM   27  C1  UNL     1       0.535   3.132  -0.710  1.00  0.00     0.210 C
ENDBRANCH  23  26
BRANCH  25  28
HETATM   28  O5  UNL     1      -4.863   2.658   1.368  1.00  0.00    -0.355 OA
HETATM   29  C22 UNL     1      -5.406   2.984   0.110  1.00  0.00     0.210 C
ENDBRANCH  25  28
ENDBRANCH   1  19
BRANCH   4  30
HETATM   30  C12 UNL     1      -5.657   2.638   6.882  1.00  0.00     0.294 C
BRANCH  30  31
HETATM   31  O3  UNL     1      -6.948   3.217   6.621  1.00  0.00    -0.367 OA
ATOM     32  H3  UNL     1      -6.881   3.788   5.865  1.00  0.00     0.213 HD
ENDBRANCH  30  31
BRANCH  30  33
HETATM   33  O4  UNL     1      -5.833   1.893   8.007  1.00  0.00    -0.362 OA
HETATM   34  C13 UNL     1      -7.167   1.933   8.440  1.00  0.00     0.205 C
ENDBRANCH  30  33
ENDBRANCH   4  30
BRANCH   3  35
HETATM   35  C8  UNL     1      -6.565  -0.104   5.505  1.00  0.00     0.035 C
HETATM   36  C9  UNL     1      -7.820   0.110   4.631  1.00  0.00     0.016 C
HETATM   37  C10 UNL     1      -6.150  -1.550   5.154  1.00  0.00     0.016 C
ENDBRANCH   3  35
TORSDOF 8
ENDMDL