MODEL 1
REMARK VINA RESULT: -5.997669981      0.000      0.000
REMARK  9 active torsions:
REMARK  status: ('A' for Active; 'I' for Inactive)
REMARK    1  A    between atoms: C2_2  and  O1_5
REMARK    2  A    between atoms: O1_5  and  C5_6
REMARK    3  A    between atoms: C5_6  and  C6_7
REMARK    4  A    between atoms: C6_7  and  O2_8
REMARK    5  A    between atoms: O2_8  and  C7_9
REMARK    6  A    between atoms: C10_12  and  C11_13
REMARK    7  A    between atoms: C15_21  and  N3_22
REMARK    8  A    between atoms: N3_22  and  C16_24
REMARK    9  A    between atoms: C21_29  and  C22_30
ROOT
HETATM    1  C11 UNL     1       1.184   3.697   3.849  1.00  0.00     0.106 A
HETATM    2  N1  UNL     1       2.466   4.236   3.974  1.00  0.00    -0.331 N
ATOM      3  H1  UNL     1       3.011   4.293   4.834  1.00  0.00     0.168 HD
HETATM    4  C12 UNL     1       2.852   4.661   2.772  1.00  0.00     0.157 A
HETATM    5  S1  UNL     1       4.127   5.414   1.918  1.00  0.00    -0.064 SA
HETATM    6  C13 UNL     1       3.409   5.424   0.373  1.00  0.00     0.071 A
HETATM    7  C14 UNL     1       2.200   4.831   0.616  1.00  0.00     0.108 A
HETATM    8  N2  UNL     1       1.933   4.446   1.849  1.00  0.00    -0.286 N
HETATM    9  C15 UNL     1       0.857   3.818   2.537  1.00  0.00     0.139 A
ENDROOT
BRANCH   1  10
HETATM   10  C10 UNL     1       0.490   3.219   5.035  1.00  0.00     0.065 A
HETATM   11  C9  UNL     1       0.826   2.266   5.936  1.00  0.00     0.036 A
HETATM   12  C8  UNL     1      -0.257   2.088   6.778  1.00  0.00     0.058 A
HETATM   13  C7  UNL     1      -1.263   2.928   6.397  1.00  0.00     0.142 A
HETATM   14  N4  UNL     1      -0.788   3.606   5.337  1.00  0.00    -0.335 N
ATOM     15  H4  UNL     1      -1.312   4.316   4.826  1.00  0.00     0.168 HD
BRANCH  13  16
HETATM   16  O2  UNL     1      -2.533   3.084   6.961  1.00  0.00    -0.334 OA
BRANCH  16  17
HETATM   17  C6  UNL     1      -3.486   3.790   6.125  1.00  0.00     0.203 C
BRANCH  17  18
HETATM   18  C5  UNL     1      -4.740   3.031   5.983  1.00  0.00     0.195 C
BRANCH  18  19
HETATM   19  O1  UNL     1      -4.594   1.708   5.814  1.00  0.00    -0.379 OA
BRANCH  19  20
HETATM   20  C2  UNL     1      -5.541   0.861   5.427  1.00  0.00     0.050 C
HETATM   21  C1  UNL     1      -6.619   0.860   6.555  1.00  0.00     0.045 C
HETATM   22  C3  UNL     1      -6.316   1.212   4.194  1.00  0.00     0.045 C
HETATM   23  C4  UNL     1      -5.026  -0.568   5.379  1.00  0.00     0.045 C
ENDBRANCH  19  20
ENDBRANCH  18  19
ENDBRANCH  17  18
ENDBRANCH  16  17
ENDBRANCH  13  16
ENDBRANCH   1  10
BRANCH   9  24
HETATM   24  N3  UNL     1      -0.192   3.214   1.819  1.00  0.00    -0.369 N
ATOM     25  H3  UNL     1      -0.780   3.902   1.348  1.00  0.00     0.161 HD
BRANCH  24  26
HETATM   26  C16 UNL     1      -0.632   1.895   1.589  1.00  0.00     0.092 C
HETATM   27  C17 UNL     1      -1.186   1.209   2.808  1.00  0.00     0.026 C
HETATM   28  C18 UNL     1      -2.663   1.216   2.941  1.00  0.00     0.002 C
HETATM   29  C19 UNL     1      -3.323   2.524   2.564  1.00  0.00     0.001 C
HETATM   30  C20 UNL     1      -2.875   2.995   1.198  1.00  0.00     0.012 C
HETATM   31  C21 UNL     1      -1.898   2.023   0.659  1.00  0.00     0.073 C
BRANCH  31  32
HETATM   32  C22 UNL     1      -1.398   2.339  -0.713  1.00  0.00     0.359 C
HETATM   33  F1  UNL     1      -0.302   1.603  -1.063  1.00  0.00    -0.214 F
HETATM   34  F2  UNL     1      -2.393   2.079  -1.621  1.00  0.00    -0.214 F
ENDBRANCH  31  32
ENDBRANCH  24  26
ENDBRANCH   9  24
TORSDOF 9
ENDMDL