MODEL 1
REMARK VINA RESULT: -7.134028374      0.000      0.000
REMARK  7 active torsions:
REMARK  status: ('A' for Active; 'I' for Inactive)
REMARK    1  A    between atoms: O1_2  and  C2_3
REMARK    2  A    between atoms: C5_6  and  C6_7
REMARK    3  A    between atoms: C7_8  and  C8_9
REMARK    4  A    between atoms: C10_11  and  C11_12
REMARK    5  A    between atoms: C16_26  and  S2_27
REMARK    6  A    between atoms: S2_27  and  C17_28
REMARK    7  A    between atoms: C19_32  and  O2_33
ROOT
HETATM    1  C11 UNL     1      -6.766   1.815  -4.336  1.00  0.00     0.075 A
HETATM    2  N1  UNL     1      -6.402   0.700  -5.020  1.00  0.00    -0.350 N
ATOM      3  H1  UNL     1      -5.430   0.396  -4.959  1.00  0.00     0.166 HD
HETATM    4  C12 UNL     1      -7.243  -0.026  -5.770  1.00  0.00     0.182 A
HETATM    5  N2  UNL     1      -8.518   0.364  -5.856  1.00  0.00    -0.338 N
ATOM      6  H2  UNL     1      -9.181  -0.166  -6.420  1.00  0.00     0.168 HD
HETATM    7  C13 UNL     1      -8.915   1.457  -5.196  1.00  0.00     0.123 A
HETATM    8  N3  UNL     1     -10.139   1.840  -5.273  1.00  0.00    -0.384 N
ATOM      9  H31 UNL     1     -10.442   2.673  -4.769  1.00  0.00     0.157 HD
ATOM     10  H32 UNL     1     -10.775   1.285  -5.846  1.00  0.00     0.157 HD
HETATM   11  C14 UNL     1      -8.035   2.225  -4.403  1.00  0.00     0.116 A
HETATM   12  C15 UNL     1      -8.593   3.339  -3.688  1.00  0.00     0.105 C
HETATM   13  N4  UNL     1      -9.066   4.211  -3.102  1.00  0.00    -0.191 NA
ENDROOT
BRANCH   1  14
HETATM   14  C10 UNL     1      -5.719   2.466  -3.524  1.00  0.00     0.035 A
HETATM   15  C9  UNL     1      -4.969   2.075  -2.484  1.00  0.00     0.034 A
HETATM   16  C8  UNL     1      -4.002   2.941  -1.999  1.00  0.00    -0.011 A
HETATM   17  C16 UNL     1      -3.907   4.135  -2.639  1.00  0.00     0.057 A
HETATM   18  S1  UNL     1      -5.116   4.037  -3.861  1.00  0.00    -0.080 SA
BRANCH  16  19
HETATM   19  C7  UNL     1      -3.155   2.511  -0.839  1.00  0.00     0.014 C
HETATM   20  C6  UNL     1      -3.547   2.567   0.372  1.00  0.00     0.012 C
BRANCH  20  21
HETATM   21  C5  UNL     1      -2.690   2.134   1.483  1.00  0.00    -0.033 A
HETATM   22  C4  UNL     1      -1.347   2.151   1.387  1.00  0.00     0.014 A
HETATM   23  C3  UNL     1      -0.527   1.735   2.460  1.00  0.00     0.040 A
HETATM   24  C2  UNL     1      -1.160   1.315   3.602  1.00  0.00     0.101 A
HETATM   25  C19 UNL     1      -2.531   1.290   3.718  1.00  0.00     0.102 A
HETATM   26  C18 UNL     1      -3.288   1.695   2.670  1.00  0.00     0.051 A
BRANCH  24  27
HETATM   27  O1  UNL     1      -0.392   0.900   4.675  1.00  0.00    -0.353 OA
HETATM   28  C1  UNL     1       0.998   1.145   4.750  1.00  0.00     0.210 C
ENDBRANCH  24  27
BRANCH  25  29
HETATM   29  O2  UNL     1      -3.155   0.856   4.896  1.00  0.00    -0.353 OA
HETATM   30  C20 UNL     1      -4.497   0.445   4.881  1.00  0.00     0.210 C
ENDBRANCH  25  29
ENDBRANCH  20  21
ENDBRANCH  16  19
BRANCH  17  31
HETATM   31  S2  UNL     1      -2.858   5.586  -2.343  1.00  0.00    -0.053 SA
BRANCH  31  32
HETATM   32  C17 UNL     1      -1.117   5.093  -2.297  1.00  0.00     0.421 C
HETATM   33  F1  UNL     1      -0.782   4.828  -0.959  1.00  0.00    -0.202 F
HETATM   34  F2  UNL     1      -0.805   4.037  -3.092  1.00  0.00    -0.202 F
ENDBRANCH  31  32
ENDBRANCH  17  31
ENDBRANCH   1  14
TORSDOF 7
ENDMDL