MODEL 3
REMARK VINA RESULT: -5.772824349      2.528      8.651
REMARK  11 active torsions:
REMARK  status: ('A' for Active; 'I' for Inactive)
REMARK    1  A    between atoms: C2_2  and  C3_3
REMARK    2  A    between atoms: C4_4  and  C5_5
REMARK    3  A    between atoms: C7_7  and  O1_8
REMARK    4  A    between atoms: C9_10  and  O2_11
REMARK    5  A    between atoms: C11_13  and  O3_14
REMARK    6  A    between atoms: N1_19  and  O4_20
REMARK    7  A    between atoms: C15_22  and  N2_23
REMARK    8  A    between atoms: N2_23  and  C16_25
REMARK    9  A    between atoms: C16_25  and  O5_26
REMARK   10  A    between atoms: C16_25  and  O6_28
REMARK   11  A    between atoms: O6_28  and  C17_29
ROOT
HETATM    1  C3  UNL     1      -0.867   4.363  -0.243  1.00  0.00     0.022 A
HETATM    2  C4  UNL     1      -0.067   3.289   0.176  1.00  0.00     0.009 A
HETATM    3  C14 UNL     1       0.668   2.891  -0.888  1.00  0.00     0.138 A
HETATM    4  N1  UNL     1       0.383   3.650  -1.960  1.00  0.00    -0.217 N
HETATM    5  C15 UNL     1      -0.549   4.555  -1.596  1.00  0.00     0.147 A
ENDROOT
BRANCH   2   6
HETATM    6  C5  UNL     1      -0.064   2.740   1.515  1.00  0.00     0.021 A
HETATM    7  C6  UNL     1       0.949   3.071   2.380  1.00  0.00     0.055 A
HETATM    8  C7  UNL     1       0.985   2.558   3.684  1.00  0.00     0.105 A
HETATM    9  C9  UNL     1      -0.034   1.703   4.083  1.00  0.00     0.138 A
HETATM   10  C11 UNL     1      -1.057   1.362   3.227  1.00  0.00     0.144 A
HETATM   11  C13 UNL     1      -1.062   1.892   1.931  1.00  0.00     0.163 A
HETATM   12  F1  UNL     1      -2.047   1.588   1.053  1.00  0.00    -0.202 F
BRANCH   8  13
HETATM   13  O1  UNL     1       2.000   2.881   4.571  1.00  0.00    -0.353 OA
HETATM   14  C8  UNL     1       2.311   4.251   4.744  1.00  0.00     0.210 C
ENDBRANCH   8  13
BRANCH   9  15
HETATM   15  O2  UNL     1      -0.019   1.183   5.371  1.00  0.00    -0.351 OA
HETATM   16  C10 UNL     1      -0.530   1.923   6.478  1.00  0.00     0.210 C
ENDBRANCH   9  15
BRANCH  10  17
HETATM   17  O3  UNL     1      -2.073   0.511   3.625  1.00  0.00    -0.350 OA
HETATM   18  C12 UNL     1      -3.296   1.081   4.066  1.00  0.00     0.210 C
ENDBRANCH  10  17
ENDBRANCH   2   6
BRANCH   1  19
HETATM   19  C2  UNL     1      -1.794   5.075   0.628  1.00  0.00     0.006 C
HETATM   20  C1  UNL     1      -3.079   4.866   0.744  1.00  0.00     0.012 C
ENDBRANCH   1  19
BRANCH   5  21
HETATM   21  N2  UNL     1      -1.096   5.596  -2.361  1.00  0.00    -0.300 N
ATOM     22  H2  UNL     1      -0.657   6.505  -2.212  1.00  0.00     0.171 HD
BRANCH  21  23
HETATM   23  C16 UNL     1      -2.133   5.603  -3.285  1.00  0.00     0.264 C
BRANCH  23  24
HETATM   24  O5  UNL     1      -2.476   6.737  -3.824  1.00  0.00    -0.327 OA
ATOM     25  H5  UNL     1      -3.185   6.741  -4.456  1.00  0.00     0.221 HD
ENDBRANCH  23  24
BRANCH  23  26
HETATM   26  O6  UNL     1      -2.864   4.551  -3.714  1.00  0.00    -0.311 OA
BRANCH  26  27
HETATM   27  C17 UNL     1      -4.023   4.096  -3.059  1.00  0.00     0.132 C
HETATM   28  C18 UNL     1      -5.179   3.859  -3.988  1.00  0.00     0.032 C
HETATM   29  C19 UNL     1      -5.716   2.479  -4.001  1.00  0.00     0.002 C
HETATM   30  C20 UNL     1      -5.789   1.772  -2.706  1.00  0.00     0.000 C
HETATM   31  C21 UNL     1      -5.057   2.470  -1.580  1.00  0.00     0.002 C
HETATM   32  C22 UNL     1      -3.722   2.902  -2.179  1.00  0.00     0.032 C
ENDBRANCH  26  27
ENDBRANCH  23  26
ENDBRANCH  21  23
ENDBRANCH   5  21
BRANCH   4  33
HETATM   33  O4  UNL     1       0.990   3.486  -3.210  1.00  0.00    -0.281 OA
ATOM     34  H4  UNL     1       0.558   3.676  -4.034  1.00  0.00     0.245 HD
ENDBRANCH   4  33
TORSDOF 11
ENDMDL