MODEL 3
REMARK VINA RESULT: -6.379875816      0.703      1.440
REMARK  10 active torsions:
REMARK  status: ('A' for Active; 'I' for Inactive)
REMARK    1  A    between atoms: C3_3  and  C4_4
REMARK    2  A    between atoms: N1_10  and  C6_11
REMARK    3  A    between atoms: C9_14  and  O2_15
REMARK    4  A    between atoms: C10_17  and  C11_18
REMARK    5  A    between atoms: N2_19  and  C12_21
REMARK    6  A    between atoms: C12_21  and  C13_22
REMARK    7  A    between atoms: C13_22  and  C14_23
REMARK    8  A    between atoms: C14_23  and  S1_24
REMARK    9  A    between atoms: S1_24  and  C15_25
REMARK   10  A    between atoms: N3_33  and  O3_34
ROOT
HETATM    1  C6  UNL     1      -3.915   1.454   4.403  1.00  0.00     0.063 A
HETATM    2  C7  UNL     1      -4.727   0.554   5.027  1.00  0.00     0.034 A
HETATM    3  C8  UNL     1      -6.012   0.287   4.626  1.00  0.00     0.040 A
HETATM    4  C9  UNL     1      -6.518   0.976   3.514  1.00  0.00     0.077 A
HETATM    5  C10 UNL     1      -5.736   1.893   2.852  1.00  0.00     0.014 A
HETATM    6  C22 UNL     1      -4.460   2.119   3.297  1.00  0.00     0.047 A
ENDROOT
BRANCH   5   7
HETATM    7  C11 UNL     1      -6.261   2.623   1.678  1.00  0.00     0.097 C
HETATM    8  N2  UNL     1      -5.557   2.673   0.596  1.00  0.00    -0.398 N
ATOM      9  H2  UNL     1      -4.658   2.191   0.619  1.00  0.00     0.158 HD
BRANCH   8  10
HETATM   10  C12 UNL     1      -5.893   3.320  -0.619  1.00  0.00     0.119 C
BRANCH  10  11
HETATM   11  C13 UNL     1      -5.790   2.551  -1.880  1.00  0.00     0.030 C
BRANCH  11  12
HETATM   12  C14 UNL     1      -4.508   2.620  -2.622  1.00  0.00     0.081 C
BRANCH  12  13
HETATM   13  S1  UNL     1      -3.437   3.991  -2.235  1.00  0.00    -0.135 SA
BRANCH  13  14
HETATM   14  C15 UNL     1      -1.947   3.364  -1.477  1.00  0.00    -0.026 C
HETATM   15  C16 UNL     1      -0.763   3.682  -1.983  1.00  0.00    -0.013 C
HETATM   16  C17 UNL     1       0.561   3.291  -1.539  1.00  0.00     0.028 C
HETATM   17  C18 UNL     1       0.889   3.483  -0.105  1.00  0.00     0.004 C
HETATM   18  C19 UNL     1      -0.139   3.066   0.880  1.00  0.00     0.001 C
HETATM   19  C20 UNL     1      -0.935   1.924   0.288  1.00  0.00     0.005 C
HETATM   20  C21 UNL     1      -2.192   2.507  -0.299  1.00  0.00     0.045 C
ENDBRANCH  13  14
ENDBRANCH  12  13
ENDBRANCH  11  12
ENDBRANCH  10  11
ENDBRANCH   8  10
ENDBRANCH   5   7
BRANCH   4  21
HETATM   21  O2  UNL     1      -7.801   0.725   3.093  1.00  0.00    -0.360 OA
ATOM     22  H2  UNL     1      -8.477   1.375   3.244  1.00  0.00     0.217 HD
ENDBRANCH   4  21
BRANCH   1  23
HETATM   23  N1  UNL     1      -2.586   1.724   4.831  1.00  0.00    -0.193 N
HETATM   24  C5  UNL     1      -1.434   1.282   4.303  1.00  0.00     0.286 A
HETATM   25  C3  UNL     1      -0.387   1.793   5.039  1.00  0.00     0.143 A
HETATM   26  O1  UNL     1      -1.338   0.537   3.315  1.00  0.00    -0.265 OA
HETATM   27  C2  UNL     1      -0.960   2.559   6.028  1.00  0.00     0.076 A
HETATM   28  C1  UNL     1      -0.274   3.316   7.073  1.00  0.00     0.074 C
HETATM   29  N3  UNL     1      -2.295   2.495   5.872  1.00  0.00    -0.157 N
BRANCH  25  30
HETATM   30  C4  UNL     1       1.055   1.598   4.852  1.00  0.00     0.424 C
HETATM   31  F1  UNL     1       1.288   0.234   4.766  1.00  0.00    -0.166 F
HETATM   32  F2  UNL     1       1.504   2.138   3.650  1.00  0.00    -0.166 F
HETATM   33  F3  UNL     1       1.789   2.052   5.927  1.00  0.00    -0.166 F
ENDBRANCH  25  30
BRANCH  29  34
HETATM   34  O3  UNL     1      -3.227   3.126   6.664  1.00  0.00    -0.267 OA
ATOM     35  H3  UNL     1      -4.157   3.192   6.481  1.00  0.00     0.247 HD
ENDBRANCH  29  34
ENDBRANCH   1  23
TORSDOF 10
ENDMDL