MODEL 1
REMARK VINA RESULT: -6.342280356      0.000      0.000
REMARK  8 active torsions:
REMARK  status: ('A' for Active; 'I' for Inactive)
REMARK    1  A    between atoms: O1_2  and  C2_3
REMARK    2  A    between atoms: C4_5  and  C5_6
REMARK    3  A    between atoms: C7_8  and  C8_9
REMARK    4  A    between atoms: N2_14  and  C11_15
REMARK    5  A    between atoms: C11_15  and  C12_16
REMARK    6  A    between atoms: C12_16  and  C13_17
REMARK    7  A    between atoms: C13_17  and  N3_18
REMARK    8  A    between atoms: C24_34  and  O2_35
ROOT
HETATM    1  C5  UNL     1      -2.768   1.561   3.297  1.00  0.00     0.103 C
HETATM    2  C6  UNL     1      -3.290   2.132   2.066  1.00  0.00     0.024 A
HETATM    3  C7  UNL     1      -2.525   2.223   0.920  1.00  0.00     0.040 A
HETATM    4  N1  UNL     1      -3.304   2.790  -0.039  1.00  0.00    -0.300 N
ATOM      5  H1  UNL     1      -2.987   2.976  -0.990  1.00  0.00     0.187 HD
HETATM    6  N2  UNL     1      -4.490   3.067   0.388  1.00  0.00    -0.276 N
HETATM    7  C17 UNL     1      -4.524   2.679   1.674  1.00  0.00     0.128 A
HETATM    8  N5  UNL     1      -5.743   2.834   2.445  1.00  0.00    -0.361 N
ATOM      9  H5  UNL     1      -6.313   3.663   2.276  1.00  0.00     0.162 HD
HETATM   10  C18 UNL     1      -6.222   1.848   3.481  1.00  0.00     0.149 C
HETATM   11  C19 UNL     1      -7.271   1.004   2.737  1.00  0.00     0.045 C
HETATM   12  C20 UNL     1      -5.050   1.186   3.942  1.00  0.00    -0.121 C
HETATM   13  C21 UNL     1      -3.736   0.713   4.150  1.00  0.00     0.251 C
HETATM   14  F1  UNL     1      -3.320   0.787   5.498  1.00  0.00    -0.236 F
ENDROOT
BRANCH   1  15
HETATM   15  C4  UNL     1      -2.109   2.546   4.220  1.00  0.00    -0.043 A
HETATM   16  C3  UNL     1      -0.884   2.220   4.753  1.00  0.00     0.047 A
HETATM   17  C2  UNL     1      -0.231   3.083   5.594  1.00  0.00     0.101 A
HETATM   18  C24 UNL     1      -0.795   4.298   5.919  1.00  0.00     0.099 A
HETATM   19  C23 UNL     1      -2.020   4.643   5.395  1.00  0.00     0.040 A
HETATM   20  C22 UNL     1      -2.665   3.753   4.545  1.00  0.00     0.011 A
BRANCH  17  21
HETATM   21  O1  UNL     1       1.009   2.791   6.153  1.00  0.00    -0.353 OA
HETATM   22  C1  UNL     1       2.081   2.213   5.476  1.00  0.00     0.210 C
ENDBRANCH  17  21
BRANCH  18  23
HETATM   23  O2  UNL     1      -0.109   5.161   6.778  1.00  0.00    -0.358 OA
ATOM     24  H2  UNL     1      -0.596   5.818   7.262  1.00  0.00     0.217 HD
ENDBRANCH  18  23
ENDBRANCH   1  15
BRANCH   3  25
HETATM   25  C8  UNL     1      -1.107   1.839   0.656  1.00  0.00     0.029 C
HETATM   26  C9  UNL     1      -0.842   1.838  -0.856  1.00  0.00     0.016 C
HETATM   27  C10 UNL     1      -0.198   2.928   1.193  1.00  0.00     0.016 C
ENDBRANCH   3  25
BRANCH   6  28
HETATM   28  C11 UNL     1      -5.589   3.686  -0.364  1.00  0.00     0.152 C
BRANCH  28  29
HETATM   29  C12 UNL     1      -6.336   2.588  -1.058  1.00  0.00     0.042 C
BRANCH  29  30
HETATM   30  C13 UNL     1      -6.650   2.950  -2.502  1.00  0.00     0.131 C
BRANCH  30  31
HETATM   31  N3  UNL     1      -6.395   1.833  -3.386  1.00  0.00    -0.352 N
HETATM   32  C14 UNL     1      -7.143   1.444  -4.455  1.00  0.00     0.108 A
HETATM   33  C15 UNL     1      -6.546   0.340  -5.012  1.00  0.00     0.106 A
HETATM   34  N4  UNL     1      -5.452   0.093  -4.263  1.00  0.00    -0.361 N
HETATM   35  C16 UNL     1      -5.353   0.992  -3.275  1.00  0.00     0.182 A
ATOM     36  H4  UNL     1      -4.795  -0.670  -4.425  1.00  0.00     0.166 HD
ENDBRANCH  30  31
ENDBRANCH  29  30
ENDBRANCH  28  29
ENDBRANCH   6  28
TORSDOF 8
ENDMDL