MODEL 5
REMARK VINA RESULT: -5.944715892      2.579      4.262
REMARK  9 active torsions:
REMARK  status: ('A' for Active; 'I' for Inactive)
REMARK    1  A    between atoms: O1_2  and  C2_3
REMARK    2  A    between atoms: C4_5  and  N1_6
REMARK    3  A    between atoms: C5_7  and  O2_8
REMARK    4  A    between atoms: C7_11  and  S1_12
REMARK    5  A    between atoms: S1_12  and  C8_13
REMARK    6  A    between atoms: C12_18  and  C13_19
REMARK    7  A    between atoms: C17_24  and  O3_25
REMARK    8  A    between atoms: C19_28  and  O4_29
REMARK    9  A    between atoms: C21_31  and  O5_32
ROOT
HETATM    1  N1  UNL     1      -1.437   3.434   0.438  1.00  0.00    -0.271 N
HETATM    2  C5  UNL     1      -0.953   3.076  -0.765  1.00  0.00     0.150 A
HETATM    3  C6  UNL     1      -1.638   3.776  -1.735  1.00  0.00     0.079 A
HETATM    4  C7  UNL     1      -2.561   4.583  -1.123  1.00  0.00     0.061 A
HETATM    5  C17 UNL     1      -2.405   4.343   0.219  1.00  0.00     0.166 A
ENDROOT
BRANCH   1   6
HETATM    6  C4  UNL     1      -0.988   2.818   1.656  1.00  0.00     0.049 A
HETATM    7  C3  UNL     1       0.210   3.010   2.254  1.00  0.00     0.070 A
HETATM    8  C2  UNL     1       0.606   2.410   3.418  1.00  0.00     0.106 A
HETATM    9  C21 UNL     1      -0.346   1.552   3.984  1.00  0.00     0.135 A
HETATM   10  C19 UNL     1      -1.580   1.308   3.438  1.00  0.00     0.106 A
HETATM   11  C18 UNL     1      -1.877   1.958   2.264  1.00  0.00     0.070 A
BRANCH   8  12
HETATM   12  O1  UNL     1       1.828   2.606   4.005  1.00  0.00    -0.353 OA
HETATM   13  C1  UNL     1       2.172   3.815   4.647  1.00  0.00     0.210 C
ENDBRANCH   8  12
BRANCH   9  14
HETATM   14  O5  UNL     1      -0.012   0.900   5.178  1.00  0.00    -0.351 OA
HETATM   15  C22 UNL     1      -0.351   1.615   6.370  1.00  0.00     0.210 C
ENDBRANCH   9  14
BRANCH  10  16
HETATM   16  O4  UNL     1      -2.507   0.450   4.006  1.00  0.00    -0.353 OA
HETATM   17  C20 UNL     1      -3.741   0.979   4.464  1.00  0.00     0.210 C
ENDBRANCH  10  16
ENDBRANCH   1   6
BRANCH   2  18
HETATM   18  O2  UNL     1       0.073   2.148  -1.028  1.00  0.00    -0.346 OA
ATOM     19  H2  UNL     1       0.667   2.143  -1.770  1.00  0.00     0.219 HD
ENDBRANCH   2  18
BRANCH   5  20
HETATM   20  O3  UNL     1      -3.156   4.972   1.201  1.00  0.00    -0.345 OA
ATOM     21  H3  UNL     1      -4.030   4.717   1.475  1.00  0.00     0.219 HD
ENDBRANCH   5  20
BRANCH   4  22
HETATM   22  S1  UNL     1      -3.847   5.603  -1.917  1.00  0.00    -0.080 SA
BRANCH  22  23
HETATM   23  C8  UNL     1      -5.239   4.462  -2.131  1.00  0.00     0.083 A
HETATM   24  C9  UNL     1      -6.175   4.355  -1.087  1.00  0.00     0.136 A
HETATM   25  F1  UNL     1      -6.056   5.222  -0.066  1.00  0.00    -0.205 F
HETATM   26  C10 UNL     1      -7.138   3.382  -1.185  1.00  0.00     0.044 A
HETATM   27  C11 UNL     1      -7.263   2.501  -2.226  1.00  0.00     0.013 A
HETATM   28  C12 UNL     1      -6.321   2.644  -3.244  1.00  0.00    -0.015 A
HETATM   29  C16 UNL     1      -5.351   3.599  -3.181  1.00  0.00     0.143 A
HETATM   30  F2  UNL     1      -4.425   3.723  -4.200  1.00  0.00    -0.204 F
BRANCH  28  31
HETATM   31  C13 UNL     1      -6.453   1.876  -4.492  1.00  0.00     0.013 C
HETATM   32  C14 UNL     1      -5.792   0.518  -4.228  1.00  0.00     0.015 C
HETATM   33  C15 UNL     1      -7.988   1.547  -4.667  1.00  0.00     0.015 C
ENDBRANCH  28  31
ENDBRANCH  22  23
ENDBRANCH   4  22
TORSDOF 9
ENDMDL