MODEL 4
REMARK VINA RESULT: -6.355581754      2.467      3.295
REMARK  6 active torsions:
REMARK  status: ('A' for Active; 'I' for Inactive)
REMARK    1  A    between atoms: C2_2  and  C3_3
REMARK    2  A    between atoms: C3_3  and  N1_4
REMARK    3  A    between atoms: N1_4  and  C5_6
REMARK    4  A    between atoms: C5_6  and  C6_7
REMARK    5  A    between atoms: C8_9  and  C9_10
REMARK    6  A    between atoms: C11_12  and  C12_13
ROOT
HETATM    1  C6  UNL     1     -13.167  -5.175   2.756  1.00  0.00     0.026 C
HETATM    2  C7  UNL     1     -12.909  -3.800   2.163  1.00  0.00     0.045 C
HETATM    3  C8  UNL     1     -14.033  -3.326   1.289  1.00  0.00     0.173 C
HETATM    4  O1  UNL     1     -14.615  -4.419   0.668  1.00  0.00    -0.379 OA
HETATM    5  C15 UNL     1     -13.643  -5.344   0.379  1.00  0.00     0.177 C
HETATM    6  C16 UNL     1     -13.451  -6.161   1.666  1.00  0.00    -0.021 C
HETATM    7  C17 UNL     1     -14.745  -6.909   1.881  1.00  0.00     0.017 C
HETATM    8  C18 UNL     1     -12.355  -7.136   1.399  1.00  0.00     0.017 C
ENDROOT
BRANCH   3   9
HETATM    9  C9  UNL     1     -13.520  -2.458   0.169  1.00  0.00     0.057 A
HETATM   10  C10 UNL     1     -12.431  -1.612   0.187  1.00  0.00     0.061 A
HETATM   11  C11 UNL     1     -12.300  -1.005  -1.043  1.00  0.00     0.063 A
HETATM   12  N4  UNL     1     -13.310  -1.493  -1.783  1.00  0.00    -0.300 N
HETATM   13  N5  UNL     1     -14.041  -2.355  -1.078  1.00  0.00    -0.302 N
ATOM     14  H4  UNL     1     -13.492  -1.237  -2.754  1.00  0.00     0.187 HD
ATOM     15  H5  UNL     1     -14.860  -2.856  -1.421  1.00  0.00     0.186 HD
BRANCH  11  16
HETATM   16  C12 UNL     1     -11.299  -0.041  -1.485  1.00  0.00     0.026 A
HETATM   17  C13 UNL     1     -10.448   0.725  -0.722  1.00  0.00     0.122 A
HETATM   18  N2  UNL     1      -9.674   1.491  -1.505  1.00  0.00    -0.311 N
HETATM   19  N3  UNL     1     -10.026   1.219  -2.767  1.00  0.00    -0.311 N
ATOM     20  H2  UNL     1      -8.958   2.150  -1.200  1.00  0.00     0.186 HD
HETATM   21  C14 UNL     1     -11.009   0.295  -2.791  1.00  0.00     0.122 A
ATOM     22  H3  UNL     1      -9.610   1.650  -3.593  1.00  0.00     0.186 HD
ENDBRANCH  11  16
ENDBRANCH   3   9
BRANCH   1  23
HETATM   23  C5  UNL     1     -12.014  -5.571   3.631  1.00  0.00     0.277 C
BRANCH  23  24
HETATM   24  N1  UNL     1     -12.267  -5.357   5.036  1.00  0.00     0.084 N
HETATM   25  C4  UNL     1     -12.430  -6.630   5.709  1.00  0.00     0.309 C
BRANCH  24  26
HETATM   26  C3  UNL     1     -11.171  -4.661   5.633  1.00  0.00     0.271 C
BRANCH  26  27
HETATM   27  C2  UNL     1      -9.913  -4.637   4.822  1.00  0.00     0.026 C
HETATM   28  C1  UNL     1      -8.751  -4.649   5.827  1.00  0.00     0.007 C
ENDBRANCH  26  27
ENDBRANCH  24  26
ENDBRANCH  23  24
ENDBRANCH   1  23
TORSDOF 6
ENDMDL