MODEL 3
REMARK VINA RESULT: -5.170848748      3.566      6.656
REMARK  9 active torsions:
REMARK  status: ('A' for Active; 'I' for Inactive)
REMARK    1  A    between atoms: C2_2  and  C4_4
REMARK    2  A    between atoms: C4_4  and  C5_5
REMARK    3  A    between atoms: C5_5  and  C6_6
REMARK    4  A    between atoms: C6_6  and  C7_7
REMARK    5  A    between atoms: C7_7  and  C8_8
REMARK    6  A    between atoms: C8_8  and  C9_9
REMARK    7  A    between atoms: C15_17  and  C16_18
REMARK    8  A    between atoms: C17_19  and  C18_20
REMARK    9  A    between atoms: C18_20  and  O3_23
ROOT
HETATM    1  C6  UNL     1     -13.781  -4.963   1.566  1.00  0.00     0.087 C
HETATM    2  O1  UNL     1     -14.559  -4.855   2.774  1.00  0.00    -0.308 OA
HETATM    3  C12 UNL     1     -15.440  -5.922   2.731  1.00  0.00     0.264 C
HETATM    4  O2  UNL     1     -15.798  -6.697   3.684  1.00  0.00    -0.265 OA
HETATM    5  C13 UNL     1     -15.906  -6.007   1.343  1.00  0.00     0.092 C
HETATM    6  C14 UNL     1     -17.248  -5.310   1.258  1.00  0.00     0.021 C
HETATM    7  C15 UNL     1     -14.839  -5.225   0.535  1.00  0.00     0.057 C
ENDROOT
BRANCH   1   8
HETATM    8  C5  UNL     1     -12.857  -6.150   1.805  1.00  0.00     0.119 C
BRANCH   8   9
HETATM    9  C4  UNL     1     -11.997  -5.877   2.895  1.00  0.00    -0.176 C
BRANCH   9  10
HETATM   10  C2  UNL     1     -11.227  -5.633   3.874  1.00  0.00     0.044 C
HETATM   11  C1  UNL     1      -9.769  -5.852   3.963  1.00  0.00     0.022 C
HETATM   12  C3  UNL     1     -11.795  -5.032   5.179  1.00  0.00     0.022 C
ENDBRANCH   9  10
ENDBRANCH   8   9
ENDBRANCH   1   8
BRANCH   1  13
HETATM   13  C7  UNL     1     -13.052  -3.666   1.453  1.00  0.00     0.041 C
BRANCH  13  14
HETATM   14  C8  UNL     1     -13.690  -2.663   0.563  1.00  0.00     0.007 C
BRANCH  14  15
HETATM   15  C9  UNL     1     -12.722  -2.074  -0.442  1.00  0.00    -0.014 A
HETATM   16  C10 UNL     1     -13.278  -0.865  -1.253  1.00  0.00     0.005 A
HETATM   17  C11 UNL     1     -12.277  -0.672  -0.169  1.00  0.00     0.005 A
ENDBRANCH  14  15
ENDBRANCH  13  14
ENDBRANCH   1  13
BRANCH   7  18
HETATM   18  C16 UNL     1     -14.380  -6.039  -0.585  1.00  0.00    -0.019 C
HETATM   19  C17 UNL     1     -14.716  -5.931  -1.827  1.00  0.00     0.006 C
BRANCH  19  20
HETATM   20  C18 UNL     1     -15.583  -5.078  -2.610  1.00  0.00     0.068 C
HETATM   21  C19 UNL     1     -15.589  -3.616  -2.421  1.00  0.00     0.050 C
HETATM   22  C20 UNL     1     -17.029  -5.552  -2.312  1.00  0.00     0.050 C
BRANCH  20  23
HETATM   23  O3  UNL     1     -15.363  -5.314  -4.006  1.00  0.00    -0.387 OA
ATOM     24  H3  UNL     1     -15.400  -6.247  -4.183  1.00  0.00     0.211 HD
ENDBRANCH  20  23
ENDBRANCH  19  20
ENDBRANCH   7  18
TORSDOF 9
ENDMDL