MODEL 5
REMARK VINA RESULT: -6.185754213      3.124      4.367
REMARK  7 active torsions:
REMARK  status: ('A' for Active; 'I' for Inactive)
REMARK    1  A    between atoms: C2_2  and  C3_3
REMARK    2  A    between atoms: C3_3  and  C4_4
REMARK    3  A    between atoms: C4_4  and  C5_5
REMARK    4  A    between atoms: C5_5  and  C6_6
REMARK    5  A    between atoms: C11_11  and  C12_12
REMARK       I    between atoms: C12_12  and  N1_14
REMARK    6  A    between atoms: N1_14  and  C13_16
REMARK    7  A    between atoms: C14_21  and  C15_22
ROOT
HETATM    1  C6  UNL     1     -16.513  -5.183  -4.663  1.00  0.00     0.187 C
HETATM    2  C7  UNL     1     -17.694  -5.669  -3.905  1.00  0.00     0.033 C
HETATM    3  C8  UNL     1     -17.886  -4.776  -2.685  1.00  0.00     0.002 C
HETATM    4  C9  UNL     1     -16.849  -5.078  -1.655  1.00  0.00     0.003 C
HETATM    5  C10 UNL     1     -15.441  -4.930  -2.093  1.00  0.00     0.043 C
HETATM    6  C11 UNL     1     -15.198  -3.884  -3.132  1.00  0.00     0.277 C
HETATM    7  N4  UNL     1     -16.177  -3.849  -4.167  1.00  0.00    -0.058 N
ATOM      8  H41 UNL     1     -17.013  -3.347  -3.867  1.00  0.00     0.278 HD
ATOM      9  H42 UNL     1     -15.884  -3.237  -4.929  1.00  0.00     0.278 HD
ENDROOT
BRANCH   6  10
HETATM   10  C12 UNL     1     -15.147  -2.566  -2.462  1.00  0.00     0.254 C
HETATM   11  O1  UNL     1     -15.854  -1.632  -2.907  1.00  0.00    -0.271 OA
HETATM   12  N1  UNL     1     -14.339  -2.300  -1.344  1.00  0.00    -0.304 N
ATOM     13  H1  UNL     1     -14.547  -2.705  -0.432  1.00  0.00     0.171 HD
BRANCH  12  14
HETATM   14  C13 UNL     1     -13.304  -1.511  -1.522  1.00  0.00     0.167 A
HETATM   15  N2  UNL     1     -12.917  -0.882  -2.636  1.00  0.00    -0.279 N
HETATM   16  N3  UNL     1     -11.875  -0.157  -2.597  1.00  0.00    -0.296 N
ATOM     17  H2  UNL     1     -13.447  -0.982  -3.501  1.00  0.00     0.189 HD
HETATM   18  C14 UNL     1     -11.192  -0.033  -1.469  1.00  0.00     0.069 A
ATOM     19  H3  UNL     1     -11.564   0.332  -3.436  1.00  0.00     0.187 HD
HETATM   20  S1  UNL     1     -12.104  -1.017  -0.409  1.00  0.00    -0.038 SA
BRANCH  18  21
HETATM   21  C15 UNL     1      -9.939   0.777  -1.226  1.00  0.00     0.062 C
HETATM   22  C16 UNL     1      -9.856   1.741  -2.415  1.00  0.00     0.012 C
ENDBRANCH  18  21
ENDBRANCH  12  14
ENDBRANCH   6  10
BRANCH   1  23
HETATM   23  C5  UNL     1     -16.756  -5.128  -6.130  1.00  0.00     0.033 C
BRANCH  23  24
HETATM   24  C4  UNL     1     -17.825  -5.934  -6.722  1.00  0.00     0.002 C
BRANCH  24  25
HETATM   25  C3  UNL     1     -18.919  -5.271  -7.496  1.00  0.00    -0.000 C
BRANCH  25  26
HETATM   26  C2  UNL     1     -18.744  -3.739  -7.457  1.00  0.00    -0.005 C
HETATM   27  C1  UNL     1     -19.083  -3.192  -8.816  1.00  0.00     0.005 C
ENDBRANCH  25  26
ENDBRANCH  24  25
ENDBRANCH  23  24
ENDBRANCH   1  23
TORSDOF 7
ENDMDL