MODEL 5
REMARK VINA RESULT: -5.370627347      2.194      4.011
REMARK  9 active torsions:
REMARK  status: ('A' for Active; 'I' for Inactive)
REMARK    1  A    between atoms: C4_4  and  C5_5
REMARK    2  A    between atoms: C10_10  and  C11_11
REMARK    3  A    between atoms: C11_11  and  C13_13
REMARK    4  A    between atoms: C13_13  and  O2_15
REMARK    5  A    between atoms: O2_15  and  C14_16
REMARK    6  A    between atoms: C14_16  and  C15_17
REMARK    7  A    between atoms: C15_17  and  C17_19
REMARK    8  A    between atoms: C17_19  and  O3_20
REMARK    9  A    between atoms: C18_22  and  O4_24
ROOT
HETATM    1  C5  UNL     1     -20.793   0.449  -4.419  1.00  0.00     0.046 C
HETATM    2  C6  UNL     1     -20.850   0.754  -2.940  1.00  0.00    -0.008 C
HETATM    3  C7  UNL     1     -21.237  -0.465  -2.122  1.00  0.00     0.011 C
HETATM    4  C8  UNL     1     -19.653   1.454  -2.406  1.00  0.00     0.005 C
HETATM    5  C9  UNL     1     -18.388   1.207  -3.191  1.00  0.00     0.009 C
HETATM    6  C10 UNL     1     -18.464  -0.207  -3.785  1.00  0.00     0.033 C
HETATM    7  C18 UNL     1     -19.486  -0.132  -4.879  1.00  0.00     0.066 C
HETATM    8  C19 UNL     1     -18.939   0.582  -6.095  1.00  0.00     0.047 C
ENDROOT
BRANCH   6   9
HETATM    9  C11 UNL     1     -17.089  -0.543  -4.256  1.00  0.00     0.088 C
HETATM   10  C12 UNL     1     -16.035   0.335  -3.561  1.00  0.00     0.021 C
BRANCH   9  11
HETATM   11  C13 UNL     1     -16.711  -1.966  -3.934  1.00  0.00     0.263 C
HETATM   12  O1  UNL     1     -15.780  -2.193  -3.139  1.00  0.00    -0.265 OA
BRANCH  11  13
HETATM   13  O2  UNL     1     -17.349  -3.026  -4.482  1.00  0.00    -0.321 OA
BRANCH  13  14
HETATM   14  C14 UNL     1     -16.940  -4.081  -5.268  1.00  0.00     0.185 C
BRANCH  14  15
HETATM   15  C15 UNL     1     -17.907  -4.800  -6.109  1.00  0.00     0.029 C
HETATM   16  C16 UNL     1     -17.355  -6.144  -6.568  1.00  0.00     0.014 C
BRANCH  15  17
HETATM   17  C17 UNL     1     -18.578  -4.152  -7.243  1.00  0.00     0.170 C
BRANCH  17  18
HETATM   18  O3  UNL     1     -18.350  -2.777  -7.369  1.00  0.00    -0.400 OA
ATOM     19  H3  UNL     1     -19.127  -2.244  -7.491  1.00  0.00     0.209 HD
ENDBRANCH  17  18
ENDBRANCH  15  17
ENDBRANCH  14  15
ENDBRANCH  13  14
ENDBRANCH  11  13
ENDBRANCH   9  11
ENDBRANCH   6   9
BRANCH   7  20
HETATM   20  O4  UNL     1     -19.741  -1.458  -5.303  1.00  0.00    -0.389 OA
ATOM     21  H4  UNL     1     -18.916  -1.927  -5.274  1.00  0.00     0.210 HD
ENDBRANCH   7  20
BRANCH   1  22
HETATM   22  C4  UNL     1     -21.175   1.702  -5.125  1.00  0.00    -0.017 C
HETATM   23  C2  UNL     1     -22.327   1.844  -5.767  1.00  0.00    -0.091 C
HETATM   24  C1  UNL     1     -22.716   3.068  -6.465  1.00  0.00     0.042 C
HETATM   25  C3  UNL     1     -23.265   0.682  -5.768  1.00  0.00     0.042 C
ENDBRANCH   1  22
TORSDOF 9
ENDMDL