MODEL 1
REMARK VINA RESULT: -5.988157673      0.000      0.000
REMARK  9 active torsions:
REMARK  status: ('A' for Active; 'I' for Inactive)
REMARK    1  A    between atoms: C5_5  and  O1_7
REMARK    2  A    between atoms: C13_15  and  O2_16
REMARK    3  A    between atoms: O2_16  and  C14_17
REMARK    4  A    between atoms: C14_17  and  C15_19
REMARK    5  A    between atoms: C15_19  and  C16_20
REMARK    6  A    between atoms: C16_20  and  C17_21
REMARK    7  A    between atoms: C17_21  and  C18_22
REMARK    8  A    between atoms: C18_22  and  C19_23
REMARK    9  A    between atoms: C19_23  and  O4_24
ROOT
HETATM    1  C1  UNL     1     -19.797  -3.558  -3.767  1.00  0.00     0.017 C
HETATM    2  C2  UNL     1     -19.503  -2.292  -3.995  1.00  0.00    -0.059 C
HETATM    3  C3  UNL     1     -19.949  -1.117  -3.206  1.00  0.00     0.044 C
HETATM    4  C4  UNL     1     -18.919  -0.073  -3.586  1.00  0.00     0.035 C
HETATM    5  C5  UNL     1     -19.277   1.299  -3.182  1.00  0.00     0.059 C
HETATM    6  C6  UNL     1     -20.289   1.201  -2.031  1.00  0.00     0.046 C
HETATM    7  C7  UNL     1     -19.789   2.179  -4.285  1.00  0.00     0.038 C
HETATM    8  C8  UNL     1     -20.516   1.399  -5.356  1.00  0.00     0.008 C
HETATM    9  C9  UNL     1     -19.670   0.313  -5.956  1.00  0.00    -0.007 C
HETATM   10  C10 UNL     1     -20.609  -0.683  -6.610  1.00  0.00     0.011 C
HETATM   11  C11 UNL     1     -18.687  -0.296  -5.035  1.00  0.00    -0.003 C
HETATM   12  C12 UNL     1     -17.273   0.213  -5.350  1.00  0.00     0.019 C
HETATM   13  C13 UNL     1     -18.648  -1.812  -5.112  1.00  0.00     0.169 C
ENDROOT
BRANCH  13  14
HETATM   14  O2  UNL     1     -17.313  -2.240  -4.921  1.00  0.00    -0.311 OA
BRANCH  14  15
HETATM   15  C14 UNL     1     -16.919  -3.558  -5.184  1.00  0.00     0.259 C
HETATM   16  O3  UNL     1     -17.305  -4.012  -6.286  1.00  0.00    -0.265 OA
BRANCH  15  17
HETATM   17  C15 UNL     1     -16.113  -4.316  -4.210  1.00  0.00     0.111 C
BRANCH  17  18
HETATM   18  C16 UNL     1     -16.103  -3.683  -2.869  1.00  0.00     0.010 C
BRANCH  18  19
HETATM   19  C17 UNL     1     -14.784  -3.247  -2.345  1.00  0.00     0.002 C
BRANCH  19  20
HETATM   20  C18 UNL     1     -14.662  -1.726  -2.484  1.00  0.00     0.026 C
BRANCH  20  21
HETATM   21  C19 UNL     1     -13.395  -1.242  -1.812  1.00  0.00     0.164 C
BRANCH  21  22
HETATM   22  O4  UNL     1     -12.622  -0.494  -2.697  1.00  0.00    -0.401 OA
ATOM     23  H4  UNL     1     -13.135   0.207  -3.082  1.00  0.00     0.209 HD
ENDBRANCH  21  22
ENDBRANCH  20  21
ENDBRANCH  19  20
ENDBRANCH  18  19
ENDBRANCH  17  18
ENDBRANCH  15  17
ENDBRANCH  14  15
ENDBRANCH  13  14
BRANCH   5  24
HETATM   24  O1  UNL     1     -18.156   1.936  -2.634  1.00  0.00    -0.390 OA
ATOM     25  H1  UNL     1     -17.940   1.541  -1.797  1.00  0.00     0.210 HD
ENDBRANCH   5  24
TORSDOF 9
ENDMDL