MODEL 1
REMARK VINA RESULT: -6.679547841      0.000      0.000
REMARK  7 active torsions:
REMARK  status: ('A' for Active; 'I' for Inactive)
REMARK    1  A    between atoms: C3_5  and  C4_6
REMARK    2  A    between atoms: C8_11  and  C9_12
REMARK       I    between atoms: C9_12  and  N2_14
REMARK    3  A    between atoms: N2_14  and  C10_16
REMARK    4  A    between atoms: C10_16  and  C11_17
REMARK    5  A    between atoms: C11_17  and  C12_18
REMARK    6  A    between atoms: C12_18  and  N3_19
REMARK    7  A    between atoms: N3_19  and  C13_21
ROOT
HETATM    1  C9  UNL     1     -15.626  -4.326  -2.919  1.00  0.00     0.277 C
HETATM    2  O2  UNL     1     -14.981  -5.265  -3.530  1.00  0.00    -0.265 OA
HETATM    3  N2  UNL     1     -15.693  -4.378  -1.512  1.00  0.00    -0.355 N
ATOM      4  H2  UNL     1     -16.213  -3.675  -0.988  1.00  0.00     0.162 HD
ENDROOT
BRANCH   1   5
HETATM    5  C8  UNL     1     -16.232  -3.286  -3.738  1.00  0.00     0.167 A
HETATM    6  C2  UNL     1     -16.827  -3.363  -4.970  1.00  0.00     0.046 A
HETATM    7  C1  UNL     1     -17.051  -4.570  -5.804  1.00  0.00     0.071 C
HETATM    8  N1  UNL     1     -17.206  -2.114  -5.270  1.00  0.00    -0.341 N
HETATM    9  C3  UNL     1     -16.867  -1.267  -4.265  1.00  0.00     0.132 A
ATOM     10  H1  UNL     1     -17.681  -1.839  -6.129  1.00  0.00     0.167 HD
HETATM   11  O1  UNL     1     -16.289  -2.008  -3.372  1.00  0.00    -0.289 OA
BRANCH   9  12
HETATM   12  C4  UNL     1     -17.134   0.212  -4.252  1.00  0.00     0.014 C
HETATM   13  C5  UNL     1     -18.475   0.491  -3.618  1.00  0.00     0.023 C
HETATM   14  C6  UNL     1     -16.062   0.984  -3.555  1.00  0.00     0.023 C
HETATM   15  C7  UNL     1     -17.188   0.676  -5.711  1.00  0.00     0.023 C
ENDBRANCH   9  12
ENDBRANCH   1   5
BRANCH   3  16
HETATM   16  C10 UNL     1     -14.993  -5.473  -0.817  1.00  0.00     0.124 C
BRANCH  16  17
HETATM   17  C11 UNL     1     -14.286  -4.967   0.406  1.00  0.00     0.039 C
BRANCH  17  18
HETATM   18  C12 UNL     1     -14.375  -3.427   0.461  1.00  0.00     0.115 C
BRANCH  18  19
HETATM   19  N3  UNL     1     -13.094  -2.845   0.376  1.00  0.00    -0.417 N
ATOM     20  H3  UNL     1     -12.261  -3.428   0.457  1.00  0.00     0.153 HD
BRANCH  19  21
HETATM   21  C13 UNL     1     -12.966  -1.450   0.178  1.00  0.00     0.076 C
HETATM   22  C14 UNL     1     -13.484  -0.935  -1.132  1.00  0.00     0.024 C
HETATM   23  C15 UNL     1     -12.527  -0.850  -2.257  1.00  0.00     0.002 C
HETATM   24  C16 UNL     1     -11.202  -0.301  -1.809  1.00  0.00     0.000 C
HETATM   25  C17 UNL     1     -11.301   0.251  -0.382  1.00  0.00     0.002 C
HETATM   26  C18 UNL     1     -11.622  -0.885   0.574  1.00  0.00     0.024 C
ENDBRANCH  19  21
ENDBRANCH  18  19
ENDBRANCH  17  18
ENDBRANCH  16  17
ENDBRANCH   3  16
TORSDOF 7
ENDMDL