MODEL 5
REMARK VINA RESULT: -6.573538822      2.401      7.185
REMARK  7 active torsions:
REMARK  status: ('A' for Active; 'I' for Inactive)
REMARK    1  A    between atoms: N1_2  and  C3_4
REMARK    2  A    between atoms: C5_9  and  C6_10
REMARK    3  A    between atoms: C6_10  and  C7_11
REMARK    4  A    between atoms: C7_11  and  C8_12
REMARK    5  A    between atoms: C8_12  and  C9_13
REMARK    6  A    between atoms: C13_17  and  N4_18
REMARK    7  A    between atoms: N4_18  and  C14_20
ROOT
HETATM    1  C3  UNL     1     -13.354  -3.763   1.499  1.00  0.00     0.682 A
HETATM    2  N2  UNL     1     -12.430  -2.759   1.559  1.00  0.00    -0.178 N
ATOM      3  H2  UNL     1     -11.775  -2.757   2.342  1.00  0.00     0.185 HD
HETATM    4  C4  UNL     1     -12.328  -1.779   0.654  1.00  0.00     0.141 A
HETATM    5  N3  UNL     1     -11.323  -0.765   0.787  1.00  0.00    -0.081 NA
HETATM    6  C5  UNL     1     -13.215  -1.787  -0.402  1.00  0.00     0.028 A
HETATM    7  C13 UNL     1     -14.178  -2.793  -0.505  1.00  0.00     0.127 A
HETATM    8  N5  UNL     1     -14.200  -3.735   0.453  1.00  0.00    -0.176 N
ATOM      9  H5  UNL     1     -14.900  -4.473   0.384  1.00  0.00     0.186 HD
ENDROOT
BRANCH   7  10
HETATM   10  N4  UNL     1     -14.990  -2.804  -1.470  1.00  0.00    -0.371 N
ATOM     11  H4  UNL     1     -15.723  -2.095  -1.445  1.00  0.00     0.161 HD
BRANCH  10  12
HETATM   12  C14 UNL     1     -15.013  -3.688  -2.598  1.00  0.00     0.083 C
HETATM   13  C15 UNL     1     -16.151  -3.218  -3.504  1.00  0.00     0.025 C
HETATM   14  C16 UNL     1     -16.353  -4.172  -4.656  1.00  0.00     0.002 C
HETATM   15  C17 UNL     1     -16.871  -5.485  -4.117  1.00  0.00     0.000 C
HETATM   16  C18 UNL     1     -16.650  -5.600  -2.629  1.00  0.00     0.002 C
HETATM   17  C19 UNL     1     -15.288  -5.124  -2.192  1.00  0.00     0.025 C
ENDBRANCH  10  12
ENDBRANCH   7  10
BRANCH   6  18
HETATM   18  C6  UNL     1     -13.176  -0.719  -1.414  1.00  0.00     0.046 C
BRANCH  18  19
HETATM   19  C7  UNL     1     -12.026  -0.848  -2.367  1.00  0.00     0.005 C
BRANCH  19  20
HETATM   20  C8  UNL     1     -11.733   0.466  -3.039  1.00  0.00     0.005 C
BRANCH  20  21
HETATM   21  C9  UNL     1     -10.266   0.798  -2.872  1.00  0.00    -0.014 C
HETATM   22  C10 UNL     1      -9.893   1.304  -1.511  1.00  0.00     0.005 C
HETATM   23  C11 UNL     1      -9.237   2.500  -2.154  1.00  0.00     0.001 C
HETATM   24  C12 UNL     1      -9.894   2.130  -3.457  1.00  0.00     0.005 C
ENDBRANCH  20  21
ENDBRANCH  19  20
ENDBRANCH  18  19
ENDBRANCH   6  18
BRANCH   1  25
HETATM   25  N1  UNL     1     -13.379  -4.762   2.510  1.00  0.00    -0.226 N
HETATM   26  C1  UNL     1     -12.179  -5.028   3.275  1.00  0.00     0.168 C
HETATM   27  C2  UNL     1     -14.565  -5.515   2.807  1.00  0.00     0.168 C
ENDBRANCH   1  25
TORSDOF 7
ENDMDL