MODEL 4
REMARK VINA RESULT: -6.264435928      2.395      6.323
REMARK  7 active torsions:
REMARK  status: ('A' for Active; 'I' for Inactive)
REMARK    1  A    between atoms: C5_6  and  C6_7
REMARK    2  A    between atoms: C6_7  and  N1_8
REMARK    3  A    between atoms: N1_8  and  C7_10
REMARK    4  A    between atoms: C7_10  and  C8_11
REMARK    5  A    between atoms: C8_11  and  C9_12
REMARK    6  A    between atoms: C9_12  and  N2_13
REMARK    7  A    between atoms: N3_18  and  C11_19
ROOT
HETATM    1  C1  UNL     1      -9.442   1.182  -0.456  1.00  0.00     0.057 C
HETATM    2  C2  UNL     1     -10.637   0.281  -0.557  1.00  0.00    -0.009 A
HETATM    3  S1  UNL     1     -11.402  -0.488   0.735  1.00  0.00    -0.098 SA
HETATM    4  C3  UNL     1     -12.629  -1.310  -0.131  1.00  0.00    -0.006 A
HETATM    5  C4  UNL     1     -12.402  -0.955  -1.428  1.00  0.00    -0.004 A
HETATM    6  C5  UNL     1     -11.355  -0.113  -1.671  1.00  0.00     0.001 A
HETATM    7  C10 UNL     1     -13.351  -1.559  -2.462  1.00  0.00     0.313 C
HETATM    8  N3  UNL     1     -13.949  -2.729  -1.888  1.00  0.00     0.097 N
HETATM    9  C17 UNL     1     -14.731  -2.316  -0.744  1.00  0.00     0.278 C
HETATM   10  C18 UNL     1     -13.722  -2.194   0.377  1.00  0.00     0.077 C
ENDROOT
BRANCH   6  11
HETATM   11  C6  UNL     1     -10.893   0.501  -2.976  1.00  0.00     0.096 C
BRANCH  11  12
HETATM   12  N1  UNL     1     -11.738   1.427  -3.590  1.00  0.00    -0.398 N
ATOM     13  H1  UNL     1     -12.746   1.336  -3.718  1.00  0.00     0.158 HD
BRANCH  12  14
HETATM   14  C7  UNL     1     -10.898   2.566  -4.022  1.00  0.00     0.120 C
BRANCH  14  15
HETATM   15  C8  UNL     1      -9.485   2.426  -3.583  1.00  0.00     0.047 C
BRANCH  15  16
HETATM   16  C9  UNL     1      -9.023   3.752  -3.018  1.00  0.00     0.231 C
BRANCH  16  17
HETATM   17  N2  UNL     1     -10.125   4.640  -2.691  1.00  0.00    -0.079 N
ATOM     18  H23 UNL     1     -10.446   5.144  -3.518  1.00  0.00     0.274 HD
ATOM     19  H22 UNL     1     -10.971   4.110  -2.482  1.00  0.00     0.274 HD
ATOM     20  H21 UNL     1      -9.901   5.286  -1.934  1.00  0.00     0.274 HD
ENDBRANCH  16  17
ENDBRANCH  15  16
ENDBRANCH  14  15
ENDBRANCH  12  14
ENDBRANCH  11  12
ENDBRANCH   6  11
BRANCH   8  21
HETATM   21  C11 UNL     1     -14.752  -3.510  -2.748  1.00  0.00     0.223 C
HETATM   22  C12 UNL     1     -15.425  -4.682  -2.076  1.00  0.00     0.036 C
HETATM   23  C13 UNL     1     -16.227  -5.465  -3.067  1.00  0.00     0.002 C
HETATM   24  C14 UNL     1     -16.992  -4.594  -4.040  1.00  0.00     0.000 C
HETATM   25  C15 UNL     1     -17.175  -3.259  -3.388  1.00  0.00     0.002 C
HETATM   26  C16 UNL     1     -15.822  -2.580  -3.336  1.00  0.00     0.036 C
ENDBRANCH   8  21
TORSDOF 7
ENDMDL