MODEL 5
REMARK VINA RESULT: -6.111590078      3.774      7.385
REMARK  7 active torsions:
REMARK  status: ('A' for Active; 'I' for Inactive)
REMARK    1  A    between atoms: C5_6  and  S1_7
REMARK    2  A    between atoms: S1_7  and  C6_8
REMARK    3  A    between atoms: C6_8  and  C7_9
REMARK    4  A    between atoms: C7_9  and  C10_12
REMARK    5  A    between atoms: C10_12  and  N2_13
REMARK    6  A    between atoms: N4_20  and  C12_22
REMARK    7  A    between atoms: C12_22  and  C14_24
ROOT
HETATM    1  C1  UNL     1     -12.749  -2.016   1.420  1.00  0.00     0.050 C
HETATM    2  C2  UNL     1     -12.896  -1.720  -0.037  1.00  0.00    -0.029 A
HETATM    3  C3  UNL     1     -11.981  -0.845  -0.609  1.00  0.00     0.084 A
HETATM    4  C4  UNL     1     -10.931  -0.250   0.171  1.00  0.00     0.103 C
HETATM    5  N1  UNL     1     -10.087   0.229   0.812  1.00  0.00    -0.191 NA
HETATM    6  C5  UNL     1     -12.143  -0.589  -1.958  1.00  0.00     0.092 A
HETATM    7  N3  UNL     1     -13.122  -1.156  -2.644  1.00  0.00    -0.336 N
ATOM      8  H3  UNL     1     -13.195  -0.932  -3.636  1.00  0.00     0.168 HD
HETATM    9  C11 UNL     1     -14.054  -2.030  -2.116  1.00  0.00     0.108 A
HETATM   10  N4  UNL     1     -14.927  -2.504  -2.832  1.00  0.00    -0.371 N
ATOM     11  H4  UNL     1     -14.771  -2.118  -3.763  1.00  0.00     0.161 HD
HETATM   12  C17 UNL     1     -13.917  -2.304  -0.777  1.00  0.00    -0.011 A
HETATM   13  C18 UNL     1     -14.809  -3.214  -0.026  1.00  0.00     0.052 C
ENDROOT
BRANCH   6  14
HETATM   14  S1  UNL     1     -10.971   0.534  -2.706  1.00  0.00    -0.110 SA
BRANCH  14  15
HETATM   15  C6  UNL     1     -11.823   1.854  -3.612  1.00  0.00     0.091 C
BRANCH  15  16
HETATM   16  C7  UNL     1     -10.883   2.957  -4.011  1.00  0.00    -0.015 C
HETATM   17  C8  UNL     1     -10.855   3.217  -5.480  1.00  0.00     0.017 C
HETATM   18  C9  UNL     1     -11.412   4.233  -3.343  1.00  0.00     0.017 C
BRANCH  16  19
HETATM   19  C10 UNL     1      -9.491   2.753  -3.514  1.00  0.00     0.239 C
BRANCH  19  20
HETATM   20  N2  UNL     1      -8.733   3.988  -3.437  1.00  0.00    -0.079 N
ATOM     21  H23 UNL     1      -8.578   4.379  -4.366  1.00  0.00     0.274 HD
ATOM     22  H22 UNL     1      -9.297   4.737  -3.034  1.00  0.00     0.274 HD
ATOM     23  H21 UNL     1      -7.852   3.881  -2.934  1.00  0.00     0.274 HD
ENDBRANCH  19  20
ENDBRANCH  16  19
ENDBRANCH  15  16
ENDBRANCH  14  15
ENDBRANCH   6  14
BRANCH  10  24
HETATM   24  C12 UNL     1     -15.994  -3.304  -2.934  1.00  0.00     0.082 C
HETATM   25  C13 UNL     1     -17.049  -2.634  -3.866  1.00  0.00     0.032 C
BRANCH  24  26
HETATM   26  C14 UNL     1     -15.759  -4.657  -3.621  1.00  0.00    -0.000 C
HETATM   27  C15 UNL     1     -16.482  -4.792  -4.918  1.00  0.00     0.011 C
HETATM   28  C16 UNL     1     -16.150  -5.797  -2.724  1.00  0.00     0.011 C
ENDBRANCH  24  26
ENDBRANCH  10  24
TORSDOF 7
ENDMDL