MODEL 4
REMARK VINA RESULT: -6.330387113      5.304      7.811
REMARK  8 active torsions:
REMARK  status: ('A' for Active; 'I' for Inactive)
REMARK    1  A    between atoms: C2_2  and  C3_3
REMARK    2  A    between atoms: C3_3  and  C4_4
REMARK    3  A    between atoms: C4_4  and  C5_5
REMARK    4  A    between atoms: C5_5  and  N1_6
REMARK    5  A    between atoms: C6_7  and  O1_8
REMARK    6  A    between atoms: C9_12  and  O2_13
REMARK    7  A    between atoms: N2_21  and  C16_22
REMARK    8  A    between atoms: C16_22  and  C18_24
ROOT
HETATM    1  N1  UNL     1     -15.387  -2.148  -2.851  1.00  0.00    -0.308 N
HETATM    2  C6  UNL     1     -15.461  -0.847  -3.183  1.00  0.00     0.151 A
HETATM    3  C7  UNL     1     -16.592  -0.600  -3.940  1.00  0.00     0.005 A
HETATM    4  C8  UNL     1     -17.217  -1.805  -4.062  1.00  0.00     0.013 A
HETATM    5  C9  UNL     1     -16.465  -2.745  -3.389  1.00  0.00     0.152 A
HETATM    6  C10 UNL     1     -18.489  -2.075  -4.789  1.00  0.00     0.063 C
HETATM    7  C11 UNL     1     -18.711  -1.132  -5.917  1.00  0.00    -0.019 C
HETATM    8  C12 UNL     1     -18.641   0.196  -5.912  1.00  0.00    -0.023 C
HETATM    9  C13 UNL     1     -18.311   1.031  -4.698  1.00  0.00     0.030 C
HETATM   10  C14 UNL     1     -16.862   0.777  -4.411  1.00  0.00     0.054 C
HETATM   11  C15 UNL     1     -19.119   0.570  -3.511  1.00  0.00     0.126 C
HETATM   12  N2  UNL     1     -20.073  -0.453  -3.804  1.00  0.00    -0.407 N
HETATM   13  C20 UNL     1     -19.601  -1.794  -3.766  1.00  0.00     0.130 C
ENDROOT
BRANCH   1  14
HETATM   14  C5  UNL     1     -14.407  -2.847  -2.078  1.00  0.00     0.133 C
BRANCH  14  15
HETATM   15  C4  UNL     1     -14.686  -2.984  -0.628  1.00  0.00     0.024 C
BRANCH  15  16
HETATM   16  C3  UNL     1     -13.527  -2.557   0.232  1.00  0.00     0.028 C
BRANCH  16  17
HETATM   17  C2  UNL     1     -12.578  -1.681  -0.515  1.00  0.00    -0.037 C
HETATM   18  C1  UNL     1     -11.925  -0.707   0.096  1.00  0.00     0.007 C
ENDBRANCH  16  17
ENDBRANCH  15  16
ENDBRANCH  14  15
ENDBRANCH   1  14
BRANCH   2  19
HETATM   19  O1  UNL     1     -14.504   0.083  -2.794  1.00  0.00    -0.345 OA
ATOM     20  H1  UNL     1     -14.716   0.989  -2.604  1.00  0.00     0.219 HD
ENDBRANCH   2  19
BRANCH   5  21
HETATM   21  O2  UNL     1     -16.858  -4.088  -3.336  1.00  0.00    -0.345 OA
ATOM     22  H2  UNL     1     -17.036  -4.693  -4.047  1.00  0.00     0.219 HD
ENDBRANCH   5  21
BRANCH  12  23
HETATM   23  C16 UNL     1     -21.342  -0.249  -3.170  1.00  0.00     0.074 C
HETATM   24  C17 UNL     1     -22.074   0.899  -3.849  1.00  0.00     0.032 C
BRANCH  23  25
HETATM   25  C18 UNL     1     -22.245  -1.445  -3.146  1.00  0.00     0.020 C
HETATM   26  C19 UNL     1     -22.716  -1.623  -1.716  1.00  0.00     0.007 C
ENDBRANCH  23  25
ENDBRANCH  12  23
TORSDOF 8
ENDMDL