MODEL 2
REMARK VINA RESULT: -4.703243094      8.353      9.438
REMARK  3 active torsions:
REMARK  status: ('A' for Active; 'I' for Inactive)
REMARK    1  A    between atoms: C2_2  and  O2_4
REMARK    2  A    between atoms: O2_4  and  C3_5
REMARK    3  A    between atoms: C3_5  and  O3_7
ROOT
HETATM    1  C3  UNL     1      38.271  33.674  -6.020  1.00  0.00     0.258 C
HETATM    2  C4  UNL     1      38.005  34.300  -7.340  1.00  0.00     0.097 C
HETATM    3  C5  UNL     1      37.284  32.589  -5.820  1.00  0.00     0.128 C
HETATM    4  N1  UNL     1      36.520  31.737  -5.650  1.00  0.00    -0.191 NA
ENDROOT
BRANCH   1   5
HETATM    5  O2  UNL     1      39.547  33.088  -5.901  1.00  0.00    -0.270 OA
BRANCH   5   6
HETATM    6  C2  UNL     1      40.661  33.859  -5.638  1.00  0.00     0.258 C
HETATM    7  C1  UNL     1      41.639  34.238  -6.715  1.00  0.00     0.126 C
HETATM    8  O1  UNL     1      40.827  34.236  -4.450  1.00  0.00    -0.266 OA
ENDBRANCH   5   6
ENDBRANCH   1   5
BRANCH   1   9
HETATM    9  O3  UNL     1      38.029  34.608  -5.010  1.00  0.00    -0.354 OA
ATOM     10  H3  UNL     1      38.133  35.500  -5.318  1.00  0.00     0.214 HD
ENDBRANCH   1   9
TORSDOF 3
ENDMDL