MODEL 4
REMARK VINA RESULT: -4.198064603      5.703      6.622
REMARK  1 active torsions:
REMARK  status: ('A' for Active; 'I' for Inactive)
REMARK    1  A    between atoms: C4_5  and  O1_6
ROOT
HETATM    1  N1  UNL     1      39.055  31.922 -16.503  1.00  0.00    -0.196 NA
HETATM    2  C1  UNL     1      38.993  32.018 -15.352  1.00  0.00     0.074 C
HETATM    3  C2  UNL     1      38.899  32.137 -13.922  1.00  0.00     0.156 C
HETATM    4  C3  UNL     1      37.944  33.263 -13.500  1.00  0.00     0.062 C
HETATM    5  C4  UNL     1      38.229  33.411 -12.036  1.00  0.00     0.129 C
HETATM    6  C5  UNL     1      39.633  34.027 -12.056  1.00  0.00     0.107 C
HETATM    7  S1  UNL     1      40.439  32.814 -13.181  1.00  0.00    -0.147 SA
ENDROOT
BRANCH   5   8
HETATM    8  O1  UNL     1      37.332  34.217 -11.378  1.00  0.00    -0.395 OA
ATOM      9  H1  UNL     1      36.432  34.095 -11.657  1.00  0.00     0.210 HD
ENDBRANCH   5   8
TORSDOF 1
ENDMDL