MODEL 4
REMARK VINA RESULT: -3.506916927      3.377      4.007
REMARK  2 active torsions:
REMARK  status: ('A' for Active; 'I' for Inactive)
REMARK    1  A    between atoms: O1_1  and  C1_3
REMARK    2  A    between atoms: C4_7  and  O2_8
ROOT
HETATM    1  C1  UNL     1      35.473  32.720  -9.167  1.00  0.00     0.157 C
HETATM    2  C2  UNL     1      36.416  32.576 -10.360  1.00  0.00     0.045 C
HETATM    3  C3  UNL     1      37.229  33.879 -10.352  1.00  0.00     0.079 C
HETATM    4  S1  UNL     1      37.658  33.927  -8.562  1.00  0.00    -0.135 SA
HETATM    5  C4  UNL     1      36.478  32.630  -8.006  1.00  0.00     0.208 C
ENDROOT
BRANCH   1   6
HETATM    6  O1  UNL     1      34.817  33.922  -9.149  1.00  0.00    -0.392 OA
ATOM      7  H1  UNL     1      34.369  34.086  -8.328  1.00  0.00     0.210 HD
ENDBRANCH   1   6
BRANCH   5   8
HETATM    8  O2  UNL     1      37.056  31.384  -8.086  1.00  0.00    -0.383 OA
ATOM      9  H2  UNL     1      36.365  30.781  -8.331  1.00  0.00     0.211 HD
ENDBRANCH   5   8
TORSDOF 2
ENDMDL