MODEL 3
REMARK VINA RESULT: -4.293819875      1.790      1.902
REMARK  1 active torsions:
REMARK  status: ('A' for Active; 'I' for Inactive)
REMARK    1  A    between atoms: C4_9  and  O2_10
ROOT
HETATM    1  N1  UNL     1      37.935  34.857  -9.354  1.00  0.00    -0.395 N
ATOM      2  H11 UNL     1      38.262  35.812  -9.491  1.00  0.00     0.156 HD
ATOM      3  H12 UNL     1      37.482  34.493 -10.193  1.00  0.00     0.156 HD
HETATM    4  C1  UNL     1      38.077  34.216  -8.280  1.00  0.00     0.073 C
HETATM    5  S1  UNL     1      37.498  32.526  -8.039  1.00  0.00    -0.088 SA
HETATM    6  C2  UNL     1      37.512  32.417  -6.200  1.00  0.00     0.248 C
HETATM    7  O1  UNL     1      37.045  33.616  -5.746  1.00  0.00    -0.378 OA
HETATM    8  C3  UNL     1      37.884  34.676  -5.845  1.00  0.00     0.207 C
HETATM    9  C4  UNL     1      38.738  34.747  -7.054  1.00  0.00     0.198 C
ENDROOT
BRANCH   9  10
HETATM   10  O2  UNL     1      39.076  36.085  -7.274  1.00  0.00    -0.387 OA
ATOM     11  H2  UNL     1      39.870  36.280  -6.790  1.00  0.00     0.210 HD
ENDBRANCH   9  10
TORSDOF 1
ENDMDL