MODEL 1
REMARK VINA RESULT: -5.210826361      0.000      0.000
REMARK  2 active torsions:
REMARK  status: ('A' for Active; 'I' for Inactive)
REMARK    1  A    between atoms: N2_6  and  O1_7
REMARK    2  A    between atoms: N3_9  and  O2_10
ROOT
HETATM    1  C1  UNL     1      40.722  32.136 -13.364  1.00  0.00     0.064 C
HETATM    2  C2  UNL     1      39.635  31.761 -14.308  1.00  0.00     0.339 C
HETATM    3  N1  UNL     1      38.773  32.886 -14.615  1.00  0.00     0.121 N
HETATM    4  C3  UNL     1      37.823  33.178 -13.591  1.00  0.00     0.314 C
HETATM    5  C4  UNL     1      38.194  32.511 -15.867  1.00  0.00     0.415 C
HETATM    6  N2  UNL     1      38.922  31.331 -16.339  1.00  0.00    -0.073 NA
HETATM    7  N3  UNL     1      40.138  31.470 -15.661  1.00  0.00    -0.068 NA
ENDROOT
BRANCH   6   8
HETATM    8  O1  UNL     1      38.240  30.261 -15.820  1.00  0.00    -0.294 OA
ATOM      9  H1  UNL     1      38.909  29.620 -15.612  1.00  0.00     0.238 HD
ENDBRANCH   6   8
BRANCH   7  10
HETATM   10  O2  UNL     1      40.913  30.398 -15.703  1.00  0.00    -0.294 OA
ATOM     11  H2  UNL     1      40.989  30.032 -16.576  1.00  0.00     0.238 HD
ENDBRANCH   7  10
TORSDOF 2
ENDMDL