MODEL 4
REMARK VINA RESULT: -5.180980518      1.458      1.627
REMARK  1 active torsions:
REMARK  status: ('A' for Active; 'I' for Inactive)
REMARK    1  A    between atoms: O1_1  and  C1_3
ROOT
HETATM    1  C1  UNL     1      38.035  34.215  -8.385  1.00  0.00     0.183 C
HETATM    2  C2  UNL     1      38.099  34.250  -9.915  1.00  0.00     0.267 C
HETATM    3  N1  UNL     1      36.669  34.328 -10.229  1.00  0.00    -0.070 N
ATOM      4  H11 UNL     1      36.453  34.159 -11.211  1.00  0.00     0.277 HD
ATOM      5  H12 UNL     1      36.288  35.273 -10.186  1.00  0.00     0.277 HD
HETATM    6  C3  UNL     1      36.033  33.398  -9.320  1.00  0.00     0.276 C
HETATM    7  C4  UNL     1      36.961  33.179  -8.171  1.00  0.00     0.149 C
HETATM    8  C5  UNL     1      37.640  31.814  -8.227  1.00  0.00     0.075 C
HETATM    9  C6  UNL     1      37.572  31.453  -6.736  1.00  0.00     0.213 C
HETATM   10  O2  UNL     1      36.326  32.047  -6.423  1.00  0.00    -0.240 OA
HETATM   11  O3  UNL     1      36.372  33.235  -6.936  1.00  0.00    -0.225 OA
ENDROOT
BRANCH   1  12
HETATM   12  O1  UNL     1      39.272  33.831  -7.907  1.00  0.00    -0.391 OA
ATOM     13  H1  UNL     1      39.787  34.614  -7.749  1.00  0.00     0.210 HD
ENDBRANCH   1  12
TORSDOF 1
ENDMDL