MODEL 4
REMARK VINA RESULT: -4.926148608      1.816      4.270
REMARK  3 active torsions:
REMARK  status: ('A' for Active; 'I' for Inactive)
REMARK    1  A    between atoms: O1_2  and  C2_3
REMARK       I    between atoms: C2_3  and  N1_5
REMARK    2  A    between atoms: N1_5  and  O3_6
REMARK    3  A    between atoms: O3_6  and  C3_7
ROOT
HETATM    1  C2  UNL     1      38.146  32.012 -15.973  1.00  0.00     0.465 C
HETATM    2  O2  UNL     1      38.497  30.969 -16.541  1.00  0.00    -0.218 OA
HETATM    3  N1  UNL     1      38.253  32.344 -14.669  1.00  0.00    -0.200 NA
ENDROOT
BRANCH   3   4
HETATM    4  O3  UNL     1      38.357  32.662 -13.406  1.00  0.00    -0.091 OA
BRANCH   4   5
HETATM    5  C3  UNL     1      38.955  31.860 -12.430  1.00  0.00     0.368 C
HETATM    6  O4  UNL     1      39.266  30.696 -12.819  1.00  0.00    -0.622 OA
HETATM    7  O5  UNL     1      39.214  32.256 -11.122  1.00  0.00    -0.622 OA
ENDBRANCH   4   5
ENDBRANCH   3   4
BRANCH   1   8
HETATM    8  O1  UNL     1      37.551  32.939 -16.906  1.00  0.00    -0.296 OA
HETATM    9  C1  UNL     1      36.243  33.378 -16.856  1.00  0.00     0.216 C
ENDBRANCH   1   8
TORSDOF 3
ENDMDL