MODEL 2
REMARK VINA RESULT: -4.263679470      7.559      7.949
REMARK  2 active torsions:
REMARK  status: ('A' for Active; 'I' for Inactive)
REMARK    1  A    between atoms: N1_5  and  O1_6
REMARK    2  A    between atoms: C4_8  and  O2_9
ROOT
HETATM    1  C1  UNL     1      37.807  33.961  -5.893  1.00  0.00     0.026 C
HETATM    2  C2  UNL     1      38.215  33.104  -7.051  1.00  0.00     0.100 C
HETATM    3  S1  UNL     1      39.139  31.646  -6.415  1.00  0.00    -0.113 SA
HETATM    4  C3  UNL     1      37.833  30.389  -6.752  1.00  0.00     0.165 C
HETATM    5  N1  UNL     1      36.730  31.238  -6.952  1.00  0.00    -0.235 N
HETATM    6  C4  UNL     1      37.022  32.379  -7.674  1.00  0.00     0.260 C
ENDROOT
BRANCH   5   7
HETATM    7  O1  UNL     1      35.540  30.877  -6.660  1.00  0.00    -0.285 OA
ATOM      8  H1  UNL     1      34.786  31.202  -7.139  1.00  0.00     0.245 HD
ENDBRANCH   5   7
BRANCH   6   9
HETATM    9  O2  UNL     1      35.933  33.190  -7.818  1.00  0.00    -0.373 OA
ATOM     10  H2  UNL     1      35.351  33.158  -7.068  1.00  0.00     0.212 HD
ENDBRANCH   6   9
TORSDOF 2
ENDMDL