MODEL 1
REMARK VINA RESULT: -4.773609212      0.000      0.000
REMARK  1 active torsions:
REMARK  status: ('A' for Active; 'I' for Inactive)
REMARK    1  A    between atoms: C2_3  and  C4_6
REMARK       I    between atoms: C4_6  and  N3_8
ROOT
HETATM    1  N1  UNL     1      38.203  33.978 -12.420  1.00  0.00    -0.195 NA
HETATM    2  C1  UNL     1      38.755  33.352 -13.220  1.00  0.00     0.088 C
HETATM    3  C2  UNL     1      39.480  32.568 -14.246  1.00  0.00     0.291 C
HETATM    4  C3  UNL     1      39.641  31.172 -13.802  1.00  0.00     0.088 C
HETATM    5  N2  UNL     1      39.765  30.074 -13.435  1.00  0.00    -0.195 NA
ENDROOT
BRANCH   3   6
HETATM    6  C4  UNL     1      38.638  32.525 -15.468  1.00  0.00     0.259 C
HETATM    7  O1  UNL     1      38.984  31.888 -16.492  1.00  0.00    -0.270 OA
HETATM    8  N3  UNL     1      37.399  33.214 -15.512  1.00  0.00    -0.288 N
HETATM    9  S1  UNL     1      36.353  33.208 -16.922  1.00  0.00     0.045 SA
ATOM     10  H3  UNL     1      37.102  33.737 -14.688  1.00  0.00     0.178 HD
ENDBRANCH   3   6
TORSDOF 1
ENDMDL