MODEL 3
REMARK VINA RESULT: -4.629950725      2.578      3.323
REMARK  2 active torsions:
REMARK  status: ('A' for Active; 'I' for Inactive)
REMARK    1  A    between atoms: O1_1  and  C1_3
REMARK    2  A    between atoms: C4_7  and  O2_8
ROOT
HETATM    1  C1  UNL     1      35.942  32.869  -8.697  1.00  0.00     0.269 C
HETATM    2  C2  UNL     1      37.176  32.926  -9.556  1.00  0.00     0.134 C
HETATM    3  S1  UNL     1      38.578  32.063  -8.794  1.00  0.00    -0.159 SA
HETATM    4  C3  UNL     1      38.209  31.698  -7.067  1.00  0.00     0.134 C
HETATM    5  C4  UNL     1      36.732  31.956  -6.804  1.00  0.00     0.269 C
HETATM    6  O3  UNL     1      36.294  33.135  -7.376  1.00  0.00    -0.330 OA
ENDROOT
BRANCH   1   7
HETATM    7  O1  UNL     1      34.996  33.735  -9.196  1.00  0.00    -0.370 OA
ATOM      8  H1  UNL     1      34.313  33.866  -8.548  1.00  0.00     0.212 HD
ENDBRANCH   1   7
BRANCH   5   9
HETATM    9  O2  UNL     1      36.460  31.858  -5.454  1.00  0.00    -0.370 OA
ATOM     10  H2  UNL     1      35.526  31.758  -5.312  1.00  0.00     0.212 HD
ENDBRANCH   5   9
TORSDOF 2
ENDMDL