MODEL 5
REMARK VINA RESULT: -5.677187186      1.722      2.803
REMARK  3 active torsions:
REMARK  status: ('A' for Active; 'I' for Inactive)
REMARK    1  A    between atoms: C9_10  and  C10_11
REMARK    2  A    between atoms: C10_11  and  O2_12
REMARK    3  A    between atoms: C10_11  and  C11_14
ROOT
HETATM    1  C1  UNL     1     -13.669  22.605  12.771  1.00  0.00     0.013 C
HETATM    2  C2  UNL     1     -12.746  22.469  11.572  1.00  0.00     0.017 C
HETATM    3  C3  UNL     1     -11.305  22.528  11.960  1.00  0.00    -0.008 C
HETATM    4  C4  UNL     1     -10.919  23.932  12.339  1.00  0.00     0.007 C
HETATM    5  C5  UNL     1     -10.855  24.873  11.185  1.00  0.00     0.032 C
HETATM    6  C6  UNL     1     -10.894  24.103   9.905  1.00  0.00     0.122 C
HETATM    7  C7  UNL     1      -9.840  22.992  10.030  1.00  0.00     0.032 C
HETATM    8  C8  UNL     1     -10.459  21.925  10.899  1.00  0.00     0.007 C
HETATM    9  O1  UNL     1     -12.112  23.594   9.566  1.00  0.00    -0.377 OA
HETATM   10  C9  UNL     1     -13.051  23.549  10.554  1.00  0.00     0.159 C
ENDROOT
BRANCH  10  11
HETATM   11  C10 UNL     1     -14.382  23.142   9.907  1.00  0.00     0.183 C
BRANCH  11  12
HETATM   12  O2  UNL     1     -14.111  22.966   8.553  1.00  0.00    -0.388 OA
ATOM     13  H2  UNL     1     -14.941  23.070   8.105  1.00  0.00     0.210 HD
ENDBRANCH  11  12
BRANCH  11  14
HETATM   14  C11 UNL     1     -15.398  24.191  10.114  1.00  0.00     0.015 A
HETATM   15  C12 UNL     1     -16.356  24.579   9.210  1.00  0.00     0.126 A
HETATM   16  N1  UNL     1     -17.051  25.554   9.820  1.00  0.00    -0.272 N
HETATM   17  O3  UNL     1     -16.562  25.754  11.008  1.00  0.00    -0.250 OA
ATOM     18  H1  UNL     1     -17.840  26.059   9.415  1.00  0.00     0.193 HD
HETATM   19  C13 UNL     1     -15.552  24.955  11.249  1.00  0.00     0.178 A
ENDBRANCH  11  14
ENDBRANCH  10  11
TORSDOF 3
ENDMDL