MODEL 3
REMARK VINA RESULT: -5.352646610      3.042      3.425
REMARK  2 active torsions:
REMARK  status: ('A' for Active; 'I' for Inactive)
REMARK       I    between atoms: C1_2  and  N1_3
REMARK    1  A    between atoms: C1_2  and  C8_11
REMARK    2  A    between atoms: N1_3  and  C2_5
ROOT
HETATM    1  O1  UNL     1     -14.235  23.533   8.546  1.00  0.00    -0.272 OA
HETATM    2  C1  UNL     1     -14.294  23.550   9.792  1.00  0.00     0.233 C
HETATM    3  N1  UNL     1     -15.412  24.163  10.417  1.00  0.00    -0.355 N
ATOM      4  H1  UNL     1     -15.458  24.176  11.436  1.00  0.00     0.162 HD
ENDROOT
BRANCH   3   5
HETATM    5  C2  UNL     1     -16.500  24.775   9.656  1.00  0.00     0.084 C
HETATM    6  C3  UNL     1     -17.249  23.774   8.840  1.00  0.00     0.025 C
HETATM    7  C4  UNL     1     -18.686  23.610   9.187  1.00  0.00     0.002 C
HETATM    8  C5  UNL     1     -19.413  24.840   9.568  1.00  0.00     0.000 C
HETATM    9  C6  UNL     1     -18.566  26.033   9.845  1.00  0.00     0.002 C
HETATM   10  C7  UNL     1     -17.361  25.518  10.644  1.00  0.00     0.025 C
ENDBRANCH   3   5
BRANCH   2  11
HETATM   11  C8  UNL     1     -13.256  22.964  10.644  1.00  0.00     0.161 C
HETATM   12  C9  UNL     1     -11.913  23.442  10.116  1.00  0.00     0.112 C
HETATM   13  S1  UNL     1     -10.648  22.642  11.178  1.00  0.00    -0.084 SA
HETATM   14  S2  UNL     1     -11.502  23.139  13.103  1.00  0.00    -0.024 SA
HETATM   15  S3  UNL     1     -13.430  23.712  12.313  1.00  0.00    -0.071 SA
ENDBRANCH   2  11
TORSDOF 2
ENDMDL