MODEL 1
REMARK VINA RESULT: -6.508697761      0.000      0.000
REMARK  3 active torsions:
REMARK  status: ('A' for Active; 'I' for Inactive)
REMARK    1  A    between atoms: C2_2  and  O1_3
REMARK    2  A    between atoms: C2_2  and  N1_5
REMARK    3  A    between atoms: N3_11  and  N4_13
ROOT
HETATM    1  N1  UNL     1     -18.160  23.761   9.228  1.00  0.00    -0.210 N
HETATM    2  N2  UNL     1     -18.835  24.651   9.880  1.00  0.00    -0.295 N
ATOM      3  H2  UNL     1     -19.846  24.549   9.965  1.00  0.00     0.187 HD
HETATM    4  C3  UNL     1     -18.247  25.676  10.432  1.00  0.00     0.160 A
HETATM    5  S1  UNL     1     -16.624  25.397  10.020  1.00  0.00    -0.044 SA
HETATM    6  C4  UNL     1     -16.844  23.927   9.139  1.00  0.00     0.188 A
HETATM    7  N3  UNL     1     -15.910  23.199   8.564  1.00  0.00    -0.278 N
ATOM      8  H3  UNL     1     -16.153  22.335   8.078  1.00  0.00     0.189 HD
ENDROOT
BRANCH   1   9
HETATM    9  C2  UNL     1     -18.870  22.633   8.650  1.00  0.00     0.154 C
HETATM   10  C1  UNL     1     -19.680  21.851   9.310  1.00  0.00     0.073 C
BRANCH   9  11
HETATM   11  O1  UNL     1     -18.680  22.356   7.279  1.00  0.00    -0.345 OA
ATOM     12  H1  UNL     1     -19.218  22.836   6.661  1.00  0.00     0.219 HD
ENDBRANCH   9  11
ENDBRANCH   1   9
BRANCH   7  13
HETATM   13  N4  UNL     1     -14.606  23.617   8.629  1.00  0.00    -0.307 N
HETATM   14  C5  UNL     1     -13.582  22.817   8.719  1.00  0.00     0.004 C
HETATM   15  C6  UNL     1     -13.796  21.362   8.752  1.00  0.00     0.054 C
HETATM   16  C10 UNL     1     -12.251  23.469   8.778  1.00  0.00     0.054 C
HETATM   17  C7  UNL     1     -12.499  20.628   8.839  1.00  0.00     0.006 C
HETATM   18  C8  UNL     1     -11.548  21.251   7.831  1.00  0.00     0.001 C
HETATM   19  C9  UNL     1     -11.142  22.618   8.266  1.00  0.00     0.006 C
ATOM     20  H4  UNL     1     -14.426  24.621   8.606  1.00  0.00     0.186 HD
ENDBRANCH   7  13
TORSDOF 3
ENDMDL