MODEL 2
REMARK VINA RESULT: -5.498350752      5.219      6.800
REMARK  3 active torsions:
REMARK  status: ('A' for Active; 'I' for Inactive)
REMARK    1  A    between atoms: C2_2  and  C3_3
REMARK    2  A    between atoms: C3_3  and  O1_4
REMARK    3  A    between atoms: C3_3  and  C4_6
ROOT
HETATM    1  C4  UNL     1     -13.187  20.846  10.082  1.00  0.00     0.189 C
HETATM    2  C5  UNL     1     -13.852  21.587   8.928  1.00  0.00     0.044 C
HETATM    3  C6  UNL     1     -14.643  20.521   8.160  1.00  0.00     0.083 C
HETATM    4  C7  UNL     1     -13.585  19.511   7.691  1.00  0.00     0.258 C
HETATM    5  O2  UNL     1     -14.050  18.263   8.096  1.00  0.00    -0.347 OA
HETATM    6  C8  UNL     1     -13.736  17.260   7.192  1.00  0.00     0.172 C
HETATM    7  C9  UNL     1     -14.767  17.140   6.110  1.00  0.00     0.027 C
HETATM    8  C10 UNL     1     -14.346  17.886   4.849  1.00  0.00     0.010 C
HETATM    9  C11 UNL     1     -14.436  19.360   5.167  1.00  0.00     0.084 C
HETATM   10  C12 UNL     1     -13.461  19.654   6.246  1.00  0.00     0.191 C
HETATM   11  O3  UNL     1     -12.395  20.080   5.851  1.00  0.00    -0.292 OA
HETATM   12  O4  UNL     1     -12.397  19.854   8.312  1.00  0.00    -0.192 OA
HETATM   13  O5  UNL     1     -12.533  19.701   9.597  1.00  0.00    -0.229 OA
ENDROOT
BRANCH   1  14
HETATM   14  C3  UNL     1     -12.160  21.748  10.690  1.00  0.00     0.149 C
BRANCH  14  15
HETATM   15  C2  UNL     1     -12.814  22.983  11.282  1.00  0.00     0.030 C
HETATM   16  C1  UNL     1     -13.491  22.659  12.592  1.00  0.00     0.007 C
ENDBRANCH  14  15
BRANCH  14  17
HETATM   17  O1  UNL     1     -11.233  22.123   9.736  1.00  0.00    -0.393 OA
ATOM     18  H1  UNL     1     -10.362  21.872  10.019  1.00  0.00     0.210 HD
ENDBRANCH  14  17
ENDBRANCH   1  14
TORSDOF 3
ENDMDL