MODEL 1
REMARK VINA RESULT: -5.836561156      0.000      0.000
REMARK  3 active torsions:
REMARK  status: ('A' for Active; 'I' for Inactive)
REMARK    1  A    between atoms: C2_2  and  N1_4
REMARK    2  A    between atoms: C7_8  and  C8_9
REMARK    3  A    between atoms: C9_14  and  N3_15
ROOT
HETATM    1  N1  UNL     1     -13.550  23.775  11.133  1.00  0.00    -0.389 N
HETATM    2  C4  UNL     1     -12.689  23.086  10.264  1.00  0.00     0.058 C
HETATM    3  C5  UNL     1     -13.016  23.281   8.845  1.00  0.00     0.045 C
HETATM    4  C6  UNL     1     -14.466  23.405   8.527  1.00  0.00     0.018 C
HETATM    5  C7  UNL     1     -15.195  24.355   9.421  1.00  0.00     0.057 C
HETATM    6  C10 UNL     1     -14.872  23.780  10.832  1.00  0.00     0.133 C
ENDROOT
BRANCH   5   7
HETATM    7  C8  UNL     1     -16.688  24.233   9.225  1.00  0.00     0.056 A
HETATM    8  N2  UNL     1     -17.147  23.469   8.265  1.00  0.00    -0.321 N
HETATM    9  S1  UNL     1     -18.791  23.175   8.129  1.00  0.00     0.026 SA
ATOM     10  H2  UNL     1     -16.500  23.050   7.598  1.00  0.00     0.174 HD
HETATM   11  S2  UNL     1     -19.186  24.358   9.804  1.00  0.00    -0.016 SA
HETATM   12  C9  UNL     1     -17.574  24.785  10.124  1.00  0.00     0.099 A
BRANCH  12  13
HETATM   13  N3  UNL     1     -17.216  25.635  11.103  1.00  0.00    -0.391 N
ATOM     14  H32 UNL     1     -17.816  25.859  11.897  1.00  0.00     0.157 HD
ATOM     15  H31 UNL     1     -16.347  26.168  11.103  1.00  0.00     0.157 HD
ENDBRANCH  12  13
ENDBRANCH   5   7
BRANCH   1  16
HETATM   16  C2  UNL     1     -13.107  23.820  12.499  1.00  0.00     0.075 C
HETATM   17  C1  UNL     1     -11.605  23.773  12.655  1.00  0.00     0.032 C
HETATM   18  C3  UNL     1     -13.616  22.590  13.254  1.00  0.00     0.032 C
ENDBRANCH   1  16
TORSDOF 3
ENDMDL