MODEL 4
REMARK VINA RESULT: -5.164364516      2.264      5.399
REMARK  4 active torsions:
REMARK  status: ('A' for Active; 'I' for Inactive)
REMARK    1  A    between atoms: C2_2  and  C4_4
REMARK    2  A    between atoms: C4_4  and  N1_5
REMARK    3  A    between atoms: N1_5  and  O1_6
REMARK    4  A    between atoms: N1_5  and  C5_8
ROOT
HETATM    1  C5  UNL     1     -14.099  21.001   8.246  1.00  0.00     0.118 C
HETATM    2  N2  UNL     1     -14.145  22.259   8.172  1.00  0.00    -0.375 N
ATOM      3  H2  UNL     1     -14.922  22.641   7.633  1.00  0.00     0.160 HD
HETATM    4  C6  UNL     1     -13.253  23.228   8.742  1.00  0.00     0.140 C
HETATM    5  C7  UNL     1     -12.918  23.035  10.182  1.00  0.00     0.018 C
HETATM    6  C8  UNL     1     -11.477  23.505  10.400  1.00  0.00     0.028 C
HETATM    7  C9  UNL     1     -13.881  23.831  11.019  1.00  0.00     0.028 C
HETATM    8  S1  UNL     1     -12.930  21.263  10.610  1.00  0.00    -0.141 SA
HETATM    9  C10 UNL     1     -12.989  20.385   9.021  1.00  0.00     0.061 C
HETATM   10  C11 UNL     1     -11.667  20.593   8.311  1.00  0.00     0.035 C
HETATM   11  C12 UNL     1     -13.187  18.904   9.214  1.00  0.00     0.035 C
ENDROOT
BRANCH   1  12
HETATM   12  N1  UNL     1     -15.100  20.230   7.594  1.00  0.00    -0.247 N
BRANCH  12  13
HETATM   13  C4  UNL     1     -14.875  19.164   6.690  1.00  0.00     0.161 C
BRANCH  13  14
HETATM   14  C2  UNL     1     -13.984  19.414   5.530  1.00  0.00    -0.002 C
HETATM   15  C1  UNL     1     -14.837  19.179   4.274  1.00  0.00     0.011 C
HETATM   16  C3  UNL     1     -12.826  18.436   5.432  1.00  0.00     0.011 C
ENDBRANCH  13  14
ENDBRANCH  12  13
BRANCH  12  17
HETATM   17  O1  UNL     1     -16.385  20.594   7.893  1.00  0.00    -0.286 OA
ATOM     18  H1  UNL     1     -16.593  21.514   8.004  1.00  0.00     0.244 HD
ENDBRANCH  12  17
ENDBRANCH   1  12
TORSDOF 4
ENDMDL