MODEL 1
REMARK VINA RESULT: -6.069595717      0.000      0.000
REMARK  2 active torsions:
REMARK  status: ('A' for Active; 'I' for Inactive)
REMARK    1  A    between atoms: C2_2  and  C3_3
REMARK    2  A    between atoms: N4_14  and  C7_15
ROOT
HETATM    1  C3  UNL     1     -12.732  23.017  10.180  1.00  0.00     0.260 C
HETATM    2  N1  UNL     1     -12.379  24.112  11.077  1.00  0.00    -0.058 N
ATOM      3  H11 UNL     1     -11.955  24.920  10.622  1.00  0.00     0.278 HD
ATOM      4  H12 UNL     1     -11.592  23.922  11.697  1.00  0.00     0.278 HD
HETATM    5  C4  UNL     1     -13.653  24.385  11.763  1.00  0.00     0.277 C
HETATM    6  C5  UNL     1     -14.689  24.171  10.729  1.00  0.00     0.033 A
HETATM    7  C6  UNL     1     -14.112  23.347   9.789  1.00  0.00     0.072 A
HETATM    8  N2  UNL     1     -14.816  22.966   8.708  1.00  0.00    -0.287 N
ATOM      9  H2  UNL     1     -14.394  22.355   8.008  1.00  0.00     0.188 HD
HETATM   10  N3  UNL     1     -16.050  23.385   8.561  1.00  0.00    -0.239 N
ATOM     11  H3  UNL     1     -16.561  23.081   7.731  1.00  0.00     0.208 HD
HETATM   12  N4  UNL     1     -16.675  24.177   9.416  1.00  0.00    -0.262 N
HETATM   13  C12 UNL     1     -15.989  24.573  10.507  1.00  0.00     0.129 A
HETATM   14  S1  UNL     1     -16.694  25.554  11.615  1.00  0.00    -0.058 SA
ENDROOT
BRANCH  12  15
HETATM   15  C7  UNL     1     -18.042  24.603   9.190  1.00  0.00     0.111 C
HETATM   16  C8  UNL     1     -19.014  23.825  10.054  1.00  0.00     0.027 C
HETATM   17  C9  UNL     1     -18.989  22.466   9.388  1.00  0.00     0.002 C
HETATM   18  C10 UNL     1     -19.135  22.851   7.925  1.00  0.00     0.002 C
HETATM   19  C11 UNL     1     -18.469  24.206   7.796  1.00  0.00     0.027 C
ENDBRANCH  12  15
BRANCH   1  20
HETATM   20  C2  UNL     1     -12.643  21.706  10.884  1.00  0.00     0.002 C
HETATM   21  C1  UNL     1     -12.635  20.573  10.197  1.00  0.00     0.009 C
ENDBRANCH   1  20
TORSDOF 2
ENDMDL