MODEL 4
REMARK VINA RESULT: -4.912094332      1.649      2.653
REMARK  3 active torsions:
REMARK  status: ('A' for Active; 'I' for Inactive)
REMARK    1  A    between atoms: C2_2  and  C3_3
REMARK    2  A    between atoms: C3_3  and  C4_4
REMARK    3  A    between atoms: C4_4  and  N1_5
ROOT
HETATM    1  C1  UNL     1     -15.047  19.658   7.396  1.00  0.00     0.079 C
HETATM    2  C2  UNL     1     -13.594  19.861   7.760  1.00  0.00     0.168 C
HETATM    3  O1  UNL     1     -13.162  21.012   7.114  1.00  0.00    -0.347 OA
HETATM    4  C5  UNL     1     -13.326  22.060   8.015  1.00  0.00     0.276 C
HETATM    5  C6  UNL     1     -13.116  21.372   9.338  1.00  0.00     0.338 C
HETATM    6  O2  UNL     1     -11.804  21.366   9.756  1.00  0.00    -0.166 OA
HETATM    7  O3  UNL     1     -11.951  21.359  11.086  1.00  0.00    -0.195 OA
HETATM    8  C7  UNL     1     -12.906  22.316  11.265  1.00  0.00     0.203 C
HETATM    9  C8  UNL     1     -13.444  22.450  12.640  1.00  0.00     0.072 C
HETATM   10  C9  UNL     1     -14.047  23.856  12.662  1.00  0.00     0.006 C
HETATM   11  C10 UNL     1     -13.460  24.573  11.464  1.00  0.00     0.006 C
HETATM   12  C11 UNL     1     -12.278  23.695  11.029  1.00  0.00     0.072 C
HETATM   13  O4  UNL     1     -13.862  22.019  10.308  1.00  0.00    -0.289 OA
HETATM   14  O5  UNL     1     -13.508  20.068   9.112  1.00  0.00    -0.292 OA
ENDROOT
BRANCH   2  15
HETATM   15  C3  UNL     1     -12.732  18.714   7.280  1.00  0.00     0.095 C
BRANCH  15  16
HETATM   16  C4  UNL     1     -11.427  19.195   6.692  1.00  0.00     0.235 C
BRANCH  16  17
HETATM   17  N1  UNL     1     -10.549  19.486   7.836  1.00  0.00    -0.079 N
ATOM     18  H13 UNL     1     -10.391  20.483   7.985  1.00  0.00     0.274 HD
ATOM     19  H12 UNL     1     -10.981  19.293   8.740  1.00  0.00     0.274 HD
ATOM     20  H11 UNL     1      -9.692  18.957   7.674  1.00  0.00     0.274 HD
ENDBRANCH  16  17
ENDBRANCH  15  16
ENDBRANCH   2  15
TORSDOF 3
ENDMDL