MODEL 4
REMARK VINA RESULT: -6.318131285      3.907      6.809
REMARK  3 active torsions:
REMARK  status: ('A' for Active; 'I' for Inactive)
REMARK    1  A    between atoms: N1_2  and  C1_4
REMARK    2  A    between atoms: C3_8  and  N3_9
REMARK    3  A    between atoms: N3_9  and  N4_11
ROOT
HETATM    1  N3  UNL     1     -13.640  22.678   8.738  1.00  0.00    -0.280 N
ATOM      2  H3  UNL     1     -13.217  22.907   7.839  1.00  0.00     0.189 HD
ENDROOT
BRANCH   1   3
HETATM    3  C3  UNL     1     -14.638  23.396   9.205  1.00  0.00     0.165 A
HETATM    4  N2  UNL     1     -15.751  23.745   8.567  1.00  0.00    -0.343 N
HETATM    5  C2  UNL     1     -16.635  24.463   9.191  1.00  0.00     0.134 A
ATOM      6  H2  UNL     1     -15.909  23.453   7.602  1.00  0.00     0.167 HD
HETATM    7  C1  UNL     1     -16.371  24.826  10.483  1.00  0.00     0.162 A
HETATM    8  S1  UNL     1     -14.836  24.103  10.743  1.00  0.00    -0.027 SA
BRANCH   7   9
HETATM    9  N1  UNL     1     -17.175  25.612  11.389  1.00  0.00    -0.107 N
HETATM   10  O1  UNL     1     -16.647  25.963  12.451  1.00  0.00    -0.531 OA
HETATM   11  O2  UNL     1     -18.451  25.958  11.102  1.00  0.00    -0.531 OA
ENDBRANCH   7   9
ENDBRANCH   1   3
BRANCH   1  12
HETATM   12  N4  UNL     1     -13.164  21.595   9.488  1.00  0.00    -0.307 N
HETATM   13  C4  UNL     1     -13.337  20.372   9.127  1.00  0.00     0.004 C
HETATM   14  C5  UNL     1     -12.792  19.300   9.993  1.00  0.00     0.054 C
HETATM   15  C9  UNL     1     -14.051  19.972   7.890  1.00  0.00     0.054 C
HETATM   16  C6  UNL     1     -12.109  18.255   9.135  1.00  0.00     0.006 C
HETATM   17  C7  UNL     1     -12.994  17.712   8.061  1.00  0.00     0.001 C
HETATM   18  C8  UNL     1     -14.277  18.493   7.888  1.00  0.00     0.006 C
ATOM     19  H4  UNL     1     -12.660  21.783  10.354  1.00  0.00     0.186 HD
ENDBRANCH   1  12
TORSDOF 3
ENDMDL