MODEL 5
REMARK VINA RESULT: -5.079352433      1.185      1.321
REMARK  2 active torsions:
REMARK  status: ('A' for Active; 'I' for Inactive)
REMARK    1  A    between atoms: N3_11  and  C5_12
REMARK    2  A    between atoms: C5_12  and  C6_13
ROOT
HETATM    1  S1  UNL     1     -19.196  25.259   9.306  1.00  0.00    -0.057 SA
HETATM    2  C1  UNL     1     -17.766  25.142  10.174  1.00  0.00     0.136 A
HETATM    3  N1  UNL     1     -17.709  25.715  11.374  1.00  0.00    -0.314 N
ATOM      4  H1  UNL     1     -18.439  26.236  11.860  1.00  0.00     0.175 HD
HETATM    5  S2  UNL     1     -16.144  25.376  11.900  1.00  0.00     0.007 SA
HETATM    6  C2  UNL     1     -15.573  24.492  10.558  1.00  0.00     0.124 A
HETATM    7  C3  UNL     1     -16.657  24.499   9.736  1.00  0.00     0.107 A
HETATM    8  N2  UNL     1     -16.242  23.793   8.632  1.00  0.00    -0.347 N
ATOM      9  H2  UNL     1     -16.811  23.602   7.808  1.00  0.00     0.167 HD
HETATM   10  C4  UNL     1     -14.971  23.393   8.808  1.00  0.00     0.184 A
HETATM   11  N3  UNL     1     -14.530  23.811   9.993  1.00  0.00    -0.332 N
ENDROOT
BRANCH  11  12
HETATM   12  C5  UNL     1     -13.268  23.652  10.648  1.00  0.00     0.162 C
BRANCH  12  13
HETATM   13  C6  UNL     1     -12.271  22.846   9.863  1.00  0.00     0.139 C
HETATM   14  C7  UNL     1     -12.019  21.570  10.656  1.00  0.00     0.035 C
HETATM   15  C8  UNL     1     -10.660  21.749  11.239  1.00  0.00     0.029 C
HETATM   16  C9  UNL     1     -10.212  23.066  10.717  1.00  0.00     0.168 C
HETATM   17  O1  UNL     1     -11.054  23.467   9.710  1.00  0.00    -0.384 OA
ENDBRANCH  12  13
ENDBRANCH  11  12
TORSDOF 2
ENDMDL