MODEL 1
REMARK VINA RESULT: -7.013577030      0.000      0.000
REMARK  6 active torsions:
REMARK  status: ('A' for Active; 'I' for Inactive)
REMARK    1  A    between atoms: C7_7  and  N1_8
REMARK    2  A    between atoms: N1_8  and  C8_10
REMARK    3  A    between atoms: C9_15  and  S1_16
REMARK    4  A    between atoms: S1_16  and  C10_17
REMARK    5  A    between atoms: C10_17  and  C11_18
REMARK       I    between atoms: C11_18  and  N4_20
REMARK    6  A    between atoms: N4_20  and  C12_22
ROOT
HETATM    1  C8  UNL     1     -11.820  23.367  11.565  1.00  0.00     0.162 A
HETATM    2  N2  UNL     1     -11.867  23.930  12.779  1.00  0.00    -0.279 N
ATOM      3  H2  UNL     1     -12.739  23.960  13.307  1.00  0.00     0.189 HD
HETATM    4  N3  UNL     1     -10.799  24.426  13.257  1.00  0.00    -0.286 N
ATOM      5  H3  UNL     1     -10.811  24.861  14.180  1.00  0.00     0.188 HD
HETATM    6  C9  UNL     1      -9.672  24.382  12.567  1.00  0.00     0.130 A
HETATM    7  S2  UNL     1     -10.178  23.582  11.146  1.00  0.00    -0.027 SA
ENDROOT
BRANCH   6   8
HETATM    8  S1  UNL     1      -8.083  25.028  13.087  1.00  0.00    -0.094 SA
BRANCH   8   9
HETATM    9  C10 UNL     1      -7.588  26.431  12.090  1.00  0.00     0.184 C
BRANCH   9  10
HETATM   10  C11 UNL     1      -7.181  25.976  10.750  1.00  0.00     0.227 C
HETATM   11  O1  UNL     1      -6.161  25.246  10.660  1.00  0.00    -0.273 OA
HETATM   12  N4  UNL     1      -7.933  26.362   9.618  1.00  0.00    -0.356 N
ATOM     13  H4  UNL     1      -8.757  26.955   9.717  1.00  0.00     0.162 HD
BRANCH  12  14
HETATM   14  C12 UNL     1      -7.507  25.899   8.314  1.00  0.00     0.084 C
HETATM   15  C13 UNL     1      -7.591  27.022   7.298  1.00  0.00     0.025 C
HETATM   16  C14 UNL     1      -8.994  27.510   7.159  1.00  0.00     0.002 C
HETATM   17  C15 UNL     1      -9.837  26.361   6.642  1.00  0.00     0.000 C
HETATM   18  C16 UNL     1      -9.812  25.299   7.732  1.00  0.00     0.002 C
HETATM   19  C17 UNL     1      -8.428  24.775   7.899  1.00  0.00     0.025 C
ENDBRANCH  12  14
ENDBRANCH   9  10
ENDBRANCH   8   9
ENDBRANCH   6   8
BRANCH   1  20
HETATM   20  N1  UNL     1     -12.804  22.805  10.899  1.00  0.00    -0.364 N
ATOM     21  H1  UNL     1     -12.822  21.802  10.713  1.00  0.00     0.162 HD
BRANCH  20  22
HETATM   22  C7  UNL     1     -13.853  23.675  10.450  1.00  0.00     0.087 C
HETATM   23  C2  UNL     1     -14.340  23.343   9.060  1.00  0.00     0.004 C
HETATM   24  C1  UNL     1     -14.134  21.893   8.726  1.00  0.00     0.012 C
HETATM   25  C3  UNL     1     -15.796  23.729   8.975  1.00  0.00     0.006 C
HETATM   26  C4  UNL     1     -16.078  25.023   9.701  1.00  0.00     0.001 C
HETATM   27  C5  UNL     1     -15.830  24.897  11.191  1.00  0.00     0.002 C
HETATM   28  C6  UNL     1     -15.042  23.636  11.411  1.00  0.00     0.025 C
ENDBRANCH  20  22
ENDBRANCH   1  20
TORSDOF 6
ENDMDL