MODEL 4
REMARK VINA RESULT: -6.004177425      2.200      4.554
REMARK  7 active torsions:
REMARK  status: ('A' for Active; 'I' for Inactive)
REMARK    1  A    between atoms: C2_2  and  C4_4
REMARK    2  A    between atoms: C5_5  and  O1_7
REMARK    3  A    between atoms: C7_9  and  O2_10
REMARK    4  A    between atoms: C14_19  and  C15_20
REMARK    5  A    between atoms: C14_19  and  C17_22
REMARK    6  A    between atoms: C17_22  and  C18_23
REMARK    7  A    between atoms: C22_27  and  O5_28
ROOT
HETATM    1  C4  UNL     1     -13.934  17.824   5.609  1.00  0.00    -0.017 C
HETATM    2  C5  UNL     1     -14.091  16.339   5.701  1.00  0.00     0.105 C
HETATM    3  C6  UNL     1     -14.583  15.882   7.088  1.00  0.00     0.053 C
HETATM    4  C7  UNL     1     -12.844  15.568   5.428  1.00  0.00     0.159 C
HETATM    5  C9  UNL     1     -11.713  16.100   6.277  1.00  0.00     0.041 C
HETATM    6  C10 UNL     1     -11.476  17.531   6.050  1.00  0.00     0.009 C
HETATM    7  C11 UNL     1     -10.762  17.713   4.736  1.00  0.00     0.011 C
HETATM    8  C12 UNL     1     -12.706  18.387   6.210  1.00  0.00     0.107 C
HETATM    9  C13 UNL     1     -12.472  19.767   5.781  1.00  0.00     0.276 C
HETATM   10  O3  UNL     1     -11.973  20.210   4.688  1.00  0.00    -0.264 OA
HETATM   11  O4  UNL     1     -12.878  20.651   6.762  1.00  0.00    -0.306 OA
HETATM   12  C14 UNL     1     -12.720  20.042   8.002  1.00  0.00     0.101 C
HETATM   13  C22 UNL     1     -12.866  18.588   7.719  1.00  0.00     0.176 C
ENDROOT
BRANCH   1  14
HETATM   14  C2  UNL     1     -14.435  18.431   4.349  1.00  0.00    -0.065 C
HETATM   15  C1  UNL     1     -15.368  19.368   4.282  1.00  0.00     0.019 C
HETATM   16  C3  UNL     1     -13.848  18.088   2.994  1.00  0.00     0.047 C
ENDBRANCH   1  14
BRANCH  13  17
HETATM   17  O5  UNL     1     -11.896  17.931   8.462  1.00  0.00    -0.391 OA
ATOM     18  H5  UNL     1     -11.142  18.475   8.655  1.00  0.00     0.210 HD
ENDBRANCH  13  17
BRANCH   2  19
HETATM   19  O1  UNL     1     -15.106  15.929   4.851  1.00  0.00    -0.383 OA
ATOM     20  H1  UNL     1     -14.855  15.117   4.427  1.00  0.00     0.211 HD
ENDBRANCH   2  19
BRANCH  12  21
HETATM   21  C15 UNL     1     -11.347  20.365   8.612  1.00  0.00     0.037 C
HETATM   22  C16 UNL     1     -10.951  21.764   8.158  1.00  0.00     0.008 C
ENDBRANCH  12  21
BRANCH  12  23
HETATM   23  C17 UNL     1     -13.735  20.594   8.979  1.00  0.00     0.069 C
BRANCH  23  24
HETATM   24  C18 UNL     1     -14.503  21.734   8.471  1.00  0.00    -0.022 C
HETATM   25  C19 UNL     1     -14.524  22.868   9.131  1.00  0.00    -0.091 C
HETATM   26  C20 UNL     1     -13.780  23.044  10.405  1.00  0.00     0.042 C
HETATM   27  C21 UNL     1     -15.312  24.006   8.590  1.00  0.00     0.042 C
ENDBRANCH  23  24
ENDBRANCH  12  23
BRANCH   4  28
HETATM   28  O2  UNL     1     -13.054  14.246   5.820  1.00  0.00    -0.387 OA
HETATM   29  C8  UNL     1     -11.873  13.631   6.185  1.00  0.00     0.202 C
ENDBRANCH   4  28
TORSDOF 7
ENDMDL