MODEL 3
REMARK VINA RESULT: -6.518125754      1.311      1.459
REMARK  5 active torsions:
REMARK  status: ('A' for Active; 'I' for Inactive)
REMARK    1  A    between atoms: S1_2  and  C2_3
REMARK    2  A    between atoms: C3_6  and  S2_7
REMARK    3  A    between atoms: S2_7  and  C4_8
REMARK    4  A    between atoms: C4_8  and  C5_9
REMARK    5  A    between atoms: C7_16  and  C8_17
ROOT
HETATM    1  C2  UNL     1     -14.176  23.122   9.544  1.00  0.00     0.084 A
HETATM    2  N1  UNL     1     -15.434  23.460   9.157  1.00  0.00    -0.331 N
ATOM      3  H1  UNL     1     -15.789  23.127   8.260  1.00  0.00     0.168 HD
HETATM    4  C3  UNL     1     -16.201  24.212   9.919  1.00  0.00     0.148 A
HETATM    5  N2  UNL     1     -15.720  24.628  11.069  1.00  0.00    -0.303 N
ATOM      6  H2  UNL     1     -16.310  25.210  11.665  1.00  0.00     0.171 HD
HETATM    7  C6  UNL     1     -14.451  24.312  11.505  1.00  0.00     0.257 A
HETATM    8  O3  UNL     1     -14.266  24.831  12.616  1.00  0.00    -0.267 OA
HETATM    9  C7  UNL     1     -13.607  23.530  10.740  1.00  0.00     0.052 A
ENDROOT
BRANCH   9  10
HETATM   10  C8  UNL     1     -12.262  23.232  11.208  1.00  0.00    -0.004 C
HETATM   11  C9  UNL     1     -11.383  24.454  10.917  1.00  0.00     0.019 C
HETATM   12  C10 UNL     1     -10.041  24.388  11.625  1.00  0.00    -0.013 C
HETATM   13  C11 UNL     1     -10.112  24.130  13.084  1.00  0.00     0.009 C
HETATM   14  C15 UNL     1      -9.314  23.227  10.927  1.00  0.00     0.009 C
HETATM   15  C12 UNL     1     -10.859  22.833  13.294  1.00  0.00    -0.013 C
HETATM   16  C13 UNL     1     -10.187  21.667  12.634  1.00  0.00     0.009 C
HETATM   17  C17 UNL     1     -12.256  22.919  12.675  1.00  0.00     0.019 C
HETATM   18  C14 UNL     1     -10.118  22.008  11.182  1.00  0.00    -0.013 C
HETATM   19  C16 UNL     1     -11.537  22.110  10.579  1.00  0.00     0.019 C
ENDBRANCH   9  10
BRANCH   1  20
HETATM   20  S1  UNL     1     -13.296  22.110   8.423  1.00  0.00    -0.116 SA
HETATM   21  C1  UNL     1     -14.028  20.467   8.165  1.00  0.00     0.097 C
ENDBRANCH   1  20
BRANCH   4  22
HETATM   22  S2  UNL     1     -17.857  24.617   9.338  1.00  0.00    -0.083 SA
BRANCH  22  23
HETATM   23  C4  UNL     1     -18.427  23.180   8.386  1.00  0.00     0.195 C
BRANCH  23  24
HETATM   24  C5  UNL     1     -19.348  22.334   9.185  1.00  0.00     0.182 C
HETATM   25  O1  UNL     1     -19.670  21.222   8.725  1.00  0.00    -0.647 OA
HETATM   26  O2  UNL     1     -19.790  22.835  10.392  1.00  0.00    -0.647 OA
ENDBRANCH  23  24
ENDBRANCH  22  23
ENDBRANCH   4  22
TORSDOF 5
ENDMDL