MODEL 1
REMARK VINA RESULT: -7.942808420      0.000      0.000
REMARK  6 active torsions:
REMARK  status: ('A' for Active; 'I' for Inactive)
REMARK    1  A    between atoms: C3_4  and  C4_5
REMARK    2  A    between atoms: C7_13  and  N5_14
REMARK    3  A    between atoms: N5_14  and  C8_16
REMARK    4  A    between atoms: C11_19  and  O1_20
REMARK    5  A    between atoms: O1_20  and  C12_21
REMARK    6  A    between atoms: C12_21  and  C13_22
ROOT
HETATM    1  N1  UNL     1     -12.361  17.344   3.240  1.00  0.00    -0.191 NA
HETATM    2  C1  UNL     1     -12.901  17.366   4.269  1.00  0.00     0.105 C
HETATM    3  C2  UNL     1     -13.578  17.371   5.545  1.00  0.00     0.117 A
HETATM    4  C3  UNL     1     -14.624  16.543   5.890  1.00  0.00     0.056 A
HETATM    5  N2  UNL     1     -14.953  16.877   7.150  1.00  0.00    -0.280 N
ATOM      6  H2  UNL     1     -15.697  16.443   7.698  1.00  0.00     0.189 HD
HETATM    7  N3  UNL     1     -14.161  17.858   7.576  1.00  0.00    -0.163 N
HETATM    8  N4  UNL     1     -13.894  18.648   8.609  1.00  0.00    -0.109 N
ATOM      9  H4  UNL     1     -14.395  18.624   9.497  1.00  0.00     0.208 HD
HETATM   10  C7  UNL     1     -12.878  19.483   8.330  1.00  0.00     0.700 A
HETATM   11  N6  UNL     1     -12.504  19.195   7.072  1.00  0.00    -0.170 N
ATOM     12  H6  UNL     1     -11.753  19.651   6.554  1.00  0.00     0.186 HD
HETATM   13  C21 UNL     1     -13.287  18.201   6.611  1.00  0.00     0.183 A
ENDROOT
BRANCH   4  14
HETATM   14  C4  UNL     1     -15.263  15.483   5.031  1.00  0.00     0.039 A
HETATM   15  C5  UNL     1     -14.717  14.106   5.077  1.00  0.00     0.011 A
HETATM   16  C6  UNL     1     -16.090  14.438   5.678  1.00  0.00     0.011 A
ENDBRANCH   4  14
BRANCH  10  17
HETATM   17  N5  UNL     1     -12.368  20.387   9.131  1.00  0.00    -0.190 N
ATOM     18  H5  UNL     1     -11.417  20.282   9.485  1.00  0.00     0.184 HD
BRANCH  17  19
HETATM   19  C8  UNL     1     -13.144  21.506   9.499  1.00  0.00     0.049 A
HETATM   20  C9  UNL     1     -13.240  21.819  10.832  1.00  0.00     0.033 A
HETATM   21  C10 UNL     1     -13.981  22.896  11.240  1.00  0.00     0.039 A
HETATM   22  C11 UNL     1     -14.643  23.682  10.341  1.00  0.00     0.068 A
HETATM   23  C19 UNL     1     -14.521  23.329   8.979  1.00  0.00     0.039 A
HETATM   24  C20 UNL     1     -13.786  22.260   8.555  1.00  0.00     0.033 A
BRANCH  22  25
HETATM   25  O1  UNL     1     -15.396  24.756  10.668  1.00  0.00    -0.351 OA
BRANCH  25  26
HETATM   26  C12 UNL     1     -16.353  25.509  10.072  1.00  0.00     0.180 C
BRANCH  26  27
HETATM   27  C13 UNL     1     -17.759  25.110  10.384  1.00  0.00     0.014 C
HETATM   28  C14 UNL     1     -17.938  23.641  10.003  1.00  0.00     0.033 C
HETATM   29  C15 UNL     1     -18.151  23.507   8.514  1.00  0.00    -0.030 C
HETATM   30  C16 UNL     1     -19.104  24.285   8.020  1.00  0.00    -0.031 C
HETATM   31  C17 UNL     1     -19.810  25.159   8.988  1.00  0.00     0.027 C
HETATM   32  C18 UNL     1     -18.751  26.000   9.662  1.00  0.00     0.011 C
ENDBRANCH  26  27
ENDBRANCH  25  26
ENDBRANCH  22  25
ENDBRANCH  17  19
ENDBRANCH  10  17
TORSDOF 6
ENDMDL