MODEL 2
REMARK VINA RESULT: -6.292001291      2.833      5.187
REMARK  7 active torsions:
REMARK  status: ('A' for Active; 'I' for Inactive)
REMARK    1  A    between atoms: O1_2  and  C2_3
REMARK    2  A    between atoms: C3_5  and  O3_6
REMARK    3  A    between atoms: C7_10  and  O4_11
REMARK    4  A    between atoms: C11_16  and  O5_17
REMARK    5  A    between atoms: C14_21  and  C16_23
REMARK    6  A    between atoms: C16_23  and  C17_24
REMARK    7  A    between atoms: C17_24  and  C18_25
ROOT
HETATM    1  C2  UNL     1     -10.744  19.627   7.465  1.00  0.00     0.269 C
HETATM    2  O2  UNL     1      -9.735  20.462   7.851  1.00  0.00    -0.325 OA
HETATM    3  C3  UNL     1      -9.956  21.723   7.333  1.00  0.00     0.171 C
HETATM    4  C5  UNL     1      -9.294  22.831   8.077  1.00  0.00     0.071 C
HETATM    5  C6  UNL     1     -10.339  23.847   8.554  1.00  0.00     0.037 C
HETATM    6  C7  UNL     1     -11.208  23.095   9.572  1.00  0.00     0.123 C
HETATM    7  C8  UNL     1     -11.760  21.870   8.946  1.00  0.00     0.033 C
HETATM    8  C9  UNL     1     -11.491  21.826   7.480  1.00  0.00     0.067 C
HETATM    9  C10 UNL     1     -11.885  20.493   6.912  1.00  0.00     0.080 C
HETATM   10  C11 UNL     1     -13.198  19.980   7.325  1.00  0.00     0.132 C
HETATM   11  C12 UNL     1     -13.745  20.411   8.623  1.00  0.00     0.019 C
HETATM   12  C13 UNL     1     -13.469  19.368   9.718  1.00  0.00     0.013 C
HETATM   13  C14 UNL     1     -13.264  21.730   9.151  1.00  0.00    -0.032 C
HETATM   14  C15 UNL     1     -13.455  21.766  10.656  1.00  0.00     0.016 C
ENDROOT
BRANCH  13  15
HETATM   15  C16 UNL     1     -13.976  22.874   8.519  1.00  0.00     0.014 C
BRANCH  15  16
HETATM   16  C17 UNL     1     -14.744  23.770   9.424  1.00  0.00     0.028 C
BRANCH  16  17
HETATM   17  C18 UNL     1     -16.178  23.729   8.946  1.00  0.00    -0.025 C
HETATM   18  C19 UNL     1     -17.111  24.443   9.526  1.00  0.00    -0.091 C
HETATM   19  C20 UNL     1     -18.509  24.379   9.031  1.00  0.00     0.042 C
HETATM   20  C21 UNL     1     -16.762  25.316  10.683  1.00  0.00     0.042 C
ENDBRANCH  16  17
ENDBRANCH  15  16
ENDBRANCH  13  15
BRANCH   6  21
HETATM   21  O4  UNL     1     -10.284  22.704  10.574  1.00  0.00    -0.395 OA
ATOM     22  H4  UNL     1      -9.508  23.216  10.375  1.00  0.00     0.210 HD
ENDBRANCH   6  21
BRANCH  10  23
HETATM   23  O5  UNL     1     -14.122  20.247   6.286  1.00  0.00    -0.395 OA
ATOM     24  H5  UNL     1     -14.885  20.664   6.669  1.00  0.00     0.210 HD
ENDBRANCH  10  23
BRANCH   3  25
HETATM   25  O3  UNL     1      -9.605  21.750   5.996  1.00  0.00    -0.359 OA
HETATM   26  C4  UNL     1      -8.288  22.149   5.876  1.00  0.00     0.205 C
ENDBRANCH   3  25
BRANCH   1  27
HETATM   27  O1  UNL     1     -10.290  18.712   6.558  1.00  0.00    -0.365 OA
HETATM   28  C1  UNL     1     -10.463  17.393   6.946  1.00  0.00     0.204 C
ENDBRANCH   1  27
TORSDOF 7
ENDMDL