MODEL 2
REMARK VINA RESULT: -7.401929419      0.956      1.166
REMARK  6 active torsions:
REMARK  status: ('A' for Active; 'I' for Inactive)
REMARK    1  A    between atoms: N1_1  and  C1_4
REMARK    2  A    between atoms: N2_12  and  C7_13
REMARK    3  A    between atoms: C7_13  and  C8_14
REMARK    4  A    between atoms: C8_14  and  C9_15
REMARK    5  A    between atoms: C9_15  and  N3_16
REMARK       I    between atoms: N3_16  and  C10_18
REMARK    6  A    between atoms: C10_18  and  C11_20
ROOT
HETATM    1  C1  UNL     1     -13.814  18.015   4.299  1.00  0.00     0.110 A
HETATM    2  S1  UNL     1     -13.236  17.237   5.678  1.00  0.00    -0.069 SA
HETATM    3  C2  UNL     1     -12.988  18.419   6.860  1.00  0.00     0.000 A
HETATM    4  C3  UNL     1     -13.294  19.667   6.456  1.00  0.00     0.008 A
HETATM    5  S2  UNL     1     -13.832  19.609   4.868  1.00  0.00    -0.068 SA
HETATM    6  C4  UNL     1     -12.902  20.181   7.790  1.00  0.00     0.005 A
HETATM    7  C5  UNL     1     -14.015  20.772   8.599  1.00  0.00     0.036 C
HETATM    8  C6  UNL     1     -13.446  20.956  10.020  1.00  0.00     0.128 C
HETATM    9  N2  UNL     1     -12.452  21.909   9.962  1.00  0.00    -0.374 N
HETATM   10  C17 UNL     1     -11.398  21.695   9.066  1.00  0.00     0.064 C
HETATM   11  C18 UNL     1     -11.756  21.161   7.729  1.00  0.00     0.060 C
HETATM   12  C19 UNL     1     -12.560  18.801   8.260  1.00  0.00     0.062 A
ENDROOT
BRANCH   9  13
HETATM   13  C7  UNL     1     -12.278  22.973  10.824  1.00  0.00     0.064 C
BRANCH  13  14
HETATM   14  C8  UNL     1     -12.860  22.996  12.188  1.00  0.00     0.064 C
BRANCH  14  15
HETATM   15  C9  UNL     1     -13.972  23.989  12.320  1.00  0.00     0.128 C
BRANCH  15  16
HETATM   16  N3  UNL     1     -14.730  24.143  11.076  1.00  0.00    -0.360 N
HETATM   17  C10 UNL     1     -15.842  25.001  10.987  1.00  0.00     0.221 C
HETATM   18  O1  UNL     1     -16.239  25.664  11.967  1.00  0.00    -0.273 OA
ATOM     19  H3  UNL     1     -14.444  23.614  10.252  1.00  0.00     0.162 HD
BRANCH  17  20
HETATM   20  C11 UNL     1     -16.583  25.137   9.699  1.00  0.00     0.078 C
HETATM   21  C12 UNL     1     -17.958  25.653   9.964  1.00  0.00     0.014 C
HETATM   22  C13 UNL     1     -18.955  24.525  10.079  1.00  0.00     0.001 C
HETATM   23  C14 UNL     1     -19.052  23.734   8.792  1.00  0.00     0.000 C
HETATM   24  C15 UNL     1     -17.751  23.783   8.018  1.00  0.00     0.001 C
HETATM   25  C16 UNL     1     -16.604  23.797   8.975  1.00  0.00     0.014 C
ENDBRANCH  17  20
ENDBRANCH  15  16
ENDBRANCH  14  15
ENDBRANCH  13  14
ENDBRANCH   9  13
BRANCH   1  26
HETATM   26  N1  UNL     1     -14.148  17.524   3.133  1.00  0.00    -0.388 N
ATOM     27  H12 UNL     1     -14.845  16.822   2.884  1.00  0.00     0.157 HD
ATOM     28  H11 UNL     1     -13.784  17.733   2.204  1.00  0.00     0.157 HD
ENDBRANCH   1  26
TORSDOF 6
ENDMDL