MODEL 5
REMARK VINA RESULT: -7.019168595      1.793      2.133
REMARK  10 active torsions:
REMARK  status: ('A' for Active; 'I' for Inactive)
REMARK    1  A    between atoms: C2_2  and  C3_3
REMARK    2  A    between atoms: C3_3  and  N1_4
REMARK    3  A    between atoms: C4_5  and  O1_6
REMARK    4  A    between atoms: C6_9  and  N2_10
REMARK    5  A    between atoms: N3_13  and  C9_14
REMARK    6  A    between atoms: C9_14  and  O2_15
REMARK    7  A    between atoms: C9_14  and  C10_17
REMARK    8  A    between atoms: C10_17  and  C12_19
REMARK    9  A    between atoms: C12_19  and  C13_20
REMARK   10  A    between atoms: C21_28  and  O3_29
ROOT
HETATM    1  N2  UNL     1     -12.730  19.384   7.137  1.00  0.00    -0.374 N
HETATM    2  C7  UNL     1     -13.820  20.324   7.060  1.00  0.00     0.143 C
HETATM    3  C8  UNL     1     -14.028  20.945   8.447  1.00  0.00     0.145 C
HETATM    4  N3  UNL     1     -12.806  21.415   9.006  1.00  0.00    -0.358 N
HETATM    5  C19 UNL     1     -11.629  21.273   8.112  1.00  0.00     0.145 C
HETATM    6  C20 UNL     1     -11.523  19.782   7.824  1.00  0.00     0.143 C
ENDROOT
BRANCH   1   7
HETATM    7  C6  UNL     1     -12.874  18.086   6.529  1.00  0.00     0.086 A
HETATM    8  C5  UNL     1     -12.119  17.573   5.495  1.00  0.00     0.089 A
HETATM    9  C4  UNL     1     -12.599  16.318   5.249  1.00  0.00     0.146 A
HETATM   10  N1  UNL     1     -13.611  16.011   6.067  1.00  0.00    -0.307 N
HETATM   11  C21 UNL     1     -13.782  17.100   6.857  1.00  0.00     0.171 A
BRANCH   9  12
HETATM   12  O1  UNL     1     -12.104  15.467   4.275  1.00  0.00    -0.346 OA
ATOM     13  H1  UNL     1     -11.216  15.129   4.265  1.00  0.00     0.219 HD
ENDBRANCH   9  12
BRANCH  10  14
HETATM   14  C3  UNL     1     -14.408  14.825   6.168  1.00  0.00     0.133 C
BRANCH  14  15
HETATM   15  C2  UNL     1     -15.660  14.835   5.361  1.00  0.00     0.016 C
HETATM   16  C1  UNL     1     -15.515  14.168   4.011  1.00  0.00     0.006 C
ENDBRANCH  14  15
ENDBRANCH  10  14
BRANCH  11  17
HETATM   17  O3  UNL     1     -14.743  17.238   7.879  1.00  0.00    -0.344 OA
ATOM     18  H3  UNL     1     -14.567  17.257   8.813  1.00  0.00     0.219 HD
ENDBRANCH  11  17
ENDBRANCH   1   7
BRANCH   4  19
HETATM   19  C9  UNL     1     -12.619  21.968  10.242  1.00  0.00     0.143 C
BRANCH  19  20
HETATM   20  O2  UNL     1     -11.436  21.788  10.763  1.00  0.00    -0.346 OA
ATOM     21  H2  UNL     1     -10.727  22.250  10.332  1.00  0.00     0.219 HD
ENDBRANCH  19  20
BRANCH  19  22
HETATM   22  C10 UNL     1     -13.506  22.724  11.085  1.00  0.00    -0.015 C
HETATM   23  C11 UNL     1     -13.893  22.472  12.474  1.00  0.00     0.052 C
BRANCH  22  24
HETATM   24  C12 UNL     1     -14.088  23.825  10.537  1.00  0.00    -0.011 C
BRANCH  24  25
HETATM   25  C13 UNL     1     -15.521  23.970  10.419  1.00  0.00     0.009 C
HETATM   26  C14 UNL     1     -15.891  25.318  11.059  1.00  0.00     0.008 C
HETATM   27  C15 UNL     1     -17.381  25.527  11.035  1.00  0.00     0.001 C
HETATM   28  C16 UNL     1     -18.001  25.318   9.692  1.00  0.00     0.000 C
HETATM   29  C17 UNL     1     -17.493  24.063   8.999  1.00  0.00     0.001 C
HETATM   30  C18 UNL     1     -15.978  24.088   8.971  1.00  0.00     0.008 C
ENDBRANCH  24  25
ENDBRANCH  22  24
ENDBRANCH  19  22
ENDBRANCH   4  19
TORSDOF 10
ENDMDL