MODEL 2
REMARK VINA RESULT: -7.491344956      0.665      1.496
REMARK  7 active torsions:
REMARK  status: ('A' for Active; 'I' for Inactive)
REMARK    1  A    between atoms: O1_2  and  C2_3
REMARK    2  A    between atoms: C2_3  and  C3_5
REMARK    3  A    between atoms: C3_5  and  C4_6
REMARK    4  A    between atoms: C4_6  and  C5_7
REMARK    5  A    between atoms: C8_11  and  O3_12
REMARK    6  A    between atoms: C9_14  and  C10_15
REMARK       I    between atoms: C10_15  and  N1_17
REMARK    7  A    between atoms: N1_17  and  C11_19
ROOT
HETATM    1  C5  UNL     1     -14.050  23.238  10.219  1.00  0.00     0.002 A
HETATM    2  S1  UNL     1     -13.611  24.024  11.694  1.00  0.00    -0.096 SA
HETATM    3  C6  UNL     1     -12.127  23.293  11.975  1.00  0.00     0.013 A
HETATM    4  C7  UNL     1     -11.192  23.537  13.127  1.00  0.00     0.059 C
HETATM    5  C8  UNL     1     -11.985  22.441  10.916  1.00  0.00     0.095 A
HETATM    6  C9  UNL     1     -12.965  22.389   9.994  1.00  0.00     0.079 A
ENDROOT
BRANCH   6   7
HETATM    7  C10 UNL     1     -12.984  21.499   8.824  1.00  0.00     0.256 C
HETATM    8  O4  UNL     1     -12.113  21.641   7.931  1.00  0.00    -0.268 OA
HETATM    9  N1  UNL     1     -13.918  20.464   8.600  1.00  0.00    -0.347 N
ATOM     10  H1  UNL     1     -14.652  20.300   9.289  1.00  0.00     0.163 HD
BRANCH   9  11
HETATM   11  C11 UNL     1     -13.861  19.618   7.399  1.00  0.00     0.034 C
HETATM   12  C12 UNL     1     -13.158  18.337   7.648  1.00  0.00     0.035 C
HETATM   13  C13 UNL     1     -13.235  17.475   6.397  1.00  0.00    -0.012 C
HETATM   14  C14 UNL     1     -14.655  17.129   6.050  1.00  0.00     0.009 C
HETATM   15  C18 UNL     1     -12.585  18.245   5.283  1.00  0.00     0.009 C
HETATM   16  C15 UNL     1     -15.431  18.404   5.857  1.00  0.00    -0.012 C
HETATM   17  C16 UNL     1     -14.820  19.111   4.648  1.00  0.00     0.009 C
HETATM   18  C20 UNL     1     -15.312  19.269   7.061  1.00  0.00     0.035 C
HETATM   19  C17 UNL     1     -13.415  19.470   5.015  1.00  0.00    -0.012 C
HETATM   20  C19 UNL     1     -13.340  20.390   6.212  1.00  0.00     0.035 C
ENDBRANCH   9  11
ENDBRANCH   6   7
BRANCH   1  21
HETATM   21  C4  UNL     1     -15.280  23.475   9.406  1.00  0.00     0.057 C
BRANCH  21  22
HETATM   22  C3  UNL     1     -15.880  24.820   9.493  1.00  0.00     0.116 C
BRANCH  22  23
HETATM   23  C2  UNL     1     -17.052  24.892  10.393  1.00  0.00     0.258 C
HETATM   24  O2  UNL     1     -17.045  25.459  11.477  1.00  0.00    -0.265 OA
BRANCH  23  25
HETATM   25  O1  UNL     1     -18.262  24.277  10.000  1.00  0.00    -0.326 OA
HETATM   26  C1  UNL     1     -19.323  25.045   9.498  1.00  0.00     0.213 C
ENDBRANCH  23  25
ENDBRANCH  22  23
ENDBRANCH  21  22
ENDBRANCH   1  21
BRANCH   5  27
HETATM   27  O3  UNL     1     -10.802  21.663  10.865  1.00  0.00    -0.359 OA
ATOM     28  H3  UNL     1     -10.246  21.666  11.635  1.00  0.00     0.217 HD
ENDBRANCH   5  27
TORSDOF 7
ENDMDL