MODEL 5
REMARK VINA RESULT: -7.600405382      1.785      2.330
REMARK  7 active torsions:
REMARK  status: ('A' for Active; 'I' for Inactive)
REMARK    1  A    between atoms: C2_2  and  N1_3
REMARK    2  A    between atoms: C7_9  and  O2_10
REMARK    3  A    between atoms: O2_10  and  C8_11
REMARK    4  A    between atoms: C8_11  and  N4_16
REMARK    5  A    between atoms: N4_16  and  C10_18
REMARK    6  A    between atoms: C10_18  and  C11_19
REMARK    7  A    between atoms: C11_19  and  C12_20
ROOT
HETATM    1  C8  UNL     1     -10.863  24.168  11.136  1.00  0.00     0.233 C
HETATM    2  N2  UNL     1      -9.701  24.380  11.549  1.00  0.00    -0.259 N
ATOM      3  H2  UNL     1      -9.006  24.217  10.820  1.00  0.00     0.181 HD
HETATM    4  C9  UNL     1      -9.129  24.765  12.701  1.00  0.00     0.185 C
HETATM    5  N3  UNL     1      -8.608  25.095  13.681  1.00  0.00    -0.172 NA
ENDROOT
BRANCH   1   6
HETATM    6  O2  UNL     1     -10.983  23.761   9.794  1.00  0.00    -0.279 OA
BRANCH   6   7
HETATM    7  C7  UNL     1     -11.035  22.420   9.435  1.00  0.00     0.080 A
HETATM    8  C6  UNL     1     -10.699  21.357  10.221  1.00  0.00     0.040 A
HETATM    9  C5  UNL     1     -10.795  20.059   9.755  1.00  0.00     0.040 A
HETATM   10  C4  UNL     1     -11.227  19.768   8.494  1.00  0.00     0.079 A
HETATM   11  O1  UNL     1     -11.358  18.514   7.936  1.00  0.00    -0.332 OA
HETATM   12  C20 UNL     1     -11.571  20.841   7.680  1.00  0.00    -0.004 A
HETATM   13  C3  UNL     1     -12.446  18.226   7.075  1.00  0.00     0.296 C
HETATM   14  N1  UNL     1     -12.881  19.326   6.300  1.00  0.00    -0.388 N
HETATM   15  C21 UNL     1     -12.030  20.472   6.313  1.00  0.00     0.160 C
HETATM   16  C19 UNL     1     -11.481  22.114   8.128  1.00  0.00     0.049 A
BRANCH  14  17
HETATM   17  C2  UNL     1     -14.270  19.641   6.358  1.00  0.00     0.115 C
HETATM   18  C1  UNL     1     -14.881  19.632   7.718  1.00  0.00     0.026 C
ENDBRANCH  14  17
ENDBRANCH   6   7
ENDBRANCH   1   6
BRANCH   1  19
HETATM   19  N4  UNL     1     -12.039  24.314  11.941  1.00  0.00    -0.355 N
ATOM     20  H4  UNL     1     -12.464  25.236  12.028  1.00  0.00     0.163 HD
BRANCH  19  21
HETATM   21  C10 UNL     1     -12.645  23.199  12.635  1.00  0.00     0.123 C
BRANCH  21  22
HETATM   22  C11 UNL     1     -13.923  22.805  11.912  1.00  0.00     0.024 C
BRANCH  22  23
HETATM   23  C12 UNL     1     -14.416  23.876  10.985  1.00  0.00    -0.013 C
HETATM   24  C13 UNL     1     -15.626  24.562  11.563  1.00  0.00     0.005 C
HETATM   25  C14 UNL     1     -16.110  25.591  10.551  1.00  0.00     0.004 C
HETATM   26  C15 UNL     1     -16.589  24.851   9.331  1.00  0.00    -0.019 C
HETATM   27  C16 UNL     1     -17.777  24.028   9.717  1.00  0.00     0.010 C
HETATM   28  C17 UNL     1     -15.474  24.071   8.696  1.00  0.00     0.004 C
HETATM   29  C18 UNL     1     -14.713  23.222   9.651  1.00  0.00     0.005 C
ENDBRANCH  22  23
ENDBRANCH  21  22
ENDBRANCH  19  21
ENDBRANCH   1  19
TORSDOF 7
ENDMDL