MODEL 4
REMARK VINA RESULT: -6.027087145      2.042      3.216
REMARK  10 active torsions:
REMARK  status: ('A' for Active; 'I' for Inactive)
REMARK    1  A    between atoms: C2_2  and  N1_4
REMARK    2  A    between atoms: N1_4  and  C4_5
REMARK    3  A    between atoms: N1_4  and  C9_15
REMARK    4  A    between atoms: C4_5  and  O1_6
REMARK    5  A    between atoms: C4_5  and  C5_8
REMARK    6  A    between atoms: C8_12  and  O2_13
REMARK    7  A    between atoms: C9_15  and  C17_27
REMARK    8  A    between atoms: C10_16  and  O3_17
REMARK    9  A    between atoms: C10_16  and  N2_19
REMARK   10  A    between atoms: N2_19  and  C11_21
ROOT
HETATM    1  C9  UNL     1     -13.076  22.643   9.754  1.00  0.00     0.072 C
HETATM    2  C10 UNL     1     -14.397  23.036   9.345  1.00  0.00     0.160 C
ENDROOT
BRANCH   1   3
HETATM    3  N1  UNL     1     -12.595  21.515   9.012  1.00  0.00    -0.322 N
BRANCH   3   4
HETATM    4  C2  UNL     1     -12.826  20.159   9.613  1.00  0.00     0.084 C
HETATM    5  C1  UNL     1     -11.546  19.338   9.471  1.00  0.00     0.032 C
HETATM    6  C3  UNL     1     -13.977  19.457   8.963  1.00  0.00     0.032 C
ENDBRANCH   3   4
BRANCH   3   7
HETATM    7  C4  UNL     1     -11.963  21.395   7.773  1.00  0.00     0.163 C
BRANCH   7   8
HETATM    8  O1  UNL     1     -12.704  21.059   6.746  1.00  0.00    -0.345 OA
ATOM      9  H1  UNL     1     -12.334  20.448   6.120  1.00  0.00     0.219 HD
ENDBRANCH   7   8
BRANCH   7  10
HETATM   10  C5  UNL     1     -10.569  21.577   7.391  1.00  0.00     0.089 A
HETATM   11  S1  UNL     1      -9.269  22.357   8.212  1.00  0.00    -0.095 SA
HETATM   12  C6  UNL     1      -7.991  22.005   7.164  1.00  0.00     0.053 A
HETATM   13  C7  UNL     1      -8.604  21.283   6.190  1.00  0.00     0.045 A
HETATM   14  C8  UNL     1      -9.926  21.054   6.289  1.00  0.00     0.087 A
BRANCH  14  15
HETATM   15  O2  UNL     1     -10.563  20.298   5.258  1.00  0.00    -0.359 OA
ATOM     16  H2  UNL     1     -11.501  20.161   5.187  1.00  0.00     0.217 HD
ENDBRANCH  14  15
ENDBRANCH   7  10
ENDBRANCH   3   7
ENDBRANCH   1   3
BRANCH   1  17
HETATM   17  C17 UNL     1     -12.545  22.824  11.102  1.00  0.00    -0.004 C
HETATM   18  C18 UNL     1     -11.177  22.318  11.454  1.00  0.00     0.021 C
HETATM   19  C19 UNL     1     -12.452  24.343  11.454  1.00  0.00     0.021 C
HETATM   20  C20 UNL     1     -13.437  22.310  12.227  1.00  0.00     0.021 C
ENDBRANCH   1  17
BRANCH   2  21
HETATM   21  O3  UNL     1     -14.751  22.650   8.148  1.00  0.00    -0.345 OA
ATOM     22  H3  UNL     1     -14.316  23.095   7.430  1.00  0.00     0.219 HD
ENDBRANCH   2  21
BRANCH   2  23
HETATM   23  N2  UNL     1     -15.429  23.757   9.934  1.00  0.00    -0.365 N
ATOM     24  H2  UNL     1     -15.399  23.891  10.945  1.00  0.00     0.162 HD
BRANCH  23  25
HETATM   25  C11 UNL     1     -16.560  24.337   9.200  1.00  0.00     0.083 C
HETATM   26  C12 UNL     1     -16.982  25.658   9.758  1.00  0.00     0.025 C
HETATM   27  C13 UNL     1     -18.398  25.649  10.285  1.00  0.00     0.002 C
HETATM   28  C14 UNL     1     -19.369  25.226   9.199  1.00  0.00     0.000 C
HETATM   29  C15 UNL     1     -18.834  24.064   8.386  1.00  0.00     0.002 C
HETATM   30  C16 UNL     1     -17.737  23.389   9.183  1.00  0.00     0.025 C
ENDBRANCH  23  25
ENDBRANCH   2  23
TORSDOF 10
ENDMDL