MODEL 1
REMARK VINA RESULT: -6.228191648      0.000      0.000
REMARK  5 active torsions:
REMARK  status: ('A' for Active; 'I' for Inactive)
REMARK    1  A    between atoms: C2_2  and  C3_3
REMARK    2  A    between atoms: C3_3  and  C4_4
REMARK    3  A    between atoms: C4_4  and  C5_5
REMARK    4  A    between atoms: C5_5  and  C6_6
REMARK    5  A    between atoms: C9_12  and  C10_13
ROOT
HETATM    1  C6  UNL     1      -6.117  14.927   7.028  1.00  0.00     0.212 C
HETATM    2  C7  UNL     1      -7.495  14.666   7.613  1.00  0.00     0.265 C
HETATM    3  N1  UNL     1      -8.410  15.718   7.221  1.00  0.00    -0.071 N
ATOM      4  H11 UNL     1      -8.053  16.652   7.415  1.00  0.00     0.277 HD
ATOM      5  H12 UNL     1      -9.239  15.769   7.813  1.00  0.00     0.277 HD
HETATM    6  C8  UNL     1      -8.723  15.508   5.821  1.00  0.00     0.273 C
HETATM    7  C9  UNL     1      -7.496  14.928   5.157  1.00  0.00     0.281 C
HETATM    8  N6  UNL     1      -6.300  15.516   5.737  1.00  0.00    -0.057 N
ATOM      9  H61 UNL     1      -5.480  15.424   5.137  1.00  0.00     0.278 HD
ATOM     10  H62 UNL     1      -6.330  16.535   5.764  1.00  0.00     0.278 HD
ENDROOT
BRANCH   7  11
HETATM   11  C10 UNL     1      -7.582  15.136   3.704  1.00  0.00     0.143 A
HETATM   12  N2  UNL     1      -6.818  16.002   3.023  1.00  0.00    -0.273 N
HETATM   13  N3  UNL     1      -7.114  15.971   1.757  1.00  0.00    -0.225 N
ATOM     14  H2  UNL     1      -6.104  16.600   3.440  1.00  0.00     0.189 HD
HETATM   15  N4  UNL     1      -8.078  15.084   1.589  1.00  0.00    -0.005 NA
ATOM     16  H3  UNL     1      -6.679  16.532   1.025  1.00  0.00     0.205 HD
HETATM   17  N5  UNL     1      -8.376  14.562   2.778  1.00  0.00    -0.269 N
ATOM     18  H5  UNL     1      -9.085  13.849   2.957  1.00  0.00     0.185 HD
ENDBRANCH   7  11
BRANCH   1  19
HETATM   19  C5  UNL     1      -5.388  15.823   7.997  1.00  0.00     0.035 C
BRANCH  19  20
HETATM   20  C4  UNL     1      -4.400  16.732   7.318  1.00  0.00     0.006 C
BRANCH  20  21
HETATM   21  C3  UNL     1      -3.109  15.980   7.127  1.00  0.00     0.026 C
BRANCH  21  22
HETATM   22  C2  UNL     1      -2.438  16.283   5.859  1.00  0.00    -0.037 C
HETATM   23  C1  UNL     1      -2.822  17.337   5.155  1.00  0.00     0.007 C
ENDBRANCH  21  22
ENDBRANCH  20  21
ENDBRANCH  19  20
ENDBRANCH   1  19
TORSDOF 5
ENDMDL