MODEL 5
REMARK VINA RESULT: -5.399904424      1.964      6.102
REMARK  7 active torsions:
REMARK  status: ('A' for Active; 'I' for Inactive)
REMARK    1  A    between atoms: N1_1  and  C1_4
REMARK    2  A    between atoms: N3_9  and  C4_10
REMARK    3  A    between atoms: C4_10  and  C5_11
REMARK    4  A    between atoms: C5_11  and  N4_12
REMARK    5  A    between atoms: C7_16  and  C8_17
REMARK    6  A    between atoms: C8_17  and  C9_18
REMARK    7  A    between atoms: C9_18  and  N6_19
ROOT
HETATM    1  N4  UNL     1      -6.814  15.252   5.525  1.00  0.00    -0.350 N
HETATM    2  C6  UNL     1      -6.481  15.573   4.263  1.00  0.00     0.183 A
HETATM    3  N5  UNL     1      -5.396  16.342   4.271  1.00  0.00    -0.354 N
ATOM      4  H5  UNL     1      -4.930  16.727   3.450  1.00  0.00     0.166 HD
HETATM    5  C7  UNL     1      -5.022  16.522   5.542  1.00  0.00     0.027 A
HETATM    6  C10 UNL     1      -5.911  15.838   6.331  1.00  0.00     0.116 A
ENDROOT
BRANCH   1   7
HETATM    7  C5  UNL     1      -7.951  14.422   5.885  1.00  0.00     0.149 C
BRANCH   7   8
HETATM    8  C4  UNL     1      -9.119  15.237   6.353  1.00  0.00     0.146 C
BRANCH   8   9
HETATM    9  N3  UNL     1      -9.210  15.209   7.793  1.00  0.00    -0.351 N
HETATM   10  C1  UNL     1     -10.153  15.899   8.602  1.00  0.00     0.171 C
HETATM   11  N2  UNL     1      -9.639  15.993   9.940  1.00  0.00    -0.361 N
HETATM   12  C2  UNL     1      -8.265  15.542   9.851  1.00  0.00     0.142 C
ATOM     13  H2  UNL     1     -10.134  16.309  10.774  1.00  0.00     0.162 HD
HETATM   14  C3  UNL     1      -8.379  14.486   8.740  1.00  0.00     0.145 C
BRANCH  10  15
HETATM   15  N1  UNL     1     -11.293  16.363   8.178  1.00  0.00    -0.371 N
ATOM     16  H12 UNL     1     -12.169  15.841   8.180  1.00  0.00     0.159 HD
ATOM     17  H11 UNL     1     -11.463  17.292   7.793  1.00  0.00     0.159 HD
ENDBRANCH  10  15
ENDBRANCH   8   9
ENDBRANCH   7   8
ENDBRANCH   1   7
BRANCH   5  18
HETATM   18  C8  UNL     1      -3.867  17.307   6.071  1.00  0.00     0.085 C
BRANCH  18  19
HETATM   19  C9  UNL     1      -2.783  16.435   6.622  1.00  0.00     0.235 C
BRANCH  19  20
HETATM   20  N6  UNL     1      -2.148  15.580   5.667  1.00  0.00    -0.079 N
ATOM     21  H63 UNL     1      -2.405  15.858   4.721  1.00  0.00     0.274 HD
ATOM     22  H62 UNL     1      -1.145  15.767   5.642  1.00  0.00     0.274 HD
ATOM     23  H61 UNL     1      -2.315  14.583   5.799  1.00  0.00     0.274 HD
ENDBRANCH  19  20
ENDBRANCH  18  19
ENDBRANCH   5  18
TORSDOF 7
ENDMDL