MODEL 1
REMARK VINA RESULT: -5.904037887      0.000      0.000
REMARK  6 active torsions:
REMARK  status: ('A' for Active; 'I' for Inactive)
REMARK    1  A    between atoms: C3_3  and  N1_4
REMARK    2  A    between atoms: N1_4  and  N2_5
REMARK    3  A    between atoms: N1_4  and  C4_8
REMARK    4  A    between atoms: C4_8  and  C5_9
REMARK    5  A    between atoms: C5_9  and  S1_10
REMARK    6  A    between atoms: S1_10  and  C6_11
ROOT
HETATM    1  C1  UNL     1      -1.405  14.484  10.722  1.00  0.00     0.013 C
HETATM    2  C2  UNL     1      -2.371  14.513   9.998  1.00  0.00    -0.101 C
HETATM    3  C3  UNL     1      -3.538  14.520   9.119  1.00  0.00     0.205 C
ENDROOT
BRANCH   3   4
HETATM    4  N1  UNL     1      -3.655  15.794   8.437  1.00  0.00    -0.226 NA
BRANCH   4   5
HETATM    5  N2  UNL     1      -3.132  15.647   7.126  1.00  0.00    -0.362 NA
ATOM      6  H22 UNL     1      -2.263  15.125   7.235  1.00  0.00     0.171 HD
ATOM      7  H21 UNL     1      -2.891  16.572   6.773  1.00  0.00     0.171 HD
ENDBRANCH   4   5
BRANCH   4   8
HETATM    8  C4  UNL     1      -5.070  16.066   8.265  1.00  0.00     0.124 C
BRANCH   8   9
HETATM    9  C5  UNL     1      -5.827  14.823   7.845  1.00  0.00     0.098 C
BRANCH   9  10
HETATM   10  S1  UNL     1      -7.054  15.356   6.603  1.00  0.00    -0.092 SA
BRANCH  10  11
HETATM   11  C6  UNL     1      -6.344  15.427   4.972  1.00  0.00     0.160 A
HETATM   12  N3  UNL     1      -5.029  15.282   4.748  1.00  0.00    -0.332 N
HETATM   13  C7  UNL     1      -4.524  15.337   3.507  1.00  0.00     0.200 A
ATOM     14  H3  UNL     1      -4.402  15.126   5.537  1.00  0.00     0.168 HD
HETATM   15  N4  UNL     1      -5.307  15.541   2.440  1.00  0.00    -0.188 N
HETATM   16  C8  UNL     1      -6.625  15.684   2.678  1.00  0.00     0.678 A
ATOM     17  H4  UNL     1      -4.925  15.585   1.496  1.00  0.00     0.185 HD
HETATM   18  N5  UNL     1      -7.450  15.882   1.677  1.00  0.00    -0.234 N
HETATM   19  N6  UNL     1      -7.146  15.631   3.917  1.00  0.00    -0.171 N
ATOM     20  H52 UNL     1      -7.056  15.923   0.737  1.00  0.00     0.174 HD
ATOM     21  H51 UNL     1      -8.448  15.990   1.857  1.00  0.00     0.174 HD
ATOM     22  H6  UNL     1      -8.150  15.745   4.054  1.00  0.00     0.186 HD
ENDBRANCH  10  11
ENDBRANCH   9  10
ENDBRANCH   8   9
ENDBRANCH   4   8
ENDBRANCH   3   4
TORSDOF 6
ENDMDL