MODEL 4
REMARK VINA RESULT: -5.958617405      3.819      5.606
REMARK  6 active torsions:
REMARK  status: ('A' for Active; 'I' for Inactive)
REMARK    1  A    between atoms: N4_10  and  C3_11
REMARK    2  A    between atoms: C3_11  and  C4_12
REMARK    3  A    between atoms: C4_12  and  N5_13
REMARK    4  A    between atoms: N5_13  and  O1_14
REMARK    5  A    between atoms: N5_13  and  C5_16
REMARK    6  A    between atoms: C5_16  and  C6_17
ROOT
HETATM    1  C4  UNL     1      -8.665  12.611   0.372  1.00  0.00     0.141 C
ENDROOT
BRANCH   1   2
HETATM    2  C3  UNL     1      -9.487  13.856   0.207  1.00  0.00     0.165 C
BRANCH   2   3
HETATM    3  N4  UNL     1      -8.917  14.576  -0.916  1.00  0.00    -0.176 N
HETATM    4  C1  UNL     1      -8.852  15.906  -1.037  1.00  0.00     0.693 A
HETATM    5  N1  UNL     1      -9.282  16.808  -0.186  1.00  0.00    -0.233 N
HETATM    6  N2  UNL     1      -8.265  16.162  -2.200  1.00  0.00    -0.131 N
ATOM      7  H12 UNL     1      -9.232  17.823  -0.277  1.00  0.00     0.174 HD
ATOM      8  H11 UNL     1      -9.733  16.612   0.708  1.00  0.00     0.174 HD
HETATM    9  N3  UNL     1      -7.972  14.997  -2.787  1.00  0.00    -0.281 N
ATOM     10  H2  UNL     1      -8.070  17.088  -2.579  1.00  0.00     0.205 HD
HETATM   11  C2  UNL     1      -8.379  13.975  -1.988  1.00  0.00     0.218 A
ATOM     12  H3  UNL     1      -7.514  14.892  -3.693  1.00  0.00     0.188 HD
ENDBRANCH   2   3
ENDBRANCH   1   2
BRANCH   1  13
HETATM   13  N5  UNL     1      -7.679  12.671   1.409  1.00  0.00    -0.193 NA
BRANCH  13  14
HETATM   14  O1  UNL     1      -6.466  12.615   0.862  1.00  0.00    -0.313 OA
ATOM     15  H1  UNL     1      -5.893  13.227   1.310  1.00  0.00     0.237 HD
ENDBRANCH  13  14
BRANCH  13  16
HETATM   16  C5  UNL     1      -7.900  13.785   2.292  1.00  0.00     0.178 C
BRANCH  16  17
HETATM   17  C6  UNL     1      -6.696  14.245   2.993  1.00  0.00     0.041 A
HETATM   18  C7  UNL     1      -6.202  13.895   4.229  1.00  0.00     0.115 A
HETATM   19  N6  UNL     1      -5.069  14.599   4.408  1.00  0.00    -0.360 N
HETATM   20  C8  UNL     1      -4.846  15.373   3.326  1.00  0.00     0.180 A
ATOM     21  H6  UNL     1      -4.471  14.554   5.233  1.00  0.00     0.166 HD
HETATM   22  N7  UNL     1      -5.844  15.146   2.476  1.00  0.00    -0.354 N
ATOM     23  H7  UNL     1      -5.947  15.591   1.564  1.00  0.00     0.166 HD
ENDBRANCH  16  17
ENDBRANCH  13  16
ENDBRANCH   1  13
TORSDOF 6
ENDMDL