MODEL 5
REMARK VINA RESULT: -5.679732368      1.635      2.734
REMARK  6 active torsions:
REMARK  status: ('A' for Active; 'I' for Inactive)
REMARK    1  A    between atoms: N1_1  and  C1_4
REMARK    2  A    between atoms: N6_16  and  C5_17
REMARK    3  A    between atoms: C5_17  and  C6_18
REMARK    4  A    between atoms: C6_18  and  C7_19
REMARK    5  A    between atoms: C7_19  and  C8_20
REMARK    6  A    between atoms: C8_20  and  N7_21
ROOT
HETATM    1  C1  UNL     1      -6.678  15.609   2.599  1.00  0.00     0.132 A
HETATM    2  N2  UNL     1      -5.346  15.520   2.475  1.00  0.00    -0.337 N
ATOM      3  H2  UNL     1      -4.916  15.738   1.576  1.00  0.00     0.168 HD
HETATM    4  C2  UNL     1      -4.572  15.156   3.491  1.00  0.00     0.183 A
HETATM    5  N3  UNL     1      -5.061  14.852   4.707  1.00  0.00    -0.335 N
ATOM      6  H3  UNL     1      -4.449  14.575   5.474  1.00  0.00     0.168 HD
HETATM    7  C3  UNL     1      -6.402  14.932   4.866  1.00  0.00     0.156 A
HETATM    8  C4  UNL     1      -7.227  15.305   3.836  1.00  0.00     0.139 A
HETATM    9  N4  UNL     1      -8.553  15.289   4.324  1.00  0.00    -0.279 N
ATOM     10  H4  UNL     1      -9.384  15.523   3.781  1.00  0.00     0.189 HD
HETATM   11  N5  UNL     1      -8.549  14.939   5.544  1.00  0.00    -0.238 N
ATOM     12  H5  UNL     1      -9.389  14.853   6.117  1.00  0.00     0.208 HD
HETATM   13  N6  UNL     1      -7.275  14.689   5.999  1.00  0.00    -0.260 N
ENDROOT
BRANCH  13  14
HETATM   14  C5  UNL     1      -6.745  14.296   7.268  1.00  0.00     0.152 C
BRANCH  14  15
HETATM   15  C6  UNL     1      -6.673  15.453   8.216  1.00  0.00     0.024 C
BRANCH  15  16
HETATM   16  C7  UNL     1      -5.310  16.049   8.247  1.00  0.00     0.029 C
BRANCH  16  17
HETATM   17  C8  UNL     1      -4.323  14.881   8.401  1.00  0.00     0.229 C
BRANCH  17  18
HETATM   18  N7  UNL     1      -3.157  15.227   7.616  1.00  0.00    -0.079 N
ATOM     19  H73 UNL     1      -3.051  14.660   6.775  1.00  0.00     0.274 HD
ATOM     20  H72 UNL     1      -3.238  16.130   7.149  1.00  0.00     0.274 HD
ATOM     21  H71 UNL     1      -2.359  15.168   8.248  1.00  0.00     0.274 HD
ENDBRANCH  17  18
ENDBRANCH  16  17
ENDBRANCH  15  16
ENDBRANCH  14  15
ENDBRANCH  13  14
BRANCH   1  22
HETATM   22  N1  UNL     1      -7.442  15.958   1.634  1.00  0.00    -0.383 N
ATOM     23  H12 UNL     1      -8.253  16.549   1.818  1.00  0.00     0.157 HD
ATOM     24  H11 UNL     1      -7.281  15.670   0.669  1.00  0.00     0.157 HD
ENDBRANCH   1  22
TORSDOF 6
ENDMDL