MODEL 3
REMARK VINA RESULT: -5.813773364      3.476      4.509
REMARK  5 active torsions:
REMARK  status: ('A' for Active; 'I' for Inactive)
REMARK    1  A    between atoms: N4_10  and  O1_11
REMARK    2  A    between atoms: O1_11  and  C3_12
REMARK    3  A    between atoms: C3_12  and  C4_13
REMARK    4  A    between atoms: C4_13  and  C5_14
REMARK    5  A    between atoms: C5_14  and  C6_15
ROOT
HETATM    1  O1  UNL     1      -8.218  14.415   7.704  1.00  0.00    -0.259 OA
ENDROOT
BRANCH   1   2
HETATM    2  N4  UNL     1      -9.232  15.216   8.165  1.00  0.00    -0.043 N
HETATM    3  C1  UNL     1      -9.386  15.777   9.368  1.00  0.00     0.718 A
HETATM    4  N1  UNL     1      -8.578  15.663  10.356  1.00  0.00    -0.231 N
HETATM    5  N2  UNL     1     -10.536  16.500   9.406  1.00  0.00    -0.129 N
ATOM      6  H12 UNL     1      -8.696  16.091  11.275  1.00  0.00     0.174 HD
ATOM      7  H11 UNL     1      -7.715  15.120  10.327  1.00  0.00     0.174 HD
HETATM    8  N3  UNL     1     -11.063  16.358   8.202  1.00  0.00    -0.279 N
ATOM      9  H2  UNL     1     -10.910  17.034  10.191  1.00  0.00     0.205 HD
HETATM   10  C2  UNL     1     -10.286  15.578   7.425  1.00  0.00     0.249 A
ATOM     11  H3  UNL     1     -11.940  16.781   7.901  1.00  0.00     0.188 HD
ENDBRANCH   1   2
BRANCH   1  12
HETATM   12  C3  UNL     1      -7.058  15.038   7.134  1.00  0.00     0.203 C
BRANCH  12  13
HETATM   13  C4  UNL     1      -5.837  14.777   7.976  1.00  0.00     0.035 C
BRANCH  13  14
HETATM   14  C5  UNL     1      -5.096  16.096   8.118  1.00  0.00     0.061 C
BRANCH  14  15
HETATM   15  C6  UNL     1      -4.165  16.312   6.986  1.00  0.00     0.025 A
HETATM   16  C7  UNL     1      -4.312  17.189   5.934  1.00  0.00     0.114 A
HETATM   17  N5  UNL     1      -3.252  17.072   5.133  1.00  0.00    -0.360 N
HETATM   18  C8  UNL     1      -2.428  16.146   5.641  1.00  0.00     0.180 A
ATOM     19  H5  UNL     1      -3.094  17.601   4.275  1.00  0.00     0.166 HD
HETATM   20  N6  UNL     1      -2.999  15.679   6.786  1.00  0.00    -0.355 N
ATOM     21  H6  UNL     1      -2.603  14.963   7.394  1.00  0.00     0.166 HD
ENDBRANCH  14  15
ENDBRANCH  13  14
ENDBRANCH  12  13
ENDBRANCH   1  12
TORSDOF 5
ENDMDL