MODEL 5
REMARK VINA RESULT: -5.762884561      1.505      2.081
REMARK  6 active torsions:
REMARK  status: ('A' for Active; 'I' for Inactive)
REMARK    1  A    between atoms: N1_1  and  C1_5
REMARK    2  A    between atoms: C1_5  and  C2_6
REMARK    3  A    between atoms: C2_6  and  C3_7
REMARK    4  A    between atoms: C3_7  and  C4_8
REMARK    5  A    between atoms: C4_8  and  C5_9
REMARK    6  A    between atoms: C6_12  and  C7_13
ROOT
HETATM    1  C5  UNL     1      -5.987  15.465   5.246  1.00  0.00     0.097 A
HETATM    2  N2  UNL     1      -6.307  14.492   4.373  1.00  0.00    -0.327 N
ATOM      3  H2  UNL     1      -6.237  13.492   4.566  1.00  0.00     0.169 HD
HETATM    4  C6  UNL     1      -6.734  15.018   3.213  1.00  0.00     0.165 A
HETATM    5  N5  UNL     1      -6.675  16.353   3.372  1.00  0.00    -0.281 N
ATOM      6  H5  UNL     1      -6.933  17.045   2.669  1.00  0.00     0.188 HD
HETATM    7  N6  UNL     1      -6.227  16.623   4.591  1.00  0.00    -0.287 N
ATOM      8  H6  UNL     1      -6.086  17.558   4.974  1.00  0.00     0.188 HD
ENDROOT
BRANCH   1   9
HETATM    9  C4  UNL     1      -5.475  15.360   6.637  1.00  0.00     0.078 C
BRANCH   9  10
HETATM   10  C3  UNL     1      -4.570  16.505   6.957  1.00  0.00     0.009 C
BRANCH  10  11
HETATM   11  C2  UNL     1      -3.129  16.065   6.950  1.00  0.00     0.027 C
BRANCH  11  12
HETATM   12  C1  UNL     1      -2.429  16.369   5.657  1.00  0.00     0.229 C
BRANCH  12  13
HETATM   13  N1  UNL     1      -3.009  17.593   5.126  1.00  0.00    -0.079 N
ATOM     14  H13 UNL     1      -3.720  17.995   5.737  1.00  0.00     0.274 HD
ATOM     15  H12 UNL     1      -2.361  18.381   5.142  1.00  0.00     0.274 HD
ATOM     16  H11 UNL     1      -3.359  17.384   4.191  1.00  0.00     0.274 HD
ENDBRANCH  12  13
ENDBRANCH  11  12
ENDBRANCH  10  11
ENDBRANCH   9  10
ENDBRANCH   1   9
BRANCH   4  17
HETATM   17  C7  UNL     1      -7.179  14.284   2.006  1.00  0.00     0.143 C
HETATM   18  N3  UNL     1      -6.855  13.088   1.717  1.00  0.00    -0.372 N
HETATM   19  C8  UNL     1      -7.450  12.658   0.479  1.00  0.00     0.141 C
ATOM     20  H3  UNL     1      -6.248  12.504   2.292  1.00  0.00     0.161 HD
HETATM   21  C9  UNL     1      -8.581  13.681   0.288  1.00  0.00     0.141 C
HETATM   22  N4  UNL     1      -8.018  14.802   1.006  1.00  0.00    -0.372 N
ATOM     23  H4  UNL     1      -8.197  15.788   0.820  1.00  0.00     0.161 HD
ENDBRANCH   4  17
TORSDOF 6
ENDMDL