MODEL 3
REMARK VINA RESULT: -5.971896888      2.881      3.940
REMARK  7 active torsions:
REMARK  status: ('A' for Active; 'I' for Inactive)
REMARK    1  A    between atoms: N1_1  and  C1_5
REMARK    2  A    between atoms: C1_5  and  C2_6
REMARK    3  A    between atoms: C2_6  and  N2_7
REMARK    4  A    between atoms: N2_7  and  N3_8
REMARK    5  A    between atoms: N2_7  and  C3_11
REMARK    6  A    between atoms: C3_11  and  C4_12
REMARK    7  A    between atoms: C11_20  and  N4_21
ROOT
HETATM    1  C4  UNL     1      -6.199  14.311   3.811  1.00  0.00     0.178 C
HETATM    2  O1  UNL     1      -6.209  14.220   5.220  1.00  0.00    -0.342 OA
HETATM    3  C5  UNL     1      -5.403  15.184   5.783  1.00  0.00     0.077 A
HETATM    4  C6  UNL     1      -5.330  15.650   7.093  1.00  0.00     0.037 A
HETATM    5  C7  UNL     1      -4.435  16.636   7.431  1.00  0.00     0.003 A
HETATM    6  C8  UNL     1      -3.612  17.156   6.454  1.00  0.00     0.001 A
HETATM    7  C9  UNL     1      -3.693  16.685   5.149  1.00  0.00     0.012 A
HETATM    8  C10 UNL     1      -4.586  15.700   4.805  1.00  0.00     0.008 A
HETATM    9  C11 UNL     1      -4.893  15.013   3.539  1.00  0.00     0.249 C
ENDROOT
BRANCH   1  10
HETATM   10  C3  UNL     1      -7.380  15.161   3.392  1.00  0.00     0.148 C
BRANCH  10  11
HETATM   11  N2  UNL     1      -7.968  14.649   2.167  1.00  0.00    -0.234 NA
BRANCH  11  12
HETATM   12  C2  UNL     1      -7.365  13.413   1.784  1.00  0.00     0.140 C
BRANCH  12  13
HETATM   13  C1  UNL     1      -8.034  12.682   0.670  1.00  0.00     0.245 C
BRANCH  13  14
HETATM   14  N1  UNL     1      -7.720  13.188  -0.633  1.00  0.00    -0.078 N
ATOM     15  H13 UNL     1      -8.126  12.592  -1.354  1.00  0.00     0.274 HD
ATOM     16  H12 UNL     1      -8.231  14.051  -0.814  1.00  0.00     0.274 HD
ATOM     17  H11 UNL     1      -6.722  13.321  -0.798  1.00  0.00     0.274 HD
ENDBRANCH  13  14
ENDBRANCH  12  13
ENDBRANCH  11  12
BRANCH  11  18
HETATM   18  N3  UNL     1      -7.791  15.578   1.147  1.00  0.00    -0.363 NA
ATOM     19  H32 UNL     1      -7.740  16.514   1.548  1.00  0.00     0.171 HD
ATOM     20  H31 UNL     1      -6.941  15.351   0.632  1.00  0.00     0.171 HD
ENDBRANCH  11  18
ENDBRANCH  10  11
ENDBRANCH   1  10
BRANCH   9  21
HETATM   21  N4  UNL     1      -4.975  15.940   2.423  1.00  0.00    -0.068 N
ATOM     22  H43 UNL     1      -5.482  16.785   2.687  1.00  0.00     0.275 HD
ATOM     23  H42 UNL     1      -4.063  16.350   2.221  1.00  0.00     0.275 HD
ATOM     24  H41 UNL     1      -5.379  15.518   1.587  1.00  0.00     0.275 HD
ENDBRANCH   9  21
TORSDOF 7
ENDMDL