MODEL 3
REMARK VINA RESULT: -5.500325244      2.585      5.656
REMARK  5 active torsions:
REMARK  status: ('A' for Active; 'I' for Inactive)
REMARK    1  A    between atoms: C3_9  and  C4_10
REMARK    2  A    between atoms: C4_10  and  C5_11
REMARK    3  A    between atoms: C5_11  and  C6_12
REMARK    4  A    between atoms: C6_12  and  C7_13
REMARK    5  A    between atoms: C7_13  and  N4_14
ROOT
HETATM    1  N1  UNL     1      -3.120  15.544   8.660  1.00  0.00    -0.063 NA
HETATM    2  C1  UNL     1      -3.465  15.886   7.312  1.00  0.00     0.193 C
HETATM    3  N2  UNL     1      -2.748  16.726   6.632  1.00  0.00    -0.283 N
ATOM      4  H2  UNL     1      -1.924  17.160   7.047  1.00  0.00     0.173 HD
HETATM    5  C2  UNL     1      -3.132  17.033   5.297  1.00  0.00     0.324 C
HETATM    6  O1  UNL     1      -2.428  17.852   4.643  1.00  0.00    -0.247 OA
HETATM    7  N3  UNL     1      -4.284  16.415   4.749  1.00  0.00    -0.322 N
ATOM      8  H3  UNL     1      -4.402  16.337   3.739  1.00  0.00     0.166 HD
HETATM    9  C3  UNL     1      -5.272  15.906   5.641  1.00  0.00     0.188 C
HETATM   10  N5  UNL     1      -4.605  15.273   6.760  1.00  0.00    -0.343 N
ATOM     11  H5  UNL     1      -4.956  14.395   7.143  1.00  0.00     0.164 HD
ENDROOT
BRANCH   9  12
HETATM   12  C4  UNL     1      -6.169  14.863   5.014  1.00  0.00     0.047 C
BRANCH  12  13
HETATM   13  C5  UNL     1      -7.226  15.431   4.143  1.00  0.00     0.006 C
BRANCH  13  14
HETATM   14  C6  UNL     1      -6.900  15.118   2.709  1.00  0.00     0.026 C
BRANCH  14  15
HETATM   15  C7  UNL     1      -6.629  13.660   2.460  1.00  0.00     0.201 C
BRANCH  15  16
HETATM   16  N4  UNL     1      -7.439  13.293   1.293  1.00  0.00    -0.156 N
HETATM   17  O2  UNL     1      -8.385  14.053   1.019  1.00  0.00    -0.537 OA
HETATM   18  O3  UNL     1      -7.194  12.197   0.542  1.00  0.00    -0.537 OA
ENDBRANCH  15  16
ENDBRANCH  14  15
ENDBRANCH  13  14
ENDBRANCH  12  13
ENDBRANCH   9  12
TORSDOF 5
ENDMDL