MODEL 3
REMARK VINA RESULT: -5.218613575     16.967     20.347
REMARK  6 active torsions:
REMARK  status: ('A' for Active; 'I' for Inactive)
REMARK    1  A    between atoms: N1_2  and  C2_5
REMARK    2  A    between atoms: C2_5  and  C3_6
REMARK    3  A    between atoms: C8_11  and  O1_12
REMARK    4  A    between atoms: C17_24  and  C18_25
REMARK    5  A    between atoms: C19_26  and  C21_28
REMARK    6  A    between atoms: C21_28  and  C22_29
ROOT
HETATM    1  C3  UNL     1      59.299   9.454  59.776  1.00  0.00     0.050 C
HETATM    2  C4  UNL     1      60.270  10.594  59.916  1.00  0.00     0.010 C
HETATM    3  C5  UNL     1      59.760  11.928  59.506  1.00  0.00     0.006 C
HETATM    4  C6  UNL     1      58.287  12.095  59.480  1.00  0.00    -0.001 C
HETATM    5  C7  UNL     1      57.993  13.546  59.821  1.00  0.00     0.037 C
HETATM    6  C8  UNL     1      56.561  13.862  59.943  1.00  0.00     0.118 C
HETATM    7  C9  UNL     1      55.632  12.717  60.071  1.00  0.00     0.032 C
HETATM    8  C10 UNL     1      56.213  11.500  60.761  1.00  0.00     0.015 C
HETATM    9  C11 UNL     1      57.573  11.125  60.391  1.00  0.00    -0.005 C
HETATM   10  C12 UNL     1      58.362  11.192  61.729  1.00  0.00     0.019 C
HETATM   11  C13 UNL     1      57.834   9.755  59.814  1.00  0.00     0.106 C
HETATM   12  O2  UNL     1      57.175   8.965  60.823  1.00  0.00    -0.341 OA
HETATM   13  C14 UNL     1      56.914   7.739  60.271  1.00  0.00     0.159 C
HETATM   14  C15 UNL     1      55.409   7.501  60.389  1.00  0.00     0.078 C
HETATM   15  C16 UNL     1      57.557   6.598  60.981  1.00  0.00     0.078 C
HETATM   16  O3  UNL     1      57.185   7.831  58.918  1.00  0.00    -0.344 OA
HETATM   17  C17 UNL     1      57.149   9.245  58.649  1.00  0.00     0.184 C
ENDROOT
BRANCH   1  18
HETATM   18  C2  UNL     1      59.881   8.548  58.765  1.00  0.00     0.239 C
BRANCH  18  19
HETATM   19  N1  UNL     1      60.948   7.675  59.183  1.00  0.00    -0.079 N
HETATM   20  C1  UNL     1      60.555   6.261  59.099  1.00  0.00     0.267 C
ATOM     21  H12 UNL     1      61.280   7.914  60.117  1.00  0.00     0.276 HD
ATOM     22  H11 UNL     1      61.804   7.856  58.659  1.00  0.00     0.276 HD
ENDBRANCH  18  19
ENDBRANCH   1  18
BRANCH  17  23
HETATM   23  C18 UNL     1      55.829   9.492  58.194  1.00  0.00     0.010 C
HETATM   24  C19 UNL     1      55.570  10.289  57.169  1.00  0.00    -0.085 C
HETATM   25  C20 UNL     1      54.146  10.512  56.734  1.00  0.00     0.043 C
BRANCH  24  26
HETATM   26  C21 UNL     1      56.631  10.938  56.405  1.00  0.00     0.037 C
BRANCH  26  27
HETATM   27  C22 UNL     1      56.262  12.198  55.665  1.00  0.00    -0.019 C
HETATM   28  C23 UNL     1      57.430  13.180  55.952  1.00  0.00     0.010 C
HETATM   29  C24 UNL     1      56.359  11.947  54.177  1.00  0.00     0.010 C
ENDBRANCH  26  27
ENDBRANCH  24  26
ENDBRANCH  17  23
BRANCH   6  30
HETATM   30  O1  UNL     1      56.371  14.733  61.029  1.00  0.00    -0.396 OA
ATOM     31  H1  UNL     1      56.207  14.222  61.813  1.00  0.00     0.210 HD
ENDBRANCH   6  30
TORSDOF 6
ENDMDL