MODEL 4
REMARK VINA RESULT: -8.150316710      3.549      8.803
REMARK  7 active torsions:
REMARK  status: ('A' for Active; 'I' for Inactive)
REMARK    1  A    between atoms: C2_2  and  C4_4
REMARK    2  A    between atoms: C6_6  and  C7_7
REMARK    3  A    between atoms: C7_7  and  C8_8
REMARK    4  A    between atoms: C8_8  and  C9_9
REMARK    5  A    between atoms: C9_9  and  C10_10
REMARK    6  A    between atoms: C10_10  and  O1_11
REMARK    7  A    between atoms: C18_20  and  O2_21
ROOT
HETATM    1  C9  UNL     1      57.950  14.541  49.565  1.00  0.00    -0.011 C
HETATM    2  C11 UNL     1      57.960  15.813  50.407  1.00  0.00     0.013 C
HETATM    3  C12 UNL     1      59.344  16.341  50.078  1.00  0.00     0.007 C
HETATM    4  C13 UNL     1      59.242  16.352  48.561  1.00  0.00     0.003 C
HETATM    5  C14 UNL     1      60.546  16.504  47.880  1.00  0.00    -0.036 C
HETATM    6  C15 UNL     1      61.694  15.812  48.558  1.00  0.00     0.016 C
HETATM    7  C16 UNL     1      60.913  18.004  47.953  1.00  0.00     0.012 C
HETATM    8  C17 UNL     1      62.118  18.309  47.107  1.00  0.00     0.032 C
HETATM    9  C18 UNL     1      61.795  17.931  45.680  1.00  0.00     0.118 C
HETATM   10  C19 UNL     1      61.679  16.421  45.644  1.00  0.00     0.037 C
HETATM   11  C20 UNL     1      60.425  16.100  46.444  1.00  0.00    -0.004 C
HETATM   12  C21 UNL     1      59.976  14.697  46.308  1.00  0.00     0.006 C
HETATM   13  C22 UNL     1      59.181  14.124  47.414  1.00  0.00     0.011 C
HETATM   14  C23 UNL     1      58.444  15.117  48.255  1.00  0.00    -0.030 C
HETATM   15  C24 UNL     1      57.194  15.575  47.508  1.00  0.00     0.016 C
ENDROOT
BRANCH   1  16
HETATM   16  C8  UNL     1      58.812  13.501  50.154  1.00  0.00     0.018 C
BRANCH  16  17
HETATM   17  C7  UNL     1      59.060  13.682  51.614  1.00  0.00     0.060 C
BRANCH  17  18
HETATM   18  C6  UNL     1      58.002  13.028  52.441  1.00  0.00     0.035 A
HETATM   19  C5  UNL     1      57.367  13.426  53.571  1.00  0.00     0.062 A
HETATM   20  C4  UNL     1      56.474  12.438  53.914  1.00  0.00     0.081 A
HETATM   21  O3  UNL     1      56.594  11.501  53.009  1.00  0.00    -0.242 OA
HETATM   22  N1  UNL     1      57.489  11.828  52.133  1.00  0.00    -0.265 N
ATOM     23  H1  UNL     1      57.762  11.261  51.330  1.00  0.00     0.194 HD
BRANCH  20  24
HETATM   24  C2  UNL     1      55.538  12.408  55.085  1.00  0.00     0.037 C
HETATM   25  C1  UNL     1      55.452  10.967  55.539  1.00  0.00     0.016 C
HETATM   26  C3  UNL     1      56.161  13.191  56.248  1.00  0.00     0.016 C
ENDBRANCH  20  24
ENDBRANCH  17  18
ENDBRANCH  16  17
ENDBRANCH   1  16
BRANCH   1  27
HETATM   27  C10 UNL     1      56.540  13.979  49.472  1.00  0.00     0.174 C
BRANCH  27  28
HETATM   28  O1  UNL     1      56.549  12.607  49.246  1.00  0.00    -0.400 OA
ATOM     29  H1  UNL     1      56.780  12.125  50.032  1.00  0.00     0.209 HD
ENDBRANCH  27  28
ENDBRANCH   1  27
BRANCH   9  30
HETATM   30  O2  UNL     1      62.719  18.414  44.769  1.00  0.00    -0.396 OA
ATOM     31  H2  UNL     1      63.416  18.913  45.177  1.00  0.00     0.210 HD
ENDBRANCH   9  30
TORSDOF 7
ENDMDL