MODEL 5
REMARK VINA RESULT: -5.334098503      1.838      5.382
REMARK  8 active torsions:
REMARK  status: ('A' for Active; 'I' for Inactive)
REMARK    1  A    between atoms: C2_2  and  C3_3
REMARK    2  A    between atoms: C3_3  and  C4_5
REMARK    3  A    between atoms: C8_9  and  O2_10
REMARK    4  A    between atoms: C11_14  and  C12_15
REMARK    5  A    between atoms: C13_16  and  C14_17
REMARK    6  A    between atoms: C14_17  and  C17_20
REMARK    7  A    between atoms: C17_20  and  O3_21
REMARK    8  A    between atoms: C18_24  and  C19_25
ROOT
HETATM    1  C4  UNL     1      56.241  11.943  57.081  1.00  0.00     0.039 C
HETATM    2  C5  UNL     1      56.473  10.532  56.575  1.00  0.00     0.050 C
HETATM    3  C6  UNL     1      56.183   9.605  57.681  1.00  0.00     0.126 C
HETATM    4  C7  UNL     1      56.706  10.046  59.061  1.00  0.00     0.071 C
HETATM    5  C8  UNL     1      57.639  11.107  58.860  1.00  0.00     0.072 C
HETATM    6  C9  UNL     1      58.405  11.992  59.680  1.00  0.00     0.040 C
HETATM    7  C10 UNL     1      58.273  12.893  58.413  1.00  0.00     0.021 C
HETATM    8  C11 UNL     1      56.883  12.300  58.346  1.00  0.00     0.023 C
HETATM    9  O4  UNL     1      54.791   9.520  57.770  1.00  0.00    -0.380 OA
HETATM   10  C18 UNL     1      54.147  10.706  57.877  1.00  0.00     0.130 C
HETATM   11  C23 UNL     1      54.716  11.934  57.302  1.00  0.00     0.051 C
ENDROOT
BRANCH   8  12
HETATM   12  C12 UNL     1      56.056  13.114  59.196  1.00  0.00    -0.016 C
HETATM   13  C13 UNL     1      55.616  14.330  59.187  1.00  0.00    -0.019 C
BRANCH  13  14
HETATM   14  C14 UNL     1      54.744  14.933  60.229  1.00  0.00    -0.009 C
HETATM   15  C15 UNL     1      55.583  15.653  61.274  1.00  0.00     0.021 C
HETATM   16  C16 UNL     1      53.898  13.929  60.963  1.00  0.00     0.021 C
BRANCH  14  17
HETATM   17  C17 UNL     1      53.803  15.965  59.641  1.00  0.00     0.176 C
BRANCH  17  18
HETATM   18  O3  UNL     1      54.458  16.849  58.785  1.00  0.00    -0.400 OA
ATOM     19  H3  UNL     1      54.373  16.597  57.873  1.00  0.00     0.209 HD
ENDBRANCH  17  18
ENDBRANCH  14  17
ENDBRANCH  13  14
ENDBRANCH   8  12
BRANCH   1  20
HETATM   20  C3  UNL     1      56.506  12.938  56.017  1.00  0.00     0.136 C
HETATM   21  O1  UNL     1      55.790  13.956  55.992  1.00  0.00    -0.297 OA
BRANCH  20  22
HETATM   22  C2  UNL     1      57.545  12.844  54.975  1.00  0.00     0.074 C
HETATM   23  C1  UNL     1      56.982  13.183  53.594  1.00  0.00     0.013 C
ENDBRANCH  20  22
ENDBRANCH   1  20
BRANCH   5  24
HETATM   24  O2  UNL     1      58.617  10.621  57.935  1.00  0.00    -0.389 OA
ATOM     25  H2  UNL     1      59.394  10.421  58.443  1.00  0.00     0.210 HD
ENDBRANCH   5  24
BRANCH  10  26
HETATM   26  C19 UNL     1      52.705  10.516  57.384  1.00  0.00    -0.025 C
HETATM   27  C20 UNL     1      52.604   9.328  56.456  1.00  0.00     0.017 C
HETATM   28  C21 UNL     1      52.337  11.752  56.548  1.00  0.00     0.017 C
HETATM   29  C22 UNL     1      51.697  10.392  58.459  1.00  0.00     0.017 C
ENDBRANCH  10  26
TORSDOF 8
ENDMDL