MODEL 4
REMARK VINA RESULT: -6.173085407      2.590      6.704
REMARK  6 active torsions:
REMARK  status: ('A' for Active; 'I' for Inactive)
REMARK    1  A    between atoms: C2_2  and  C3_3
REMARK    2  A    between atoms: C3_3  and  C4_4
REMARK    3  A    between atoms: C4_4  and  C5_5
REMARK    4  A    between atoms: C13_15  and  O3_16
REMARK    5  A    between atoms: C17_21  and  C18_22
REMARK    6  A    between atoms: C18_22  and  O4_25
ROOT
HETATM    1  C5  UNL     1      57.020  11.444  59.867  1.00  0.00     0.093 C
HETATM    2  C6  UNL     1      57.659  12.776  59.909  1.00  0.00     0.264 C
HETATM    3  O1  UNL     1      58.043  13.508  60.861  1.00  0.00    -0.265 OA
HETATM    4  O2  UNL     1      57.833  13.243  58.577  1.00  0.00    -0.309 OA
HETATM    5  C7  UNL     1      56.688  12.642  57.936  1.00  0.00     0.076 C
HETATM    6  C8  UNL     1      55.512  13.314  58.501  1.00  0.00     0.047 C
HETATM    7  C9  UNL     1      56.950  11.226  58.385  1.00  0.00     0.045 C
HETATM    8  C10 UNL     1      56.094  10.202  57.822  1.00  0.00    -0.014 C
HETATM    9  C11 UNL     1      55.022   9.655  58.782  1.00  0.00     0.018 C
HETATM   10  C12 UNL     1      56.973   8.958  57.558  1.00  0.00     0.018 C
HETATM   11  C13 UNL     1      55.379  10.524  56.547  1.00  0.00     0.135 C
HETATM   12  C14 UNL     1      55.808  11.753  55.813  1.00  0.00    -0.010 C
HETATM   13  C15 UNL     1      54.509  12.521  55.497  1.00  0.00     0.018 C
HETATM   14  C16 UNL     1      56.372  11.417  54.419  1.00  0.00     0.020 C
HETATM   15  C17 UNL     1      57.383  12.371  53.937  1.00  0.00     0.020 C
HETATM   16  C21 UNL     1      57.250  13.786  54.369  1.00  0.00     0.008 C
HETATM   17  C22 UNL     1      56.844  13.968  55.805  1.00  0.00     0.009 C
HETATM   18  C23 UNL     1      56.817  12.625  56.459  1.00  0.00     0.032 C
ENDROOT
BRANCH  15  19
HETATM   19  C18 UNL     1      57.499  12.324  52.428  1.00  0.00     0.054 C
HETATM   20  C19 UNL     1      56.164  12.438  51.728  1.00  0.00     0.045 C
HETATM   21  C20 UNL     1      58.377  13.431  51.891  1.00  0.00     0.045 C
BRANCH  19  22
HETATM   22  O4  UNL     1      58.062  11.118  51.993  1.00  0.00    -0.390 OA
ATOM     23  H4  UNL     1      58.101  11.075  51.046  1.00  0.00     0.210 HD
ENDBRANCH  19  22
ENDBRANCH  15  19
BRANCH  11  24
HETATM   24  O3  UNL     1      53.966  10.449  56.694  1.00  0.00    -0.394 OA
ATOM     25  H3  UNL     1      53.619   9.622  56.381  1.00  0.00     0.210 HD
ENDBRANCH  11  24
BRANCH   1  26
HETATM   26  C4  UNL     1      57.850  10.458  60.588  1.00  0.00     0.015 C
BRANCH  26  27
HETATM   27  C3  UNL     1      59.315  10.709  60.382  1.00  0.00     0.001 C
BRANCH  27  28
HETATM   28  C2  UNL     1      59.958   9.648  59.514  1.00  0.00    -0.005 C
HETATM   29  C1  UNL     1      60.440  10.270  58.208  1.00  0.00     0.005 C
ENDBRANCH  27  28
ENDBRANCH  26  27
ENDBRANCH   1  26
TORSDOF 6
ENDMDL