MODEL 2
REMARK VINA RESULT: -6.414113690     14.278     17.623
REMARK  6 active torsions:
REMARK  status: ('A' for Active; 'I' for Inactive)
REMARK    1  A    between atoms: C2_2  and  C3_4
REMARK    2  A    between atoms: C3_4  and  C4_5
REMARK    3  A    between atoms: C4_5  and  C5_6
REMARK    4  A    between atoms: C5_6  and  O2_7
REMARK    5  A    between atoms: C21_25  and  C23_27
REMARK    6  A    between atoms: C23_27  and  O4_28
ROOT
HETATM    1  C5  UNL     1      63.665  23.005  48.540  1.00  0.00     0.063 C
HETATM    2  C6  UNL     1      62.291  23.760  48.842  1.00  0.00     0.042 C
HETATM    3  C7  UNL     1      61.579  23.773  47.558  1.00  0.00     0.036 C
HETATM    4  C8  UNL     1      60.609  24.820  47.227  1.00  0.00    -0.087 C
HETATM    5  C9  UNL     1      59.208  24.261  46.900  1.00  0.00     0.043 C
HETATM    6  C10 UNL     1      60.702  26.120  47.158  1.00  0.00    -0.024 C
HETATM    7  C11 UNL     1      61.818  27.037  47.388  1.00  0.00     0.030 C
HETATM    8  C12 UNL     1      62.493  27.702  46.287  1.00  0.00     0.044 C
HETATM    9  C13 UNL     1      62.960  27.078  45.066  1.00  0.00     0.084 A
HETATM   10  C14 UNL     1      62.776  27.834  43.723  1.00  0.00     0.049 C
HETATM   11  O3  UNL     1      62.823  25.753  44.893  1.00  0.00    -0.370 OA
HETATM   12  C15 UNL     1      64.100  26.114  45.073  1.00  0.00     0.157 A
HETATM   13  C16 UNL     1      64.957  26.258  46.230  1.00  0.00     0.040 C
HETATM   14  C17 UNL     1      65.930  25.270  46.672  1.00  0.00    -0.001 C
HETATM   15  C18 UNL     1      66.292  25.540  48.132  1.00  0.00     0.006 C
HETATM   16  C19 UNL     1      65.370  24.661  48.947  1.00  0.00     0.009 C
HETATM   17  C20 UNL     1      64.506  23.921  47.877  1.00  0.00     0.030 C
HETATM   18  C21 UNL     1      65.491  23.797  46.835  1.00  0.00    -0.013 C
HETATM   19  C22 UNL     1      65.175  23.190  45.519  1.00  0.00     0.018 C
ENDROOT
BRANCH   1  20
HETATM   20  C4  UNL     1      63.185  21.704  48.079  1.00  0.00     0.045 C
BRANCH  20  21
HETATM   21  C3  UNL     1      63.706  20.466  48.776  1.00  0.00     0.081 C
BRANCH  21  22
HETATM   22  C2  UNL     1      62.780  19.298  48.502  1.00  0.00     0.123 C
HETATM   23  C1  UNL     1      62.732  18.127  49.403  1.00  0.00     0.091 C
HETATM   24  O1  UNL     1      62.088  19.387  47.507  1.00  0.00    -0.298 OA
ENDBRANCH  21  22
ENDBRANCH  20  21
ENDBRANCH   1  20
BRANCH   1  25
HETATM   25  O2  UNL     1      64.096  22.806  49.895  1.00  0.00    -0.389 OA
ATOM     26  H2  UNL     1      63.426  23.201  50.441  1.00  0.00     0.210 HD
ENDBRANCH   1  25
BRANCH  18  27
HETATM   27  C23 UNL     1      66.842  23.179  47.216  1.00  0.00     0.174 C
BRANCH  27  28
HETATM   28  O4  UNL     1      66.738  21.764  47.138  1.00  0.00    -0.400 OA
ATOM     29  H4  UNL     1      66.308  21.532  46.323  1.00  0.00     0.209 HD
ENDBRANCH  27  28
ENDBRANCH  18  27
TORSDOF 6
ENDMDL