MODEL 3
REMARK VINA RESULT: -5.775273062     16.996     19.958
REMARK  7 active torsions:
REMARK  status: ('A' for Active; 'I' for Inactive)
REMARK    1  A    between atoms: C2_2  and  C3_3
REMARK    2  A    between atoms: C3_3  and  C4_4
REMARK    3  A    between atoms: C4_4  and  C5_5
REMARK    4  A    between atoms: C5_5  and  O1_6
REMARK    5  A    between atoms: C6_8  and  O2_9
REMARK    6  A    between atoms: C15_19  and  C16_20
REMARK    7  A    between atoms: C16_20  and  C17_21
ROOT
HETATM    1  C5  UNL     1      54.630  13.183  57.652  1.00  0.00     0.091 C
HETATM    2  C6  UNL     1      53.884  14.438  57.867  1.00  0.00     0.153 C
HETATM    3  C7  UNL     1      53.118  14.573  59.127  1.00  0.00     0.039 C
HETATM    4  C8  UNL     1      53.490  13.597  60.190  1.00  0.00    -0.011 C
HETATM    5  C9  UNL     1      54.690  14.096  60.910  1.00  0.00     0.010 C
HETATM    6  C10 UNL     1      53.462  12.234  59.671  1.00  0.00     0.001 C
HETATM    7  C11 UNL     1      54.063  11.197  60.639  1.00  0.00     0.011 C
HETATM    8  C12 UNL     1      54.168  10.116  59.659  1.00  0.00    -0.009 C
HETATM    9  C13 UNL     1      55.080   8.976  59.913  1.00  0.00     0.005 C
HETATM   10  C14 UNL     1      55.090   8.503  58.446  1.00  0.00     0.005 C
HETATM   11  C15 UNL     1      55.390   9.819  57.705  1.00  0.00    -0.006 C
HETATM   12  C22 UNL     1      55.012  10.891  58.616  1.00  0.00     0.005 C
HETATM   13  C23 UNL     1      54.030  11.954  58.304  1.00  0.00    -0.002 C
HETATM   14  C24 UNL     1      52.939  11.496  57.355  1.00  0.00     0.019 C
ENDROOT
BRANCH  11  15
HETATM   15  C16 UNL     1      56.842   9.867  57.298  1.00  0.00     0.041 C
BRANCH  15  16
HETATM   16  C17 UNL     1      57.814  10.524  58.161  1.00  0.00     0.154 C
HETATM   17  C18 UNL     1      58.539   9.513  58.999  1.00  0.00     0.002 C
HETATM   18  C19 UNL     1      59.755   9.708  59.440  1.00  0.00    -0.018 C
HETATM   19  C20 UNL     1      60.450  10.964  59.108  1.00  0.00     0.138 C
HETATM   20  C21 UNL     1      59.949  11.622  57.886  1.00  0.00     0.262 C
HETATM   21  O3  UNL     1      60.602  12.599  57.443  1.00  0.00    -0.265 OA
HETATM   22  O4  UNL     1      58.800  11.117  57.317  1.00  0.00    -0.312 OA
ENDBRANCH  15  16
ENDBRANCH  11  15
BRANCH   1  23
HETATM   23  C4  UNL     1      54.733  13.009  56.152  1.00  0.00     0.041 C
BRANCH  23  24
HETATM   24  C3  UNL     1      56.121  13.145  55.622  1.00  0.00     0.003 C
BRANCH  24  25
HETATM   25  C2  UNL     1      56.300  12.271  54.396  1.00  0.00    -0.004 C
HETATM   26  C1  UNL     1      57.036  12.988  53.298  1.00  0.00     0.005 C
ENDBRANCH  24  25
ENDBRANCH  23  24
ENDBRANCH   1  23
BRANCH   1  27
HETATM   27  O1  UNL     1      55.920  13.320  58.184  1.00  0.00    -0.386 OA
ATOM     28  H1  UNL     1      55.935  14.069  58.768  1.00  0.00     0.210 HD
ENDBRANCH   1  27
BRANCH   2  29
HETATM   29  O2  UNL     1      52.934  14.725  56.848  1.00  0.00    -0.393 OA
ATOM     30  H2  UNL     1      52.064  14.919  57.176  1.00  0.00     0.210 HD
ENDBRANCH   2  29
TORSDOF 7
ENDMDL