MODEL 1
REMARK VINA RESULT: -6.909806412      0.000      0.000
REMARK  7 active torsions:
REMARK  status: ('A' for Active; 'I' for Inactive)
REMARK    1  A    between atoms: C2_2  and  C3_3
REMARK    2  A    between atoms: C5_5  and  C6_6
REMARK    3  A    between atoms: C8_8  and  O1_9
REMARK    4  A    between atoms: C9_11  and  C10_12
REMARK    5  A    between atoms: C15_18  and  N2_19
REMARK    6  A    between atoms: N2_19  and  C17_21
REMARK    7  A    between atoms: C23_27  and  O2_28
ROOT
HETATM    1  C6  UNL     1      56.943  13.069  54.236  1.00  0.00    -0.031 A
HETATM    2  C7  UNL     1      56.903  11.682  54.529  1.00  0.00     0.049 A
HETATM    3  C8  UNL     1      56.239  11.199  55.628  1.00  0.00     0.080 A
HETATM    4  C9  UNL     1      55.589  12.028  56.502  1.00  0.00     0.040 A
HETATM    5  C23 UNL     1      55.651  13.390  56.173  1.00  0.00     0.080 A
HETATM    6  C24 UNL     1      56.307  13.901  55.075  1.00  0.00     0.049 A
ENDROOT
BRANCH   4   7
HETATM    7  C10 UNL     1      55.045  11.645  57.759  1.00  0.00    -0.008 C
HETATM    8  C11 UNL     1      53.549  11.148  57.568  1.00  0.00     0.157 C
HETATM    9  N1  UNL     1      53.609   9.727  57.660  1.00  0.00    -0.412 N
HETATM   10  C12 UNL     1      52.773   9.012  56.833  1.00  0.00     0.143 C
HETATM   11  C13 UNL     1      53.898   9.187  58.937  1.00  0.00     0.122 C
HETATM   12  C14 UNL     1      54.481  10.373  59.741  1.00  0.00     0.071 C
HETATM   13  C15 UNL     1      55.583  11.059  58.929  1.00  0.00    -0.002 C
BRANCH  13  14
HETATM   14  N2  UNL     1      56.572  11.622  59.781  1.00  0.00    -0.286 NA
HETATM   15  C16 UNL     1      56.186  11.642  61.180  1.00  0.00     0.117 C
BRANCH  14  16
HETATM   16  C17 UNL     1      57.864  10.954  59.794  1.00  0.00     0.062 C
HETATM   17  C18 UNL     1      58.250  10.125  58.642  1.00  0.00     0.020 C
HETATM   18  C19 UNL     1      59.519  10.569  57.950  1.00  0.00     0.002 C
HETATM   19  C20 UNL     1      59.267  11.954  57.430  1.00  0.00     0.000 C
HETATM   20  C21 UNL     1      58.914  12.827  58.632  1.00  0.00     0.002 C
HETATM   21  C22 UNL     1      58.931  12.028  59.909  1.00  0.00     0.020 C
ENDBRANCH  14  16
ENDBRANCH  13  14
ENDBRANCH   4   7
BRANCH   3  22
HETATM   22  O1  UNL     1      56.241   9.810  55.791  1.00  0.00    -0.360 OA
ATOM     23  H1  UNL     1      57.088   9.406  55.940  1.00  0.00     0.217 HD
ENDBRANCH   3  22
BRANCH   5  24
HETATM   24  O2  UNL     1      55.007  14.315  57.002  1.00  0.00    -0.360 OA
ATOM     25  H2  UNL     1      54.622  15.091  56.612  1.00  0.00     0.217 HD
ENDBRANCH   5  24
BRANCH   1  26
HETATM   26  C5  UNL     1      57.737  13.492  53.105  1.00  0.00     0.014 C
HETATM   27  C3  UNL     1      57.640  13.291  51.850  1.00  0.00    -0.083 C
HETATM   28  C4  UNL     1      56.602  12.487  51.150  1.00  0.00     0.043 C
BRANCH  27  29
HETATM   29  C2  UNL     1      58.675  13.887  50.912  1.00  0.00     0.029 C
HETATM   30  C1  UNL     1      58.657  15.381  50.918  1.00  0.00     0.010 C
ENDBRANCH  27  29
ENDBRANCH   1  26
TORSDOF 7
ENDMDL