MODEL 4
REMARK VINA RESULT: -7.235969673      2.582      3.319
REMARK  7 active torsions:
REMARK  status: ('A' for Active; 'I' for Inactive)
REMARK    1  A    between atoms: C2_2  and  C4_4
REMARK    2  A    between atoms: C4_4  and  C5_5
REMARK    3  A    between atoms: C5_5  and  C6_6
REMARK    4  A    between atoms: C6_6  and  C7_7
REMARK    5  A    between atoms: C7_7  and  C8_8
REMARK    6  A    between atoms: C8_8  and  O1_9
REMARK    7  A    between atoms: C21_25  and  O4_26
ROOT
HETATM    1  C7  UNL     1      58.340  15.417  48.208  1.00  0.00    -0.015 C
HETATM    2  C9  UNL     1      59.005  15.002  46.902  1.00  0.00     0.012 C
HETATM    3  C10 UNL     1      60.491  14.811  47.238  1.00  0.00     0.006 C
HETATM    4  C11 UNL     1      60.601  15.094  48.669  1.00  0.00    -0.005 C
HETATM    5  C12 UNL     1      59.452  15.999  49.055  1.00  0.00     0.001 C
HETATM    6  C13 UNL     1      59.729  17.415  48.639  1.00  0.00     0.007 C
HETATM    7  C14 UNL     1      61.030  17.945  49.174  1.00  0.00     0.014 C
HETATM    8  C15 UNL     1      62.200  17.052  48.902  1.00  0.00    -0.012 C
HETATM    9  C16 UNL     1      62.684  17.292  47.498  1.00  0.00     0.021 C
HETATM   10  C17 UNL     1      63.304  17.458  49.804  1.00  0.00    -0.013 C
HETATM   11  C18 UNL     1      63.311  18.665  50.335  1.00  0.00    -0.008 C
HETATM   12  C19 UNL     1      64.350  19.202  51.251  1.00  0.00     0.138 C
HETATM   13  C20 UNL     1      65.158  18.116  51.796  1.00  0.00     0.265 C
HETATM   14  O2  UNL     1      66.124  18.392  52.562  1.00  0.00    -0.265 OA
HETATM   15  O3  UNL     1      64.822  16.817  51.445  1.00  0.00    -0.279 OA
HETATM   16  C21 UNL     1      64.405  16.527  50.108  1.00  0.00     0.196 C
HETATM   17  C22 UNL     1      64.062  15.072  50.032  1.00  0.00     0.074 C
HETATM   18  C23 UNL     1      63.053  14.710  48.995  1.00  0.00     0.011 C
HETATM   19  C24 UNL     1      61.866  15.631  49.207  1.00  0.00     0.003 C
ENDROOT
BRANCH   1  20
HETATM   20  C6  UNL     1      57.734  14.178  48.803  1.00  0.00     0.012 C
BRANCH  20  21
HETATM   21  C5  UNL     1      57.759  14.119  50.292  1.00  0.00     0.001 C
BRANCH  21  22
HETATM   22  C4  UNL     1      56.870  12.949  50.706  1.00  0.00     0.004 C
BRANCH  22  23
HETATM   23  C2  UNL     1      57.366  12.354  52.010  1.00  0.00    -0.023 C
HETATM   24  C1  UNL     1      56.445  12.691  53.156  1.00  0.00     0.009 C
HETATM   25  C3  UNL     1      58.771  12.834  52.268  1.00  0.00     0.009 C
ENDBRANCH  22  23
ENDBRANCH  21  22
ENDBRANCH  20  21
ENDBRANCH   1  20
BRANCH   1  26
HETATM   26  C8  UNL     1      57.257  16.458  47.948  1.00  0.00     0.173 C
BRANCH  26  27
HETATM   27  O1  UNL     1      57.296  16.907  46.649  1.00  0.00    -0.400 OA
ATOM     28  H1  UNL     1      57.317  17.857  46.611  1.00  0.00     0.209 HD
ENDBRANCH  26  27
ENDBRANCH   1  26
BRANCH  16  29
HETATM   29  O4  UNL     1      65.501  16.717  49.253  1.00  0.00    -0.361 OA
ATOM     30  H4  UNL     1      65.250  17.154  48.447  1.00  0.00     0.213 HD
ENDBRANCH  16  29
TORSDOF 7
ENDMDL