MODEL 4
REMARK VINA RESULT: -7.987960938      0.920      1.067
REMARK  8 active torsions:
REMARK  status: ('A' for Active; 'I' for Inactive)
REMARK    1  A    between atoms: C5_5  and  C6_6
REMARK    2  A    between atoms: C6_6  and  O1_7
REMARK    3  A    between atoms: O1_7  and  C7_8
REMARK    4  A    between atoms: C10_11  and  C11_12
REMARK    5  A    between atoms: C21_22  and  O2_23
REMARK    6  A    between atoms: C22_25  and  C23_26
REMARK    7  A    between atoms: C23_26  and  O3_27
REMARK    8  A    between atoms: C23_26  and  O4_29
ROOT
HETATM    1  C7  UNL     1      65.173  20.281  50.074  1.00  0.00     0.082 A
HETATM    2  C8  UNL     1      64.962  19.072  50.676  1.00  0.00     0.038 A
HETATM    3  C9  UNL     1      63.935  18.269  50.242  1.00  0.00     0.013 A
HETATM    4  C10 UNL     1      63.080  18.588  49.228  1.00  0.00    -0.015 A
HETATM    5  C21 UNL     1      63.298  19.840  48.604  1.00  0.00     0.086 A
HETATM    6  C22 UNL     1      64.308  20.671  49.002  1.00  0.00     0.063 A
ENDROOT
BRANCH   4   7
HETATM    7  C11 UNL     1      61.993  17.679  48.781  1.00  0.00    -0.009 C
HETATM    8  C12 UNL     1      61.913  17.543  47.292  1.00  0.00     0.019 C
HETATM    9  C13 UNL     1      60.891  16.492  46.917  1.00  0.00    -0.013 C
HETATM   10  C14 UNL     1      59.551  16.998  47.398  1.00  0.00     0.009 C
HETATM   11  C18 UNL     1      61.253  15.148  47.500  1.00  0.00     0.009 C
HETATM   12  C15 UNL     1      59.609  17.120  48.887  1.00  0.00    -0.013 C
HETATM   13  C16 UNL     1      59.853  15.766  49.469  1.00  0.00     0.009 C
HETATM   14  C20 UNL     1      60.658  18.073  49.389  1.00  0.00     0.019 C
HETATM   15  C17 UNL     1      61.209  15.290  48.990  1.00  0.00    -0.013 C
HETATM   16  C19 UNL     1      62.293  16.307  49.362  1.00  0.00     0.019 C
ENDBRANCH   4   7
BRANCH   5  17
HETATM   17  O2  UNL     1      62.470  20.180  47.602  1.00  0.00    -0.359 OA
ATOM     18  H2  UNL     1      61.728  20.734  47.819  1.00  0.00     0.217 HD
ENDBRANCH   5  17
BRANCH   6  19
HETATM   19  C23 UNL     1      64.641  21.983  48.445  1.00  0.00     0.296 C
BRANCH  19  20
HETATM   20  O3  UNL     1      65.694  21.834  47.499  1.00  0.00    -0.367 OA
ATOM     21  H3  UNL     1      66.503  21.646  47.961  1.00  0.00     0.213 HD
ENDBRANCH  19  20
BRANCH  19  22
HETATM   22  O4  UNL     1      63.632  22.622  47.787  1.00  0.00    -0.362 OA
HETATM   23  C24 UNL     1      63.007  23.559  48.631  1.00  0.00     0.205 C
ENDBRANCH  19  22
ENDBRANCH   6  19
BRANCH   1  24
HETATM   24  O1  UNL     1      66.168  21.139  50.438  1.00  0.00    -0.350 OA
BRANCH  24  25
HETATM   25  C6  UNL     1      67.418  21.024  50.917  1.00  0.00     0.185 C
BRANCH  25  26
HETATM   26  C5  UNL     1      67.675  21.263  52.376  1.00  0.00     0.042 A
HETATM   27  C3  UNL     1      67.303  20.017  53.189  1.00  0.00    -0.077 A
HETATM   28  C2  UNL     1      67.442  18.740  53.448  1.00  0.00    -0.028 C
HETATM   29  C4  UNL     1      66.697  21.355  53.426  1.00  0.00     0.045 A
HETATM   30  C1  UNL     1      66.633  18.138  54.536  1.00  0.00     0.036 C
ENDBRANCH  25  26
ENDBRANCH  24  25
ENDBRANCH   1  24
TORSDOF 8
ENDMDL