MODEL 5
REMARK VINA RESULT: -7.139805197      1.681      2.316
REMARK  8 active torsions:
REMARK  status: ('A' for Active; 'I' for Inactive)
REMARK    1  A    between atoms: C2_2  and  O2_4
REMARK    2  A    between atoms: O2_4  and  C3_5
REMARK    3  A    between atoms: C3_5  and  C4_6
REMARK    4  A    between atoms: C4_6  and  O3_7
REMARK    5  A    between atoms: C4_6  and  C5_9
REMARK    6  A    between atoms: C12_16  and  O4_17
REMARK    7  A    between atoms: C13_19  and  C14_20
REMARK    8  A    between atoms: C14_20  and  C15_21
ROOT
HETATM    1  C5  UNL     1      62.055  16.989  49.147  1.00  0.00    -0.021 A
HETATM    2  C6  UNL     1      62.860  17.524  50.143  1.00  0.00     0.018 A
HETATM    3  C7  UNL     1      63.539  18.750  50.011  1.00  0.00    -0.044 A
HETATM    4  C8  UNL     1      63.392  19.436  48.862  1.00  0.00    -0.022 A
HETATM    5  C9  UNL     1      62.579  18.910  47.837  1.00  0.00     0.017 A
HETATM    6  C10 UNL     1      61.934  17.736  47.966  1.00  0.00    -0.052 A
HETATM    7  C11 UNL     1      61.013  17.292  46.883  1.00  0.00     0.049 C
HETATM    8  C12 UNL     1      63.911  20.776  48.635  1.00  0.00     0.156 C
HETATM    9  C13 UNL     1      64.639  21.390  49.793  1.00  0.00     0.028 C
HETATM   10  C20 UNL     1      65.238  20.442  50.729  1.00  0.00    -0.034 C
HETATM   11  C21 UNL     1      66.636  19.983  50.267  1.00  0.00     0.016 C
HETATM   12  C22 UNL     1      65.528  21.166  52.042  1.00  0.00     0.016 C
HETATM   13  C23 UNL     1      64.409  19.228  51.068  1.00  0.00     0.023 C
HETATM   14  C24 UNL     1      65.338  18.100  51.511  1.00  0.00     0.016 C
ENDROOT
BRANCH   1  15
HETATM   15  C4  UNL     1      61.369  15.713  49.145  1.00  0.00     0.176 C
BRANCH  15  16
HETATM   16  C3  UNL     1      59.972  15.745  49.764  1.00  0.00     0.215 C
BRANCH  16  17
HETATM   17  O2  UNL     1      59.844  14.717  50.747  1.00  0.00    -0.319 OA
BRANCH  17  18
HETATM   18  C2  UNL     1      58.609  14.084  50.914  1.00  0.00     0.254 C
HETATM   19  C1  UNL     1      58.147  13.489  52.193  1.00  0.00     0.126 C
HETATM   20  O1  UNL     1      57.784  13.977  49.918  1.00  0.00    -0.266 OA
ENDBRANCH  17  18
ENDBRANCH  16  17
ENDBRANCH  15  16
BRANCH  15  21
HETATM   21  O3  UNL     1      62.096  14.725  49.870  1.00  0.00    -0.389 OA
ATOM     22  H3  UNL     1      62.964  15.087  50.008  1.00  0.00     0.210 HD
ENDBRANCH  15  21
ENDBRANCH   1  15
BRANCH   8  23
HETATM   23  O4  UNL     1      62.739  21.557  48.359  1.00  0.00    -0.390 OA
ATOM     24  H4  UNL     1      62.477  21.881  49.212  1.00  0.00     0.210 HD
ENDBRANCH   8  23
BRANCH   9  25
HETATM   25  C14 UNL     1      65.722  22.295  49.163  1.00  0.00     0.012 C
BRANCH  25  26
HETATM   26  C15 UNL     1      65.350  23.727  49.285  1.00  0.00    -0.014 C
HETATM   27  C16 UNL     1      64.803  24.367  48.038  1.00  0.00     0.005 C
HETATM   28  C17 UNL     1      64.443  25.738  48.568  1.00  0.00     0.000 C
HETATM   29  C18 UNL     1      64.037  25.504  50.020  1.00  0.00     0.000 C
HETATM   30  C19 UNL     1      64.274  24.026  50.301  1.00  0.00     0.005 C
ENDBRANCH  25  26
ENDBRANCH   9  25
TORSDOF 8
ENDMDL