MODEL 1
REMARK VINA RESULT: -7.395411838      0.000      0.000
REMARK  3 active torsions:
REMARK  status: ('A' for Active; 'I' for Inactive)
REMARK    1  A    between atoms: N1_1  and  C1_5
REMARK    2  A    between atoms: C1_5  and  C2_6
REMARK    3  A    between atoms: C5_9  and  C6_10
ROOT
HETATM    1  C2  UNL     1      14.175  37.285  74.699  1.00  0.00     0.015 C
HETATM    2  C3  UNL     1      14.214  35.866  74.267  1.00  0.00     0.033 C
HETATM    3  C4  UNL     1      14.849  34.928  75.194  1.00  0.00    -0.021 C
HETATM    4  C5  UNL     1      15.321  35.235  76.377  1.00  0.00    -0.052 C
HETATM    5  C11 UNL     1      15.235  36.614  76.870  1.00  0.00     0.037 C
HETATM    6  C12 UNL     1      14.236  37.477  76.190  1.00  0.00     0.011 C
ENDROOT
BRANCH   4   7
HETATM    7  C6  UNL     1      15.964  34.233  77.287  1.00  0.00     0.183 C
HETATM    8  C7  UNL     1      15.629  32.818  76.857  1.00  0.00     0.213 C
HETATM    9  O1  UNL     1      16.246  31.963  77.788  1.00  0.00    -0.343 OA
HETATM   10  C8  UNL     1      16.088  32.179  79.179  1.00  0.00     0.128 A
HETATM   11  C9  UNL     1      16.279  31.242  80.165  1.00  0.00     0.109 A
HETATM   12  C10 UNL     1      15.720  33.401  79.574  1.00  0.00     0.184 A
HETATM   13  S1  UNL     1      15.933  32.128  81.580  1.00  0.00    -0.022 SA
HETATM   14  N2  UNL     1      15.569  33.611  80.886  1.00  0.00    -0.305 N
ATOM     15  H2  UNL     1      15.295  34.474  81.356  1.00  0.00     0.176 HD
HETATM   16  O2  UNL     1      15.509  34.408  78.590  1.00  0.00    -0.321 OA
ENDBRANCH   4   7
BRANCH   1  17
HETATM   17  C1  UNL     1      15.285  38.068  73.995  1.00  0.00     0.234 C
BRANCH  17  18
HETATM   18  N1  UNL     1      14.960  39.481  74.137  1.00  0.00    -0.079 N
ATOM     19  H13 UNL     1      14.497  39.700  75.020  1.00  0.00     0.274 HD
ATOM     20  H12 UNL     1      15.780  40.071  74.272  1.00  0.00     0.274 HD
ATOM     21  H11 UNL     1      14.408  39.739  73.320  1.00  0.00     0.274 HD
ENDBRANCH  17  18
ENDBRANCH   1  17
TORSDOF 3
ENDMDL