MODEL 4
REMARK VINA RESULT: -7.381455524      4.524      5.503
REMARK  2 active torsions:
REMARK  status: ('A' for Active; 'I' for Inactive)
REMARK    1  A    between atoms: C3_6  and  C4_7
REMARK    2  A    between atoms: C9_16  and  N4_17
ROOT
HETATM    1  N1  UNL     1      17.569  32.423  77.024  1.00  0.00    -0.190 NA
HETATM    2  C1  UNL     1      17.039  32.746  76.046  1.00  0.00     0.120 C
HETATM    3  C2  UNL     1      16.344  33.157  74.821  1.00  0.00     0.148 A
HETATM    4  N2  UNL     1      15.090  33.511  74.829  1.00  0.00    -0.343 N
ATOM      5  H2  UNL     1      14.571  33.505  75.707  1.00  0.00     0.167 HD
HETATM    6  C3  UNL     1      14.486  33.875  73.729  1.00  0.00     0.059 A
HETATM    7  S1  UNL     1      15.750  33.719  72.571  1.00  0.00    -0.056 SA
HETATM    8  C9  UNL     1      16.996  33.183  73.614  1.00  0.00     0.112 A
ENDROOT
BRANCH   8   9
HETATM    9  N4  UNL     1      18.356  32.853  73.302  1.00  0.00    -0.373 N
HETATM   10  C10 UNL     1      18.721  32.353  71.988  1.00  0.00     0.123 C
HETATM   11  C11 UNL     1      20.140  32.891  71.869  1.00  0.00     0.021 C
HETATM   12  C12 UNL     1      20.668  32.517  73.261  1.00  0.00     0.021 C
HETATM   13  C13 UNL     1      19.518  32.934  74.130  1.00  0.00     0.123 C
ENDBRANCH   8   9
BRANCH   6  14
HETATM   14  C4  UNL     1      13.100  34.318  73.444  1.00  0.00     0.068 C
HETATM   15  C5  UNL     1      12.910  35.792  73.559  1.00  0.00     0.014 C
HETATM   16  C6  UNL     1      11.418  36.044  73.482  1.00  0.00     0.028 C
HETATM   17  C7  UNL     1      10.759  35.386  72.324  1.00  0.00     0.232 C
HETATM   18  N3  UNL     1      11.204  34.053  72.050  1.00  0.00    -0.074 N
HETATM   19  C8  UNL     1      12.644  33.912  72.057  1.00  0.00     0.243 C
ATOM     20  H32 UNL     1      10.773  33.390  72.693  1.00  0.00     0.277 HD
ATOM     21  H31 UNL     1      10.813  33.716  71.170  1.00  0.00     0.277 HD
ENDBRANCH   6  14
TORSDOF 2
ENDMDL