MODEL 5
REMARK VINA RESULT: -6.528372686      2.400      3.477
REMARK  4 active torsions:
REMARK  status: ('A' for Active; 'I' for Inactive)
REMARK    1  A    between atoms: C2_2  and  C3_3
REMARK    2  A    between atoms: C3_3  and  C4_4
REMARK    3  A    between atoms: C4_4  and  O1_5
REMARK    4  A    between atoms: C5_9  and  N2_10
ROOT
HETATM    1  C3  UNL     1      14.419  34.082  73.571  1.00  0.00     0.087 A
HETATM    2  N1  UNL     1      14.871  33.308  74.694  1.00  0.00    -0.359 N
ATOM      3  H1  UNL     1      14.871  32.289  74.750  1.00  0.00     0.162 HD
HETATM    4  C5  UNL     1      15.276  34.109  75.622  1.00  0.00     0.118 A
HETATM    5  C11 UNL     1      15.129  35.502  75.194  1.00  0.00     0.064 A
HETATM    6  C12 UNL     1      14.603  35.502  73.936  1.00  0.00     0.034 A
HETATM    7  S1  UNL     1      14.889  37.143  74.530  1.00  0.00    -0.086 SA
ENDROOT
BRANCH   4   8
HETATM    8  N2  UNL     1      15.784  33.678  76.858  1.00  0.00    -0.366 N
HETATM    9  C6  UNL     1      16.136  32.304  77.045  1.00  0.00     0.124 C
HETATM   10  C7  UNL     1      15.681  31.736  78.358  1.00  0.00     0.020 C
HETATM   11  C8  UNL     1      16.076  32.669  79.465  1.00  0.00     0.003 C
HETATM   12  C9  UNL     1      15.530  34.062  79.273  1.00  0.00     0.020 C
HETATM   13  C10 UNL     1      15.948  34.615  77.927  1.00  0.00     0.124 C
ENDBRANCH   4   8
BRANCH   1  14
HETATM   14  C2  UNL     1      12.958  33.867  73.250  1.00  0.00     0.034 C
HETATM   15  C1  UNL     1      12.769  34.113  71.768  1.00  0.00     0.008 C
ENDBRANCH   1  14
BRANCH   1  16
HETATM   16  C4  UNL     1      15.308  33.723  72.391  1.00  0.00     0.200 C
BRANCH  16  17
HETATM   17  O1  UNL     1      16.144  34.781  72.052  1.00  0.00    -0.398 OA
ATOM     18  H1  UNL     1      15.842  35.220  71.265  1.00  0.00     0.209 HD
ENDBRANCH  16  17
ENDBRANCH   1  16
TORSDOF 4
ENDMDL