MODEL 2
REMARK VINA RESULT: -7.623226788      1.579      3.140
REMARK  2 active torsions:
REMARK  status: ('A' for Active; 'I' for Inactive)
REMARK    1  A    between atoms: C2_2  and  N1_4
REMARK    2  A    between atoms: C5_10  and  C6_11
ROOT
HETATM    1  C6  UNL     1      15.593  33.442  74.704  1.00  0.00     0.079 C
HETATM    2  C7  UNL     1      16.848  33.413  73.955  1.00  0.00     0.034 C
HETATM    3  C8  UNL     1      17.781  32.697  74.952  1.00  0.00     0.125 C
HETATM    4  N4  UNL     1      17.151  32.861  76.240  1.00  0.00    -0.365 N
HETATM    5  C9  UNL     1      17.394  32.240  77.486  1.00  0.00     0.073 C
HETATM    6  N5  UNL     1      18.512  31.579  77.677  1.00  0.00    -0.389 N
ATOM      7  H51 UNL     1      18.688  31.131  78.576  1.00  0.00     0.157 HD
ATOM      8  H52 UNL     1      19.161  31.552  76.890  1.00  0.00     0.157 HD
HETATM    9  C10 UNL     1      16.455  32.279  78.625  1.00  0.00     0.076 C
HETATM   10  C11 UNL     1      15.621  33.534  78.507  1.00  0.00     0.009 C
HETATM   11  C12 UNL     1      15.032  33.562  77.115  1.00  0.00     0.026 C
HETATM   12  C13 UNL     1      16.108  33.857  76.097  1.00  0.00     0.097 C
ENDROOT
BRANCH   1  13
HETATM   13  C5  UNL     1      14.454  34.157  74.241  1.00  0.00     0.105 A
HETATM   14  N1  UNL     1      14.179  35.449  74.082  1.00  0.00    -0.275 N
HETATM   15  N2  UNL     1      12.939  35.595  73.610  1.00  0.00    -0.292 N
HETATM   16  C4  UNL     1      12.383  34.387  73.453  1.00  0.00     0.199 A
ATOM     17  H2  UNL     1      12.487  36.485  73.402  1.00  0.00     0.188 HD
HETATM   18  N3  UNL     1      13.311  33.516  73.838  1.00  0.00    -0.339 N
ATOM     19  H3  UNL     1      13.188  32.503  73.836  1.00  0.00     0.168 HD
BRANCH  14  20
HETATM   20  C2  UNL     1      15.084  36.520  74.372  1.00  0.00     0.101 C
HETATM   21  C1  UNL     1      14.464  37.285  75.562  1.00  0.00     0.034 C
HETATM   22  C3  UNL     1      15.070  37.532  73.234  1.00  0.00     0.034 C
ENDBRANCH  14  20
ENDBRANCH   1  13
TORSDOF 2
ENDMDL