MODEL 3
REMARK VINA RESULT: -6.706030417      2.251      4.499
REMARK  3 active torsions:
REMARK  status: ('A' for Active; 'I' for Inactive)
REMARK    1  A    between atoms: N1_2  and  C2_3
REMARK    2  A    between atoms: N1_2  and  C7_9
REMARK    3  A    between atoms: C12_16  and  O4_17
ROOT
HETATM    1  C7  UNL     1      14.820  34.101  74.122  1.00  0.00     0.008 C
HETATM    2  C8  UNL     1      14.511  33.699  75.506  1.00  0.00     0.079 C
HETATM    3  C9  UNL     1      15.694  33.461  76.396  1.00  0.00     0.181 C
HETATM    4  O2  UNL     1      16.905  33.190  75.755  1.00  0.00    -0.348 OA
HETATM    5  C10 UNL     1      17.124  33.177  74.403  1.00  0.00     0.107 A
HETATM    6  C11 UNL     1      18.161  32.800  73.619  1.00  0.00     0.182 A
HETATM    7  O3  UNL     1      17.812  33.010  72.360  1.00  0.00    -0.297 OA
HETATM    8  C12 UNL     1      16.602  33.502  72.294  1.00  0.00     0.197 A
HETATM    9  C13 UNL     1      16.114  33.630  73.582  1.00  0.00     0.075 A
ENDROOT
BRANCH   1  10
HETATM   10  N1  UNL     1      14.467  35.405  73.684  1.00  0.00    -0.285 NA
HETATM   11  C1  UNL     1      13.002  35.473  73.623  1.00  0.00     0.117 C
BRANCH  10  12
HETATM   12  C2  UNL     1      14.990  36.541  74.342  1.00  0.00     0.066 C
HETATM   13  C3  UNL     1      13.998  36.935  75.456  1.00  0.00     0.046 C
HETATM   14  C4  UNL     1      14.754  37.808  76.429  1.00  0.00     0.169 C
HETATM   15  O1  UNL     1      15.410  38.795  75.769  1.00  0.00    -0.391 OA
HETATM   16  C5  UNL     1      15.089  39.030  74.464  1.00  0.00     0.169 C
HETATM   17  C6  UNL     1      15.209  37.795  73.586  1.00  0.00     0.046 C
ENDBRANCH  10  12
ENDBRANCH   1  10
BRANCH   8  18
HETATM   18  O4  UNL     1      15.943  33.832  71.104  1.00  0.00    -0.340 OA
ATOM     19  H4  UNL     1      15.569  34.685  70.914  1.00  0.00     0.220 HD
ENDBRANCH   8  18
TORSDOF 3
ENDMDL