MODEL 5
REMARK VINA RESULT: -6.858476767      2.166      4.589
REMARK  2 active torsions:
REMARK  status: ('A' for Active; 'I' for Inactive)
REMARK    1  A    between atoms: N1_2  and  C2_5
REMARK    2  A    between atoms: C2_5  and  C3_6
ROOT
HETATM    1  C3  UNL     1      11.927  36.385  73.469  1.00  0.00     0.210 C
HETATM    2  C4  UNL     1      12.903  37.500  73.875  1.00  0.00     0.208 C
HETATM    3  O1  UNL     1      13.381  37.166  75.118  1.00  0.00    -0.353 OA
HETATM    4  C5  UNL     1      14.751  37.077  75.204  1.00  0.00     0.160 C
HETATM    5  C6  UNL     1      15.291  38.488  74.929  1.00  0.00     0.078 C
HETATM    6  C7  UNL     1      15.096  36.813  76.669  1.00  0.00     0.078 C
HETATM    7  O2  UNL     1      15.369  36.249  74.336  1.00  0.00    -0.317 OA
HETATM    8  C8  UNL     1      14.780  35.069  74.011  1.00  0.00     0.200 C
HETATM    9  C9  UNL     1      15.403  33.975  74.877  1.00  0.00     0.071 C
HETATM   10  C10 UNL     1      16.742  33.611  74.279  1.00  0.00     0.006 C
HETATM   11  C11 UNL     1      16.456  32.752  73.065  1.00  0.00     0.000 C
HETATM   12  C12 UNL     1      15.352  33.360  72.252  1.00  0.00     0.006 C
HETATM   13  C13 UNL     1      15.086  34.798  72.556  1.00  0.00     0.071 C
HETATM   14  O3  UNL     1      13.418  34.992  74.209  1.00  0.00    -0.200 OA
HETATM   15  O4  UNL     1      12.703  35.279  73.161  1.00  0.00    -0.229 OA
ENDROOT
BRANCH   1  16
HETATM   16  C2  UNL     1      11.091  36.796  72.303  1.00  0.00     0.268 C
BRANCH  16  17
HETATM   17  N1  UNL     1      10.103  37.760  72.747  1.00  0.00    -0.076 N
HETATM   18  C1  UNL     1       8.870  37.102  73.114  1.00  0.00     0.267 C
ATOM     19  H12 UNL     1       9.948  38.489  72.051  1.00  0.00     0.276 HD
ATOM     20  H11 UNL     1      10.459  38.343  73.504  1.00  0.00     0.276 HD
ENDBRANCH  16  17
ENDBRANCH   1  16
TORSDOF 2
ENDMDL