MODEL 1
REMARK VINA RESULT: -8.235660290      0.000      0.000
REMARK  4 active torsions:
REMARK  status: ('A' for Active; 'I' for Inactive)
REMARK    1  A    between atoms: C2_2  and  C4_5
REMARK    2  A    between atoms: C4_5  and  N2_6
REMARK    3  A    between atoms: C8_10  and  O1_11
REMARK    4  A    between atoms: C11_15  and  C12_16
ROOT
HETATM    1  C1  UNL     1      15.032  37.343  73.821  1.00  0.00     0.027 C
HETATM    2  C2  UNL     1      14.306  36.497  72.796  1.00  0.00     0.107 C
HETATM    3  C3  UNL     1      13.058  37.213  72.478  1.00  0.00     0.065 C
HETATM    4  N1  UNL     1      12.074  37.774  72.229  1.00  0.00    -0.197 NA
ENDROOT
BRANCH   2   5
HETATM    5  C4  UNL     1      13.925  35.145  73.302  1.00  0.00     0.149 C
BRANCH   5   6
HETATM    6  N2  UNL     1      14.993  34.429  73.943  1.00  0.00    -0.335 N
HETATM    7  C5  UNL     1      15.043  34.097  75.258  1.00  0.00     0.106 A
HETATM    8  C6  UNL     1      16.195  33.416  75.547  1.00  0.00    -0.002 A
HETATM    9  C7  UNL     1      16.895  33.322  74.352  1.00  0.00     0.005 A
HETATM   10  C11 UNL     1      16.972  32.761  76.588  1.00  0.00    -0.014 C
HETATM   11  C8  UNL     1      16.126  33.953  73.397  1.00  0.00     0.149 A
HETATM   12  C9  UNL     1      18.181  32.587  74.571  1.00  0.00     0.048 C
HETATM   13  C10 UNL     1      18.335  32.559  76.054  1.00  0.00     0.046 C
BRANCH  11  14
HETATM   14  O1  UNL     1      16.451  34.095  72.051  1.00  0.00    -0.346 OA
ATOM     15  H1  UNL     1      16.515  34.934  71.611  1.00  0.00     0.219 HD
ENDBRANCH  11  14
BRANCH  10  16
HETATM   16  C12 UNL     1      16.570  32.406  77.780  1.00  0.00     0.131 C
HETATM   17  C13 UNL     1      15.726  33.266  78.589  1.00  0.00     0.111 C
HETATM   18  N3  UNL     1      15.050  33.941  79.250  1.00  0.00    -0.191 NA
HETATM   19  C14 UNL     1      16.971  31.136  78.302  1.00  0.00     0.111 C
HETATM   20  N4  UNL     1      17.302  30.107  78.743  1.00  0.00    -0.191 NA
ENDBRANCH  10  16
ENDBRANCH   5   6
ENDBRANCH   2   5
TORSDOF 4
ENDMDL