MODEL 2
REMARK VINA RESULT: -8.135007406      3.234      4.918
REMARK  4 active torsions:
REMARK  status: ('A' for Active; 'I' for Inactive)
REMARK    1  A    between atoms: C2_5  and  C3_6
REMARK    2  A    between atoms: C11_15  and  N4_16
REMARK    3  A    between atoms: N4_16  and  C12_18
REMARK    4  A    between atoms: C12_18  and  O1_19
ROOT
HETATM    1  C1  UNL     1      15.845  33.588  72.486  1.00  0.00     0.179 C
HETATM    2  N1  UNL     1      15.585  34.187  73.768  1.00  0.00    -0.280 N
HETATM    3  N2  UNL     1      15.576  33.425  74.881  1.00  0.00    -0.299 N
ATOM      4  H2  UNL     1      15.781  32.426  74.912  1.00  0.00     0.187 HD
HETATM    5  C2  UNL     1      15.262  34.170  75.928  1.00  0.00     0.054 A
HETATM    6  C9  UNL     1      15.061  35.449  75.484  1.00  0.00     0.114 A
HETATM    7  C10 UNL     1      14.706  36.583  76.288  1.00  0.00     0.105 C
HETATM    8  N3  UNL     1      14.409  37.505  76.920  1.00  0.00    -0.191 NA
HETATM    9  C11 UNL     1      15.279  35.444  74.057  1.00  0.00     0.147 A
ENDROOT
BRANCH   5  10
HETATM   10  C3  UNL     1      15.126  33.765  77.372  1.00  0.00     0.039 C
HETATM   11  C4  UNL     1      16.390  34.117  78.108  1.00  0.00     0.011 C
HETATM   12  C5  UNL     1      16.152  33.780  79.566  1.00  0.00     0.001 C
HETATM   13  C6  UNL     1      15.977  32.310  79.709  1.00  0.00     0.000 C
HETATM   14  C7  UNL     1      15.717  31.568  78.422  1.00  0.00     0.001 C
HETATM   15  C8  UNL     1      14.773  32.307  77.511  1.00  0.00     0.011 C
ENDBRANCH   5  10
BRANCH   9  16
HETATM   16  N4  UNL     1      15.219  36.630  73.331  1.00  0.00    -0.312 N
ATOM     17  H4  UNL     1      16.095  36.821  72.846  1.00  0.00     0.170 HD
BRANCH  16  18
HETATM   18  C12 UNL     1      14.303  37.593  73.101  1.00  0.00     0.225 C
HETATM   19  C13 UNL     1      13.000  37.619  72.593  1.00  0.00     0.144 C
HETATM   20  N5  UNL     1      11.904  37.681  72.155  1.00  0.00    -0.188 NA
BRANCH  18  21
HETATM   21  O1  UNL     1      14.703  38.828  73.418  1.00  0.00    -0.338 OA
ATOM     22  H1  UNL     1      15.642  38.963  73.374  1.00  0.00     0.220 HD
ENDBRANCH  18  21
ENDBRANCH  16  18
ENDBRANCH   9  16
TORSDOF 4
ENDMDL