MODEL 2
REMARK VINA RESULT: -6.949082738      3.755      6.239
REMARK  6 active torsions:
REMARK  status: ('A' for Active; 'I' for Inactive)
REMARK    1  A    between atoms: C2_2  and  O1_4
REMARK    2  A    between atoms: C2_2  and  C4_6
REMARK    3  A    between atoms: C6_10  and  C7_11
REMARK    4  A    between atoms: C7_11  and  O2_12
REMARK    5  A    between atoms: N2_20  and  N3_21
REMARK    6  A    between atoms: N3_21  and  O3_23
ROOT
HETATM    1  C4  UNL     1      15.673  35.221  77.853  1.00  0.00     0.060 C
HETATM    2  C5  UNL     1      15.286  35.698  76.687  1.00  0.00     0.124 A
HETATM    3  N1  UNL     1      15.304  37.121  76.401  1.00  0.00    -0.344 N
ATOM      4  H1  UNL     1      15.609  37.834  77.065  1.00  0.00     0.167 HD
HETATM    5  C6  UNL     1      14.894  37.375  75.222  1.00  0.00     0.042 A
HETATM    6  C8  UNL     1      14.528  36.114  74.522  1.00  0.00     0.097 A
HETATM    7  C9  UNL     1      15.453  35.809  73.377  1.00  0.00     0.040 C
HETATM    8  C10 UNL     1      15.137  36.455  72.089  1.00  0.00     0.003 C
HETATM    9  C11 UNL     1      13.690  36.619  71.775  1.00  0.00     0.000 C
HETATM   10  C12 UNL     1      12.769  35.903  72.711  1.00  0.00     0.003 C
HETATM   11  C13 UNL     1      13.082  36.065  74.153  1.00  0.00     0.040 C
HETATM   12  N2  UNL     1      14.804  35.091  75.512  1.00  0.00    -0.242 N
ENDROOT
BRANCH   1  13
HETATM   13  C2  UNL     1      15.716  33.833  78.299  1.00  0.00     0.072 C
HETATM   14  C1  UNL     1      16.931  33.135  77.741  1.00  0.00     0.050 C
HETATM   15  C3  UNL     1      15.832  33.740  79.826  1.00  0.00     0.050 C
BRANCH  13  16
HETATM   16  O1  UNL     1      14.558  33.106  77.964  1.00  0.00    -0.387 OA
ATOM     17  H1  UNL     1      13.825  33.702  77.867  1.00  0.00     0.211 HD
ENDBRANCH  13  16
ENDBRANCH   1  13
BRANCH  12  18
HETATM   18  N3  UNL     1      14.615  33.740  75.306  1.00  0.00    -0.205 N
ATOM     19  H3  UNL     1      13.686  33.382  75.529  1.00  0.00     0.216 HD
BRANCH  18  20
HETATM   20  O3  UNL     1      15.417  32.916  74.890  1.00  0.00    -0.274 OA
ATOM     21  H3  UNL     1      15.292  32.261  74.214  1.00  0.00     0.246 HD
ENDBRANCH  18  20
ENDBRANCH  12  18
BRANCH   5  22
HETATM   22  C7  UNL     1      14.820  38.769  74.691  1.00  0.00     0.219 C
BRANCH  22  23
HETATM   23  O2  UNL     1      14.888  39.689  75.733  1.00  0.00    -0.395 OA
ATOM     24  H2  UNL     1      14.186  39.539  76.354  1.00  0.00     0.209 HD
ENDBRANCH  22  23
ENDBRANCH   5  22
TORSDOF 6
ENDMDL