MODEL 2
REMARK VINA RESULT: -6.300419796      1.728      4.286
REMARK  8 active torsions:
REMARK  status: ('A' for Active; 'I' for Inactive)
REMARK    1  A    between atoms: C2_2  and  C3_3
REMARK    2  A    between atoms: C2_2  and  C15_21
REMARK    3  A    between atoms: C3_3  and  N1_4
REMARK    4  A    between atoms: C3_3  and  C9_11
REMARK    5  A    between atoms: N1_4  and  C4_6
REMARK    6  A    between atoms: C4_6  and  C5_7
REMARK    7  A    between atoms: C5_7  and  C6_8
REMARK    8  A    between atoms: C9_11  and  O1_12
REMARK       I    between atoms: N2_17  and  C13_18
ROOT
HETATM    1  C3  UNL     1      37.454  22.331  21.771  1.00  0.00     0.067 C
ENDROOT
BRANCH   1   2
HETATM    2  C2  UNL     1      36.613  23.477  21.421  1.00  0.00    -0.033 C
HETATM    3  C1  UNL     1      37.100  24.498  20.671  1.00  0.00     0.022 C
BRANCH   2   4
HETATM    4  C15 UNL     1      35.223  23.682  21.897  1.00  0.00    -0.023 C
HETATM    5  C16 UNL     1      34.132  23.213  21.013  1.00  0.00     0.019 C
HETATM    6  C17 UNL     1      35.028  23.047  23.288  1.00  0.00     0.019 C
HETATM    7  C18 UNL     1      34.965  25.177  22.162  1.00  0.00     0.019 C
ENDBRANCH   2   4
ENDBRANCH   1   2
BRANCH   1   8
HETATM    8  N1  UNL     1      38.610  22.659  22.567  1.00  0.00    -0.389 N
ATOM      9  H1  UNL     1      39.387  23.198  22.183  1.00  0.00     0.159 HD
BRANCH   8  10
HETATM   10  C4  UNL     1      38.620  22.197  23.909  1.00  0.00     0.120 C
BRANCH  10  11
HETATM   11  C5  UNL     1      38.437  23.446  24.797  1.00  0.00     0.023 C
BRANCH  11  12
HETATM   12  C6  UNL     1      39.445  23.476  25.892  1.00  0.00    -0.021 C
HETATM   13  C7  UNL     1      38.663  23.464  27.208  1.00  0.00     0.009 C
HETATM   14  C8  UNL     1      40.214  24.792  25.911  1.00  0.00     0.009 C
ENDBRANCH  11  12
ENDBRANCH  10  11
ENDBRANCH   8  10
ENDBRANCH   1   8
BRANCH   1  15
HETATM   15  C9  UNL     1      37.733  21.288  20.781  1.00  0.00     0.180 C
HETATM   16  C10 UNL     1      38.672  21.844  19.656  1.00  0.00     0.070 C
HETATM   17  C11 UNL     1      38.717  20.599  18.793  1.00  0.00     0.025 C
HETATM   18  C12 UNL     1      39.020  19.571  19.883  1.00  0.00     0.129 C
HETATM   19  N2  UNL     1      38.124  19.983  21.015  1.00  0.00    -0.315 N
HETATM   20  C13 UNL     1      37.842  19.036  22.009  1.00  0.00     0.218 C
HETATM   21  C14 UNL     1      38.419  17.654  22.042  1.00  0.00     0.117 C
HETATM   22  O2  UNL     1      37.076  19.282  22.954  1.00  0.00    -0.274 OA
BRANCH  15  23
HETATM   23  O1  UNL     1      36.504  21.176  20.002  1.00  0.00    -0.365 OA
ATOM     24  H1  UNL     1      36.765  20.744  19.197  1.00  0.00     0.213 HD
ENDBRANCH  15  23
ENDBRANCH   1  15
TORSDOF 8
ENDMDL