MODEL 3
REMARK VINA RESULT: -7.921114024      0.619      1.188
REMARK  7 active torsions:
REMARK  status: ('A' for Active; 'I' for Inactive)
REMARK       I    between atoms: C2_2  and  N1_4
REMARK    1  A    between atoms: N1_4  and  C3_6
REMARK    2  A    between atoms: C3_6  and  C5_8
REMARK    3  A    between atoms: C5_8  and  C15_23
REMARK    4  A    between atoms: N2_9  and  N3_11
REMARK       I    between atoms: N3_11  and  C6_13
REMARK    5  A    between atoms: C6_13  and  C7_15
REMARK    6  A    between atoms: C7_15  and  C8_16
REMARK    7  A    between atoms: C8_16  and  C9_17
ROOT
HETATM    1  C5  UNL     1      36.260  21.813  22.491  1.00  0.00     0.033 C
HETATM    2  N2  UNL     1      36.435  22.385  23.580  1.00  0.00    -0.303 N
ATOM      3  H2  UNL     1      35.733  23.106  23.747  1.00  0.00     0.186 HD
ENDROOT
BRANCH   2   4
HETATM    4  N3  UNL     1      37.301  22.297  24.581  1.00  0.00    -0.270 N
HETATM    5  C6  UNL     1      38.545  23.012  24.562  1.00  0.00     0.235 C
HETATM    6  O2  UNL     1      38.896  23.748  23.629  1.00  0.00    -0.272 OA
ATOM      7  H3  UNL     1      37.076  21.708  25.384  1.00  0.00     0.190 HD
BRANCH   5   8
HETATM    8  C7  UNL     1      39.464  22.856  25.733  1.00  0.00     0.105 C
BRANCH   8   9
HETATM    9  C8  UNL     1      38.941  23.639  26.905  1.00  0.00     0.014 C
BRANCH   9  10
HETATM   10  C9  UNL     1      39.812  24.794  27.205  1.00  0.00    -0.014 C
HETATM   11  C10 UNL     1      39.934  25.754  26.059  1.00  0.00     0.004 C
HETATM   12  C11 UNL     1      41.139  26.656  26.388  1.00  0.00     0.000 C
HETATM   13  C12 UNL     1      40.832  27.422  27.635  1.00  0.00     0.000 C
HETATM   14  C13 UNL     1      40.465  26.518  28.794  1.00  0.00     0.000 C
HETATM   15  C14 UNL     1      39.323  25.609  28.393  1.00  0.00     0.004 C
ENDBRANCH   9  10
ENDBRANCH   8   9
ENDBRANCH   5   8
ENDBRANCH   2   4
BRANCH   1  16
HETATM   16  C3  UNL     1      35.064  22.332  21.702  1.00  0.00     0.128 C
HETATM   17  C4  UNL     1      35.276  23.678  21.105  1.00  0.00     0.038 C
BRANCH  16  18
HETATM   18  N1  UNL     1      33.885  22.354  22.541  1.00  0.00    -0.352 N
HETATM   19  C2  UNL     1      32.616  21.922  22.093  1.00  0.00     0.214 C
HETATM   20  C1  UNL     1      31.450  21.974  23.009  1.00  0.00     0.117 C
HETATM   21  O1  UNL     1      32.455  21.486  20.909  1.00  0.00    -0.274 OA
ATOM     22  H1  UNL     1      33.974  22.696  23.498  1.00  0.00     0.163 HD
ENDBRANCH  16  18
ENDBRANCH   1  16
BRANCH   1  23
HETATM   23  C15 UNL     1      37.070  20.746  21.915  1.00  0.00    -0.009 C
HETATM   24  C16 UNL     1      37.367  19.619  22.855  1.00  0.00     0.021 C
HETATM   25  C17 UNL     1      38.425  21.271  21.401  1.00  0.00     0.021 C
HETATM   26  C18 UNL     1      36.351  20.105  20.713  1.00  0.00     0.021 C
ENDBRANCH   1  23
TORSDOF 7
ENDMDL