MODEL 4
REMARK VINA RESULT: -6.657348966      1.048      1.209
REMARK  7 active torsions:
REMARK  status: ('A' for Active; 'I' for Inactive)
REMARK    1  A    between atoms: C3_3  and  C4_4
REMARK    2  A    between atoms: C4_4  and  C5_5
REMARK    3  A    between atoms: C5_5  and  C6_6
REMARK    4  A    between atoms: C6_6  and  C7_7
REMARK    5  A    between atoms: C7_7  and  C8_8
REMARK    6  A    between atoms: C8_8  and  C9_9
REMARK    7  A    between atoms: C9_9  and  N1_10
ROOT
HETATM    1  C1  UNL     1      40.017  25.127  26.147  1.00  0.00     0.112 C
HETATM    2  C2  UNL     1      39.481  23.878  25.584  1.00  0.00    -0.111 C
HETATM    3  C3  UNL     1      39.055  22.837  25.120  1.00  0.00    -0.104 C
ENDROOT
BRANCH   3   4
HETATM    4  C4  UNL     1      38.563  21.583  24.558  1.00  0.00     0.132 C
BRANCH   4   5
HETATM    5  C5  UNL     1      37.833  21.771  23.270  1.00  0.00     0.071 C
HETATM    6  C17 UNL     1      36.749  22.807  23.374  1.00  0.00     0.041 C
HETATM    7  C18 UNL     1      36.978  23.691  22.187  1.00  0.00     0.029 C
HETATM    8  C19 UNL     1      37.962  22.929  21.358  1.00  0.00     0.169 C
HETATM    9  O1  UNL     1      38.720  22.247  22.282  1.00  0.00    -0.379 OA
BRANCH   5  10
HETATM   10  C6  UNL     1      37.298  20.458  22.741  1.00  0.00     0.039 C
BRANCH  10  11
HETATM   11  C7  UNL     1      38.366  19.397  22.702  1.00  0.00     0.004 C
BRANCH  11  12
HETATM   12  C8  UNL     1      38.405  18.604  21.431  1.00  0.00     0.020 C
BRANCH  12  13
HETATM   13  C9  UNL     1      39.320  17.464  21.506  1.00  0.00     0.124 C
BRANCH  13  14
HETATM   14  N1  UNL     1      38.840  16.162  21.204  1.00  0.00    -0.367 N
HETATM   15  C10 UNL     1      38.144  15.303  22.147  1.00  0.00     0.161 C
HETATM   16  C11 UNL     1      37.095  14.429  21.492  1.00  0.00     0.227 C
HETATM   17  C12 UNL     1      37.478  13.000  21.556  1.00  0.00     0.003 C
HETATM   18  N2  UNL     1      36.884  14.744  20.116  1.00  0.00    -0.055 N
HETATM   19  C13 UNL     1      38.214  12.489  20.595  1.00  0.00    -0.026 C
HETATM   20  C14 UNL     1      38.707  13.263  19.413  1.00  0.00     0.068 C
HETATM   21  C15 UNL     1      38.099  14.648  19.348  1.00  0.00     0.256 C
HETATM   22  C16 UNL     1      39.065  15.614  19.925  1.00  0.00     0.104 C
HETATM   23  N3  UNL     1      40.109  15.911  19.226  1.00  0.00    -0.387 N
ATOM     24  H32 UNL     1      40.774  16.575  19.623  1.00  0.00     0.157 HD
ATOM     25  H31 UNL     1      40.272  15.514  18.300  1.00  0.00     0.157 HD
ATOM     26  H22 UNL     1      36.145  14.167  19.714  1.00  0.00     0.279 HD
ATOM     27  H21 UNL     1      36.449  15.660  20.008  1.00  0.00     0.279 HD
ENDBRANCH  13  14
ENDBRANCH  12  13
ENDBRANCH  11  12
ENDBRANCH  10  11
ENDBRANCH   5  10
ENDBRANCH   4   5
ENDBRANCH   3   4
TORSDOF 7
ENDMDL