MODEL 2
REMARK VINA RESULT: -7.828800420      1.218      1.899
REMARK  6 active torsions:
REMARK  status: ('A' for Active; 'I' for Inactive)
REMARK    1  A    between atoms: C1_2  and  C2_3
REMARK       I    between atoms: C1_2  and  N1_16
REMARK    2  A    between atoms: C2_3  and  C3_4
REMARK    3  A    between atoms: C3_4  and  C4_5
REMARK    4  A    between atoms: C7_8  and  C8_9
REMARK    5  A    between atoms: C8_9  and  C9_11
REMARK    6  A    between atoms: N1_16  and  C12_18
ROOT
HETATM    1  C3  UNL     1      38.582  21.382  23.342  1.00  0.00     0.014 C
ENDROOT
BRANCH   1   2
HETATM    2  C2  UNL     1      38.693  21.610  24.815  1.00  0.00     0.103 C
BRANCH   2   3
HETATM    3  C1  UNL     1      38.795  23.085  25.055  1.00  0.00     0.217 C
HETATM    4  O1  UNL     1      38.297  23.865  24.214  1.00  0.00    -0.274 OA
HETATM    5  N1  UNL     1      39.452  23.531  26.223  1.00  0.00    -0.356 N
ATOM      6  H1  UNL     1      39.842  22.856  26.881  1.00  0.00     0.162 HD
BRANCH   5   7
HETATM    7  C12 UNL     1      39.567  24.944  26.481  1.00  0.00     0.084 C
HETATM    8  C13 UNL     1      39.511  25.143  27.977  1.00  0.00     0.025 C
HETATM    9  C14 UNL     1      39.929  26.527  28.393  1.00  0.00     0.002 C
HETATM   10  C15 UNL     1      41.247  26.934  27.774  1.00  0.00     0.000 C
HETATM   11  C16 UNL     1      41.040  26.908  26.264  1.00  0.00     0.002 C
HETATM   12  C17 UNL     1      40.858  25.457  25.878  1.00  0.00     0.025 C
ENDBRANCH   5   7
ENDBRANCH   2   3
ENDBRANCH   1   2
BRANCH   1  13
HETATM   13  C4  UNL     1      37.504  20.428  22.949  1.00  0.00    -0.014 C
HETATM   14  C5  UNL     1      37.872  18.986  22.922  1.00  0.00     0.005 C
HETATM   15  C6  UNL     1      38.388  18.450  21.643  1.00  0.00     0.013 C
HETATM   16  C7  UNL     1      38.939  19.457  20.686  1.00  0.00     0.067 C
HETATM   17  C10 UNL     1      38.155  20.736  20.628  1.00  0.00     0.013 C
HETATM   18  C11 UNL     1      37.000  20.783  21.560  1.00  0.00     0.005 C
BRANCH  16  19
HETATM   19  C8  UNL     1      39.092  18.907  19.326  1.00  0.00     0.229 C
HETATM   20  O2  UNL     1      38.189  18.145  18.887  1.00  0.00    -0.285 OA
BRANCH  19  21
HETATM   21  C9  UNL     1      40.204  19.165  18.431  1.00  0.00     0.247 C
HETATM   22  O3  UNL     1      40.537  18.273  17.616  1.00  0.00    -0.642 OA
HETATM   23  O4  UNL     1      40.913  20.359  18.442  1.00  0.00    -0.642 OA
ENDBRANCH  19  21
ENDBRANCH  16  19
ENDBRANCH   1  13
TORSDOF 6
ENDMDL