MODEL 3
REMARK VINA RESULT: -6.744008917      1.016      1.106
REMARK  6 active torsions:
REMARK  status: ('A' for Active; 'I' for Inactive)
REMARK    1  A    between atoms: C2_2  and  C3_3
REMARK    2  A    between atoms: C3_3  and  C4_4
REMARK    3  A    between atoms: C4_4  and  N1_5
REMARK       I    between atoms: N1_5  and  C5_7
REMARK       I    between atoms: C5_7  and  N2_9
REMARK    4  A    between atoms: N2_9  and  C6_11
REMARK    5  A    between atoms: N3_14  and  C9_15
REMARK    6  A    between atoms: C9_15  and  C10_16
ROOT
HETATM    1  C6  UNL     1      37.940  22.308  23.125  1.00  0.00     0.089 C
HETATM    2  C7  UNL     1      38.545  22.284  21.740  1.00  0.00     0.055 C
HETATM    3  C8  UNL     1      38.522  20.936  21.205  1.00  0.00     0.274 C
HETATM    4  N3  UNL     1      37.396  20.059  21.431  1.00  0.00     0.088 N
HETATM    5  C15 UNL     1      36.522  20.458  22.468  1.00  0.00     0.274 C
HETATM    6  C16 UNL     1      36.502  21.913  22.867  1.00  0.00     0.055 C
ENDROOT
BRANCH   1   7
HETATM    7  N2  UNL     1      38.059  23.573  23.767  1.00  0.00    -0.338 N
HETATM    8  C5  UNL     1      38.859  23.784  24.904  1.00  0.00     0.316 C
HETATM    9  N1  UNL     1      38.965  25.040  25.537  1.00  0.00    -0.343 N
HETATM   10  O1  UNL     1      39.489  22.785  25.340  1.00  0.00    -0.247 OA
ATOM     11  H1  UNL     1      38.430  25.820  25.154  1.00  0.00     0.164 HD
ATOM     12  H2  UNL     1      37.539  24.363  23.385  1.00  0.00     0.164 HD
BRANCH   9  13
HETATM   13  C4  UNL     1      39.779  25.281  26.682  1.00  0.00     0.124 C
BRANCH  13  14
HETATM   14  C3  UNL     1      41.049  25.990  26.337  1.00  0.00     0.019 C
BRANCH  14  15
HETATM   15  C2  UNL     1      41.165  27.195  27.252  1.00  0.00    -0.003 C
HETATM   16  C1  UNL     1      40.275  26.944  28.447  1.00  0.00     0.005 C
ENDBRANCH  14  15
ENDBRANCH  13  14
ENDBRANCH   9  13
ENDBRANCH   1   7
BRANCH   4  17
HETATM   17  C9  UNL     1      37.911  18.721  21.727  1.00  0.00     0.277 C
BRANCH  17  18
HETATM   18  C10 UNL     1      38.537  18.039  20.601  1.00  0.00     0.023 C
HETATM   19  C11 UNL     1      39.324  16.851  21.196  1.00  0.00     0.008 C
HETATM   20  C12 UNL     1      38.402  15.637  21.199  1.00  0.00     0.010 C
HETATM   21  C13 UNL     1      38.585  14.866  19.886  1.00  0.00     0.074 C
HETATM   22  S1  UNL     1      38.653  16.195  18.611  1.00  0.00    -0.169 SA
HETATM   23  C14 UNL     1      37.747  17.604  19.429  1.00  0.00     0.080 C
ENDBRANCH  17  18
ENDBRANCH   4  17
TORSDOF 6
ENDMDL