MODEL 4
REMARK VINA RESULT: -7.666368872      1.733      2.525
REMARK  7 active torsions:
REMARK  status: ('A' for Active; 'I' for Inactive)
REMARK    1  A    between atoms: C1_2  and  C2_3
REMARK    2  A    between atoms: C1_2  and  O2_13
REMARK    3  A    between atoms: C2_3  and  C3_4
REMARK    4  A    between atoms: C3_4  and  C4_5
REMARK    5  A    between atoms: C4_5  and  C5_6
REMARK    6  A    between atoms: C5_6  and  C6_7
REMARK    7  A    between atoms: O2_13  and  C12_14
ROOT
HETATM    1  C12 UNL     1      35.840  23.926  21.744  1.00  0.00     0.195 C
HETATM    2  C13 UNL     1      34.766  23.127  21.031  1.00  0.00     0.218 C
HETATM    3  C14 UNL     1      33.836  22.404  21.945  1.00  0.00     0.044 C
HETATM    4  C15 UNL     1      32.957  23.368  22.705  1.00  0.00     0.046 C
HETATM    5  C16 UNL     1      33.052  23.097  24.193  1.00  0.00     0.239 C
HETATM    6  N1  UNL     1      34.292  23.856  24.187  1.00  0.00    -0.068 N
ATOM      7  H11 UNL     1      35.194  23.380  24.153  1.00  0.00     0.277 HD
ATOM      8  H12 UNL     1      34.602  24.353  25.023  1.00  0.00     0.277 HD
HETATM    9  C17 UNL     1      33.795  24.580  23.039  1.00  0.00     0.224 C
HETATM   10  C18 UNL     1      34.749  24.911  21.946  1.00  0.00     0.248 C
HETATM   11  N2  UNL     1      34.187  24.432  20.668  1.00  0.00    -0.059 N
ATOM     12  H21 UNL     1      33.198  24.539  20.440  1.00  0.00     0.278 HD
ATOM     13  H22 UNL     1      34.400  24.889  19.781  1.00  0.00     0.278 HD
ENDROOT
BRANCH   1  14
HETATM   14  O2  UNL     1      36.437  23.319  22.833  1.00  0.00    -0.312 OA
BRANCH  14  15
HETATM   15  C1  UNL     1      37.822  23.109  22.802  1.00  0.00     0.259 C
HETATM   16  O1  UNL     1      38.562  23.756  22.024  1.00  0.00    -0.265 OA
BRANCH  15  17
HETATM   17  C2  UNL     1      38.493  22.100  23.689  1.00  0.00     0.111 C
BRANCH  17  18
HETATM   18  C3  UNL     1      38.165  22.564  25.092  1.00  0.00     0.010 C
BRANCH  18  19
HETATM   19  C4  UNL     1      39.390  22.832  25.929  1.00  0.00     0.001 C
BRANCH  19  20
HETATM   20  C5  UNL     1      38.918  23.794  27.020  1.00  0.00     0.004 C
BRANCH  20  21
HETATM   21  C6  UNL     1      39.861  24.941  27.227  1.00  0.00    -0.014 C
HETATM   22  C7  UNL     1      39.803  25.900  26.071  1.00  0.00     0.004 C
HETATM   23  C8  UNL     1      41.082  26.738  26.162  1.00  0.00     0.000 C
HETATM   24  C9  UNL     1      41.436  27.011  27.620  1.00  0.00     0.000 C
HETATM   25  C10 UNL     1      40.155  27.088  28.393  1.00  0.00     0.000 C
HETATM   26  C11 UNL     1      39.580  25.691  28.510  1.00  0.00     0.004 C
ENDBRANCH  20  21
ENDBRANCH  19  20
ENDBRANCH  18  19
ENDBRANCH  17  18
ENDBRANCH  15  17
ENDBRANCH  14  15
ENDBRANCH   1  14
TORSDOF 7
ENDMDL