MODEL 4
REMARK VINA RESULT: -7.108381257      1.317      2.100
REMARK  7 active torsions:
REMARK  status: ('A' for Active; 'I' for Inactive)
REMARK    1  A    between atoms: C2_2  and  C3_3
REMARK    2  A    between atoms: C8_8  and  N1_9
REMARK       I    between atoms: N1_9  and  C9_11
REMARK    3  A    between atoms: C9_11  and  C10_13
REMARK    4  A    between atoms: C10_13  and  N2_14
REMARK       I    between atoms: N2_14  and  C11_16
REMARK    5  A    between atoms: C11_16  and  O3_18
REMARK    6  A    between atoms: O3_18  and  C12_19
REMARK    7  A    between atoms: C12_19  and  C13_20
ROOT
HETATM    1  N1  UNL     1      38.049  19.381  21.530  1.00  0.00    -0.355 N
ATOM      2  H1  UNL     1      38.349  20.103  20.874  1.00  0.00     0.162 HD
HETATM    3  C9  UNL     1      37.641  19.740  22.804  1.00  0.00     0.235 C
HETATM    4  O1  UNL     1      37.259  18.846  23.613  1.00  0.00    -0.272 OA
ENDROOT
BRANCH   3   5
HETATM    5  C10 UNL     1      37.613  21.119  23.296  1.00  0.00     0.227 C
BRANCH   5   6
HETATM    6  N2  UNL     1      38.397  21.385  24.468  1.00  0.00    -0.328 N
HETATM    7  C11 UNL     1      38.751  22.709  24.831  1.00  0.00     0.360 C
HETATM    8  O2  UNL     1      38.378  23.666  24.106  1.00  0.00    -0.239 OA
ATOM      9  H2  UNL     1      38.706  20.607  25.050  1.00  0.00     0.165 HD
BRANCH   7  10
HETATM   10  O3  UNL     1      39.490  23.017  25.951  1.00  0.00    -0.304 OA
BRANCH  10  11
HETATM   11  C12 UNL     1      39.050  23.712  27.076  1.00  0.00     0.185 C
BRANCH  11  12
HETATM   12  C13 UNL     1      39.311  25.187  27.035  1.00  0.00     0.010 C
HETATM   13  C14 UNL     1      39.662  25.647  28.438  1.00  0.00     0.007 C
HETATM   14  C15 UNL     1      40.419  26.944  28.129  1.00  0.00     0.000 C
HETATM   15  C16 UNL     1      41.384  26.450  27.062  1.00  0.00     0.000 C
HETATM   16  C17 UNL     1      40.554  25.510  26.234  1.00  0.00     0.007 C
ENDBRANCH  11  12
ENDBRANCH  10  11
ENDBRANCH   7  10
ENDBRANCH   5   6
ENDBRANCH   3   5
BRANCH   1  17
HETATM   17  C8  UNL     1      38.056  17.996  21.120  1.00  0.00     0.088 C
HETATM   18  C3  UNL     1      37.893  17.843  19.624  1.00  0.00     0.012 C
HETATM   19  C4  UNL     1      39.253  17.928  19.011  1.00  0.00    -0.013 C
HETATM   20  C5  UNL     1      39.518  19.250  18.337  1.00  0.00     0.010 C
HETATM   21  C6  UNL     1      40.244  17.672  20.127  1.00  0.00     0.007 C
HETATM   22  C7  UNL     1      39.423  17.360  21.350  1.00  0.00     0.026 C
BRANCH  18  23
HETATM   23  C2  UNL     1      37.367  16.427  19.398  1.00  0.00     0.002 C
HETATM   24  C1  UNL     1      37.849  15.840  18.114  1.00  0.00     0.005 C
ENDBRANCH  18  23
ENDBRANCH   1  17
TORSDOF 7
ENDMDL