MODEL 5
REMARK VINA RESULT: -6.701653148      3.432      4.511
REMARK  8 active torsions:
REMARK  status: ('A' for Active; 'I' for Inactive)
REMARK    1  A    between atoms: O1_2  and  C2_3
REMARK    2  A    between atoms: C9_10  and  C10_11
REMARK    3  A    between atoms: C10_11  and  C11_12
REMARK    4  A    between atoms: C11_12  and  C12_13
REMARK    5  A    between atoms: C12_13  and  C13_14
REMARK    6  A    between atoms: C13_14  and  C14_15
REMARK    7  A    between atoms: C14_15  and  O2_16
REMARK    8  A    between atoms: C17_20  and  O3_21
ROOT
HETATM    1  C2  UNL     1      35.049  23.721  20.084  1.00  0.00     0.065 C
HETATM    2  C3  UNL     1      35.471  23.941  18.610  1.00  0.00     0.043 C
HETATM    3  C4  UNL     1      36.660  23.196  18.526  1.00  0.00    -0.007 C
HETATM    4  C5  UNL     1      37.840  23.186  17.716  1.00  0.00     0.005 C
HETATM    5  C6  UNL     1      38.920  22.326  18.315  1.00  0.00     0.001 C
HETATM    6  C7  UNL     1      38.721  21.532  19.558  1.00  0.00     0.005 C
HETATM    7  C8  UNL     1      37.400  21.867  20.224  1.00  0.00    -0.005 C
HETATM    8  C9  UNL     1      37.066  21.397  21.576  1.00  0.00    -0.004 C
HETATM    9  C15 UNL     1      35.747  22.000  21.853  1.00  0.00     0.022 C
HETATM   10  C16 UNL     1      34.933  22.334  20.568  1.00  0.00     0.046 C
HETATM   11  C17 UNL     1      35.575  23.212  22.680  1.00  0.00     0.123 C
HETATM   12  C18 UNL     1      36.311  24.379  22.073  1.00  0.00     0.040 C
HETATM   13  C19 UNL     1      36.392  24.202  20.642  1.00  0.00     0.027 C
HETATM   14  C20 UNL     1      37.246  23.276  19.961  1.00  0.00     0.001 C
ENDROOT
BRANCH   8  15
HETATM   15  C10 UNL     1      38.185  21.398  22.503  1.00  0.00     0.005 C
BRANCH  15  16
HETATM   16  C11 UNL     1      38.279  20.580  23.705  1.00  0.00     0.000 C
BRANCH  16  17
HETATM   17  C12 UNL     1      38.913  21.212  24.926  1.00  0.00     0.002 C
BRANCH  17  18
HETATM   18  C13 UNL     1      38.820  22.709  24.667  1.00  0.00     0.026 C
BRANCH  18  19
HETATM   19  C14 UNL     1      38.530  23.476  25.935  1.00  0.00     0.164 C
BRANCH  19  20
HETATM   20  O2  UNL     1      37.355  22.950  26.470  1.00  0.00    -0.401 OA
ATOM     21  H2  UNL     1      37.018  22.324  25.840  1.00  0.00     0.209 HD
ENDBRANCH  19  20
ENDBRANCH  18  19
ENDBRANCH  17  18
ENDBRANCH  16  17
ENDBRANCH  15  16
ENDBRANCH   8  15
BRANCH  11  22
HETATM   22  O3  UNL     1      35.601  23.128  24.036  1.00  0.00    -0.395 OA
ATOM     23  H3  UNL     1      35.059  22.492  24.488  1.00  0.00     0.210 HD
ENDBRANCH  11  22
BRANCH   1  24
HETATM   24  O1  UNL     1      34.074  24.615  20.447  1.00  0.00    -0.385 OA
HETATM   25  C1  UNL     1      32.784  24.163  20.402  1.00  0.00     0.202 C
ENDBRANCH   1  24
TORSDOF 8
ENDMDL