MODEL 3
REMARK VINA RESULT: -7.492576425      1.369      2.440
REMARK  6 active torsions:
REMARK  status: ('A' for Active; 'I' for Inactive)
REMARK    1  A    between atoms: C1_2  and  C2_3
REMARK       I    between atoms: C1_2  and  N1_16
REMARK    2  A    between atoms: C2_3  and  C3_4
REMARK    3  A    between atoms: C3_4  and  C4_5
REMARK    4  A    between atoms: C4_5  and  C5_6
REMARK    5  A    between atoms: C4_5  and  C6_9
REMARK    6  A    between atoms: N1_16  and  C12_18
ROOT
HETATM    1  C3  UNL     1      38.539  22.663  22.534  1.00  0.00     0.027 C
ENDROOT
BRANCH   1   2
HETATM    2  C2  UNL     1      37.761  23.049  23.750  1.00  0.00     0.103 C
BRANCH   2   3
HETATM    3  C1  UNL     1      38.713  23.289  24.895  1.00  0.00     0.217 C
HETATM    4  O1  UNL     1      39.166  22.310  25.531  1.00  0.00    -0.274 OA
HETATM    5  N1  UNL     1      39.103  24.591  25.267  1.00  0.00    -0.356 N
ATOM      6  H1  UNL     1      38.726  25.380  24.741  1.00  0.00     0.162 HD
BRANCH   5   7
HETATM    7  C12 UNL     1      40.013  24.864  26.360  1.00  0.00     0.084 C
HETATM    8  C13 UNL     1      40.831  26.064  25.998  1.00  0.00     0.025 C
HETATM    9  C14 UNL     1      40.242  27.268  26.743  1.00  0.00     0.002 C
HETATM   10  C15 UNL     1      40.581  27.044  28.216  1.00  0.00     0.000 C
HETATM   11  C16 UNL     1      39.933  25.770  28.700  1.00  0.00     0.002 C
HETATM   12  C17 UNL     1      39.174  25.066  27.600  1.00  0.00     0.025 C
ENDBRANCH   5   7
ENDBRANCH   2   3
ENDBRANCH   1   2
BRANCH   1  13
HETATM   13  C4  UNL     1      38.442  21.248  22.105  1.00  0.00     0.116 C
BRANCH  13  14
HETATM   14  C5  UNL     1      37.385  20.528  22.806  1.00  0.00     0.179 C
HETATM   15  O2  UNL     1      36.203  20.531  22.397  1.00  0.00    -0.648 OA
HETATM   16  O3  UNL     1      37.612  19.787  23.971  1.00  0.00    -0.648 OA
ENDBRANCH  13  14
BRANCH  13  17
HETATM   17  C6  UNL     1      38.338  21.107  20.594  1.00  0.00     0.135 C
HETATM   18  C7  UNL     1      38.797  19.731  20.167  1.00  0.00     0.033 C
HETATM   19  C8  UNL     1      39.045  19.671  18.689  1.00  0.00     0.002 C
HETATM   20  C9  UNL     1      40.161  20.554  18.232  1.00  0.00     0.002 C
HETATM   21  C10 UNL     1      39.677  21.905  17.749  1.00  0.00     0.026 C
HETATM   22  C11 UNL     1      38.601  22.378  18.687  1.00  0.00     0.168 C
HETATM   23  O4  UNL     1      39.027  22.128  19.990  1.00  0.00    -0.385 OA
ENDBRANCH  13  17
ENDBRANCH   1  13
TORSDOF 6
ENDMDL