MODEL 2
REMARK VINA RESULT: -6.887128353      1.711      2.369
REMARK  10 active torsions:
REMARK  status: ('A' for Active; 'I' for Inactive)
REMARK    1  A    between atoms: C2_2  and  C3_3
REMARK    2  A    between atoms: C4_4  and  O1_5
REMARK    3  A    between atoms: C7_9  and  C8_10
REMARK    4  A    between atoms: C8_10  and  N1_11
REMARK    5  A    between atoms: N1_11  and  C9_12
REMARK       I    between atoms: N1_11  and  C11_14
REMARK       I    between atoms: C11_14  and  N2_16
REMARK    6  A    between atoms: N2_16  and  C12_18
REMARK    7  A    between atoms: N3_22  and  C16_23
REMARK    8  A    between atoms: C16_23  and  C17_24
REMARK    9  A    between atoms: C18_25  and  C19_26
REMARK   10  A    between atoms: C19_26  and  C20_27
ROOT
HETATM    1  C3  UNL     1      40.498 -20.329  26.673  1.00  0.00     0.252 C
HETATM    2  C4  UNL     1      39.965 -21.522  25.947  1.00  0.00     0.157 C
HETATM    3  C5  UNL     1      40.196 -22.624  26.963  1.00  0.00     0.047 C
HETATM    4  C6  UNL     1      39.130 -23.663  26.668  1.00  0.00     0.015 C
HETATM    5  C7  UNL     1      39.978 -21.929  28.247  1.00  0.00     0.248 C
HETATM    6  N3  UNL     1      40.441 -20.612  28.083  1.00  0.00     0.105 N
ENDROOT
BRANCH   6   7
HETATM    7  C16 UNL     1      39.739 -19.587  28.822  1.00  0.00     0.300 C
BRANCH   7   8
HETATM    8  C17 UNL     1      39.111 -18.536  28.038  1.00  0.00    -0.001 C
HETATM    9  C18 UNL     1      39.264 -17.223  28.300  1.00  0.00    -0.027 C
BRANCH   9  10
HETATM   10  C19 UNL     1      38.611 -16.173  27.484  1.00  0.00     0.052 C
BRANCH  10  11
HETATM   11  C20 UNL     1      38.248 -15.020  28.405  1.00  0.00     0.088 C
HETATM   12  C21 UNL     1      37.359 -15.524  29.492  1.00  0.00     0.045 C
HETATM   13  C22 UNL     1      35.917 -15.655  29.081  1.00  0.00     0.124 C
HETATM   14  N4  UNL     1      35.469 -14.345  28.647  1.00  0.00    -0.367 N
HETATM   15  C23 UNL     1      36.271 -13.663  27.695  1.00  0.00     0.167 C
ATOM     16  H4  UNL     1      34.611 -13.931  29.012  1.00  0.00     0.161 HD
HETATM   17  S1  UNL     1      35.581 -12.524  26.737  1.00  0.00    -0.041 SA
HETATM   18  N5  UNL     1      37.646 -13.986  27.601  1.00  0.00    -0.362 N
ATOM     19  H5  UNL     1      38.230 -13.469  26.942  1.00  0.00     0.162 HD
ENDBRANCH  10  11
ENDBRANCH   9  10
ENDBRANCH   7   8
ENDBRANCH   6   7
BRANCH   1  20
HETATM   20  C2  UNL     1      41.859 -19.983  26.170  1.00  0.00     0.034 C
HETATM   21  C1  UNL     1      42.954 -20.357  27.130  1.00  0.00     0.007 C
ENDBRANCH   1  20
BRANCH   5  22
HETATM   22  C8  UNL     1      40.349 -22.677  29.475  1.00  0.00     0.163 C
BRANCH  22  23
HETATM   23  N1  UNL     1      41.660 -23.174  29.625  1.00  0.00    -0.333 N
HETATM   24  C11 UNL     1      42.675 -22.378  30.203  1.00  0.00     0.318 C
HETATM   25  O2  UNL     1      42.456 -21.187  30.603  1.00  0.00    -0.247 OA
HETATM   26  N2  UNL     1      44.027 -22.796  30.406  1.00  0.00    -0.335 N
ATOM     27  H2  UNL     1      44.290 -23.737  30.117  1.00  0.00     0.165 HD
BRANCH  23  28
HETATM   28  C9  UNL     1      42.011 -24.513  29.202  1.00  0.00     0.123 C
HETATM   29  C10 UNL     1      41.150 -25.562  29.876  1.00  0.00     0.026 C
ENDBRANCH  23  28
BRANCH  26  30
HETATM   30  C12 UNL     1      45.041 -21.955  30.998  1.00  0.00     0.023 C
HETATM   31  C13 UNL     1      44.861 -21.769  32.482  1.00  0.00     0.037 C
HETATM   32  C14 UNL     1      46.388 -22.598  30.791  1.00  0.00     0.037 C
HETATM   33  C15 UNL     1      45.087 -20.579  30.371  1.00  0.00     0.037 C
ENDBRANCH  26  30
ENDBRANCH  22  23
ENDBRANCH   5  22
BRANCH   2  34
HETATM   34  O1  UNL     1      40.647 -21.870  24.800  1.00  0.00    -0.393 OA
ATOM     35  H1  UNL     1      40.707 -22.802  24.628  1.00  0.00     0.210 HD
ENDBRANCH   2  34
TORSDOF 10
ENDMDL