MODEL 3
REMARK VINA RESULT: -6.468549041      3.944      7.089
REMARK  8 active torsions:
REMARK  status: ('A' for Active; 'I' for Inactive)
REMARK    1  A    between atoms: C2_2  and  C3_3
REMARK    2  A    between atoms: C3_3  and  C4_4
REMARK    3  A    between atoms: C4_4  and  C5_5
REMARK    4  A    between atoms: C5_5  and  C6_6
REMARK    5  A    between atoms: C6_6  and  C7_7
REMARK    6  A    between atoms: C9_12  and  C10_13
REMARK    7  A    between atoms: C10_13  and  C11_14
REMARK    8  A    between atoms: C21_30  and  C22_31
ROOT
HETATM    1  C7  UNL     1      38.443 -17.235  25.608  1.00  0.00     0.176 C
HETATM    2  N1  UNL     1      37.980 -17.036  24.238  1.00  0.00    -0.346 N
ATOM      3  H1  UNL     1      37.284 -16.309  24.078  1.00  0.00     0.163 HD
HETATM    4  C8  UNL     1      38.425 -17.775  23.115  1.00  0.00     0.241 C
HETATM    5  O1  UNL     1      37.582 -18.083  22.233  1.00  0.00    -0.271 OA
HETATM    6  C9  UNL     1      39.817 -18.230  22.870  1.00  0.00     0.177 C
HETATM    7  N2  UNL     1      39.859 -19.527  22.230  1.00  0.00    -0.348 N
ATOM      8  H2  UNL     1      39.326 -19.642  21.367  1.00  0.00     0.163 HD
HETATM    9  C14 UNL     1      40.572 -20.636  22.699  1.00  0.00     0.218 C
HETATM   10  O2  UNL     1      40.634 -21.682  21.962  1.00  0.00    -0.274 OA
HETATM   11  C15 UNL     1      41.283 -20.726  24.002  1.00  0.00     0.103 C
HETATM   12  C16 UNL     1      40.477 -21.641  24.894  1.00  0.00     0.009 C
HETATM   13  C17 UNL     1      41.260 -22.132  26.079  1.00  0.00     0.002 C
HETATM   14  C18 UNL     1      42.381 -21.222  26.480  1.00  0.00     0.020 C
HETATM   15  C19 UNL     1      41.957 -20.138  27.437  1.00  0.00     0.122 C
HETATM   16  N3  UNL     1      40.945 -20.636  28.342  1.00  0.00    -0.359 N
ATOM     17  H3  UNL     1      41.197 -21.423  28.942  1.00  0.00     0.162 HD
HETATM   18  C20 UNL     1      39.653 -20.125  28.459  1.00  0.00     0.240 C
HETATM   19  O3  UNL     1      38.683 -20.887  28.706  1.00  0.00    -0.271 OA
HETATM   20  C21 UNL     1      39.311 -18.664  28.306  1.00  0.00     0.176 C
HETATM   21  N4  UNL     1      38.004 -18.570  27.685  1.00  0.00    -0.346 N
ATOM     22  H4  UNL     1      37.188 -18.705  28.281  1.00  0.00     0.163 HD
HETATM   23  C24 UNL     1      37.776 -18.307  26.321  1.00  0.00     0.241 C
HETATM   24  O4  UNL     1      36.950 -19.054  25.710  1.00  0.00    -0.271 OA
ENDROOT
BRANCH   1  25
HETATM   25  C6  UNL     1      38.542 -15.918  26.322  1.00  0.00     0.035 C
BRANCH  25  26
HETATM   26  C5  UNL     1      37.275 -15.283  26.747  1.00  0.00     0.002 C
BRANCH  26  27
HETATM   27  C4  UNL     1      37.378 -14.119  27.672  1.00  0.00     0.000 C
BRANCH  27  28
HETATM   28  C3  UNL     1      35.997 -13.790  28.236  1.00  0.00    -0.000 C
BRANCH  28  29
HETATM   29  C2  UNL     1      35.456 -14.835  29.151  1.00  0.00    -0.005 C
HETATM   30  C1  UNL     1      34.230 -14.231  29.830  1.00  0.00     0.005 C
ENDBRANCH  28  29
ENDBRANCH  27  28
ENDBRANCH  26  27
ENDBRANCH  25  26
ENDBRANCH   1  25
BRANCH   6  31
HETATM   31  C10 UNL     1      40.374 -17.249  21.828  1.00  0.00     0.038 C
BRANCH  31  32
HETATM   32  C11 UNL     1      41.476 -16.401  22.364  1.00  0.00    -0.020 C
HETATM   33  C12 UNL     1      42.176 -15.801  21.137  1.00  0.00     0.009 C
HETATM   34  C13 UNL     1      41.018 -15.235  23.187  1.00  0.00     0.009 C
ENDBRANCH  31  32
ENDBRANCH   6  31
BRANCH  20  35
HETATM   35  C22 UNL     1      39.255 -18.139  29.748  1.00  0.00     0.030 C
HETATM   36  C23 UNL     1      38.114 -17.175  29.914  1.00  0.00     0.007 C
ENDBRANCH  20  35
TORSDOF 8
ENDMDL