MODEL 4
REMARK VINA RESULT: -7.453284815      1.991      3.474
REMARK  10 active torsions:
REMARK  status: ('A' for Active; 'I' for Inactive)
REMARK    1  A    between atoms: C2_2  and  C3_3
REMARK    2  A    between atoms: C3_3  and  C4_4
REMARK    3  A    between atoms: C5_7  and  C6_8
REMARK    4  A    between atoms: C6_8  and  C8_10
REMARK    5  A    between atoms: C10_12  and  O1_13
REMARK    6  A    between atoms: C13_17  and  C14_18
REMARK    7  A    between atoms: C14_18  and  N2_19
REMARK       I    between atoms: N2_19  and  C15_20
REMARK    8  A    between atoms: C15_20  and  C16_22
REMARK    9  A    between atoms: C16_22  and  C17_23
REMARK   10  A    between atoms: C17_23  and  N3_24
ROOT
HETATM    1  C4  UNL     1      38.213 -16.513  26.353  1.00  0.00     0.169 C
HETATM    2  N1  UNL     1      37.142 -17.075  27.060  1.00  0.00    -0.402 N
ATOM      3  H1  UNL     1      36.615 -17.833  26.626  1.00  0.00     0.154 HD
HETATM    4  C5  UNL     1      36.766 -16.642  28.331  1.00  0.00     0.109 C
HETATM    5  C10 UNL     1      37.456 -17.455  29.411  1.00  0.00     0.140 C
HETATM    6  C11 UNL     1      37.943 -18.774  28.889  1.00  0.00     0.036 C
HETATM    7  C12 UNL     1      39.421 -18.873  28.985  1.00  0.00     0.034 C
HETATM    8  C13 UNL     1      39.967 -19.079  27.532  1.00  0.00     0.137 C
HETATM    9  N4  UNL     1      40.356 -17.795  27.043  1.00  0.00    -0.349 N
ATOM     10  H4  UNL     1      41.334 -17.700  26.770  1.00  0.00     0.163 HD
HETATM   11  C25 UNL     1      39.559 -16.641  26.888  1.00  0.00     0.240 C
HETATM   12  O3  UNL     1      40.128 -15.556  27.288  1.00  0.00    -0.271 OA
ENDROOT
BRANCH   8  13
HETATM   13  C14 UNL     1      41.126 -20.023  27.757  1.00  0.00     0.184 C
BRANCH  13  14
HETATM   14  N2  UNL     1      41.285 -20.709  28.918  1.00  0.00    -0.386 NA
HETATM   15  C15 UNL     1      41.448 -21.410  30.104  1.00  0.00     0.292 C
HETATM   16  O2  UNL     1      40.881 -21.143  31.170  1.00  0.00    -0.257 OA
BRANCH  15  17
HETATM   17  C16 UNL     1      42.376 -22.594  30.085  1.00  0.00     0.147 C
BRANCH  17  18
HETATM   18  C17 UNL     1      42.149 -23.671  29.141  1.00  0.00     0.247 C
BRANCH  18  19
HETATM   19  N3  UNL     1      41.306 -24.778  29.194  1.00  0.00    -0.070 N
HETATM   20  C18 UNL     1      40.741 -25.181  30.452  1.00  0.00     0.272 C
HETATM   21  C19 UNL     1      40.074 -24.396  28.408  1.00  0.00     0.237 C
HETATM   22  C20 UNL     1      40.392 -23.861  27.066  1.00  0.00     0.028 C
HETATM   23  C21 UNL     1      40.894 -24.965  26.155  1.00  0.00     0.002 C
HETATM   24  C22 UNL     1      40.260 -26.276  26.570  1.00  0.00     0.002 C
HETATM   25  C23 UNL     1      40.839 -26.806  27.849  1.00  0.00     0.028 C
HETATM   26  C24 UNL     1      41.872 -25.939  28.488  1.00  0.00     0.237 C
ENDBRANCH  18  19
ENDBRANCH  17  18
ENDBRANCH  15  17
ENDBRANCH  13  14
ENDBRANCH   8  13
BRANCH   5  27
HETATM   27  O1  UNL     1      38.492 -16.737  30.010  1.00  0.00    -0.394 OA
ATOM     28  H1  UNL     1      39.294 -17.246  30.045  1.00  0.00     0.210 HD
ENDBRANCH   5  27
BRANCH   1  29
HETATM   29  C3  UNL     1      38.219 -17.150  24.949  1.00  0.00     0.034 C
BRANCH  29  30
HETATM   30  C2  UNL     1      37.219 -18.287  24.929  1.00  0.00    -0.002 C
HETATM   31  C1  UNL     1      37.866 -19.592  24.517  1.00  0.00     0.005 C
ENDBRANCH  29  30
ENDBRANCH   1  29
BRANCH   4  32
HETATM   32  C6  UNL     1      36.761 -15.175  28.623  1.00  0.00     0.006 C
HETATM   33  C7  UNL     1      35.437 -14.782  29.298  1.00  0.00     0.012 C
BRANCH  32  34
HETATM   34  C8  UNL     1      36.748 -14.422  27.296  1.00  0.00     0.002 C
HETATM   35  C9  UNL     1      35.995 -13.114  27.475  1.00  0.00     0.005 C
ENDBRANCH  32  34
ENDBRANCH   4  32
TORSDOF 10
ENDMDL