MODEL 1
REMARK VINA RESULT: -7.374763611      0.000      0.000
REMARK  11 active torsions:
REMARK  status: ('A' for Active; 'I' for Inactive)
REMARK       I    between atoms: N1_2  and  C2_3
REMARK    1  A    between atoms: N1_2  and  C16_29
REMARK       I    between atoms: C2_3  and  N2_5
REMARK    2  A    between atoms: N2_5  and  N3_7
REMARK    3  A    between atoms: N3_7  and  C3_9
REMARK    4  A    between atoms: C3_9  and  N4_11
REMARK    5  A    between atoms: N4_11  and  C4_13
REMARK    6  A    between atoms: C4_13  and  C5_14
REMARK    7  A    between atoms: C5_14  and  C6_15
REMARK    8  A    between atoms: C5_14  and  C14_25
REMARK    9  A    between atoms: C6_15  and  C7_16
REMARK   10  A    between atoms: C7_16  and  C8_17
REMARK       I    between atoms: C8_17  and  N5_19
REMARK   11  A    between atoms: C14_25  and  C15_26
ROOT
HETATM    1  N4  UNL     1      38.155 -15.360  25.248  1.00  0.00    -0.366 N
ATOM      2  H4  UNL     1      37.226 -15.194  24.860  1.00  0.00     0.161 HD
ENDROOT
BRANCH   1   3
HETATM    3  C3  UNL     1      39.133 -15.813  24.343  1.00  0.00     0.186 C
HETATM    4  S1  UNL     1      40.680 -15.179  24.474  1.00  0.00    -0.040 SA
BRANCH   3   5
HETATM    5  N3  UNL     1      38.898 -16.747  23.356  1.00  0.00    -0.272 N
ATOM      6  H3  UNL     1      39.673 -16.939  22.721  1.00  0.00     0.189 HD
BRANCH   5   7
HETATM    7  N2  UNL     1      37.735 -17.450  23.130  1.00  0.00    -0.249 N
HETATM    8  C2  UNL     1      37.655 -18.840  23.509  1.00  0.00     0.337 C
HETATM    9  N1  UNL     1      36.487 -19.594  23.296  1.00  0.00    -0.333 N
HETATM   10  O1  UNL     1      38.692 -19.344  24.047  1.00  0.00    -0.245 OA
HETATM   11  C1  UNL     1      35.347 -18.995  22.656  1.00  0.00     0.155 C
ATOM     12  H2  UNL     1      36.935 -16.991  22.696  1.00  0.00     0.192 HD
BRANCH   9  13
HETATM   13  C16 UNL     1      36.419 -20.963  23.738  1.00  0.00     0.088 C
HETATM   14  C17 UNL     1      35.540 -21.839  22.862  1.00  0.00     0.025 C
HETATM   15  C18 UNL     1      35.167 -23.114  23.597  1.00  0.00     0.002 C
HETATM   16  C19 UNL     1      36.186 -23.449  24.669  1.00  0.00     0.000 C
HETATM   17  C20 UNL     1      36.296 -22.384  25.710  1.00  0.00     0.002 C
HETATM   18  C21 UNL     1      35.928 -21.024  25.178  1.00  0.00     0.025 C
ENDBRANCH   9  13
ENDBRANCH   5   7
ENDBRANCH   3   5
ENDBRANCH   1   3
BRANCH   1  19
HETATM   19  C4  UNL     1      38.310 -15.103  26.651  1.00  0.00     0.127 C
BRANCH  19  20
HETATM   20  C5  UNL     1      37.376 -16.084  27.401  1.00  0.00     0.014 C
BRANCH  20  21
HETATM   21  C6  UNL     1      38.033 -17.451  27.403  1.00  0.00     0.016 C
BRANCH  21  22
HETATM   22  C7  UNL     1      37.741 -18.278  28.605  1.00  0.00     0.103 C
BRANCH  22  23
HETATM   23  C8  UNL     1      39.020 -18.845  29.125  1.00  0.00     0.219 C
HETATM   24  O2  UNL     1      39.588 -18.270  30.123  1.00  0.00    -0.273 OA
HETATM   25  N5  UNL     1      39.661 -19.982  28.595  1.00  0.00    -0.352 N
HETATM   26  C9  UNL     1      39.140 -20.740  27.472  1.00  0.00     0.125 C
HETATM   27  C13 UNL     1      40.902 -20.455  29.164  1.00  0.00     0.125 C
HETATM   28  C10 UNL     1      40.313 -21.189  26.637  1.00  0.00     0.020 C
HETATM   29  C11 UNL     1      41.489 -20.240  26.748  1.00  0.00     0.003 C
HETATM   30  C12 UNL     1      42.017 -20.192  28.167  1.00  0.00     0.020 C
ENDBRANCH  22  23
ENDBRANCH  21  22
ENDBRANCH  20  21
BRANCH  20  31
HETATM   31  C14 UNL     1      37.143 -15.568  28.777  1.00  0.00     0.119 C
BRANCH  31  32
HETATM   32  C15 UNL     1      35.775 -15.090  29.041  1.00  0.00     0.172 C
HETATM   33  O3  UNL     1      34.817 -15.783  29.437  1.00  0.00    -0.648 OA
HETATM   34  O4  UNL     1      35.577 -13.710  28.808  1.00  0.00    -0.648 OA
ENDBRANCH  31  32
ENDBRANCH  20  31
ENDBRANCH  19  20
ENDBRANCH   1  19
TORSDOF 11
ENDMDL