MODEL 1
REMARK VINA RESULT: -7.480227742      0.000      0.000
REMARK  9 active torsions:
REMARK  status: ('A' for Active; 'I' for Inactive)
REMARK    1  A    between atoms: C2_2  and  C3_3
REMARK    2  A    between atoms: C3_3  and  N1_4
REMARK    3  A    between atoms: C3_3  and  C19_24
REMARK       I    between atoms: N1_4  and  C4_6
REMARK       I    between atoms: C4_6  and  N2_8
REMARK    4  A    between atoms: N2_8  and  C5_10
REMARK    5  A    between atoms: C5_10  and  C6_11
REMARK    6  A    between atoms: C5_10  and  C9_14
REMARK       I    between atoms: C19_24  and  N3_26
REMARK    7  A    between atoms: N3_26  and  C20_28
REMARK    8  A    between atoms: C20_28  and  C21_29
REMARK    9  A    between atoms: C20_28  and  C23_34
REMARK       I    between atoms: C21_29  and  N4_31
ROOT
HETATM    1  N1  UNL     1      39.632 -20.415  27.626  1.00  0.00    -0.330 N
ATOM      2  H1  UNL     1      40.489 -20.390  27.074  1.00  0.00     0.165 HD
HETATM    3  C4  UNL     1      38.430 -20.821  26.989  1.00  0.00     0.317 C
HETATM    4  O1  UNL     1      37.364 -20.749  27.642  1.00  0.00    -0.247 OA
HETATM    5  N2  UNL     1      38.449 -21.302  25.653  1.00  0.00    -0.337 N
ATOM      6  H2  UNL     1      39.325 -21.375  25.135  1.00  0.00     0.164 HD
ENDROOT
BRANCH   1   7
HETATM    7  C3  UNL     1      39.698 -20.043  28.994  1.00  0.00     0.178 C
BRANCH   7   8
HETATM    8  C2  UNL     1      41.032 -20.532  29.560  1.00  0.00     0.030 C
HETATM    9  C1  UNL     1      42.085 -20.353  28.481  1.00  0.00     0.007 C
ENDBRANCH   7   8
BRANCH   7  10
HETATM   10  C19 UNL     1      39.467 -18.630  29.346  1.00  0.00     0.241 C
HETATM   11  O2  UNL     1      39.727 -18.181  30.466  1.00  0.00    -0.271 OA
HETATM   12  N3  UNL     1      38.926 -17.771  28.353  1.00  0.00    -0.346 N
ATOM     13  H3  UNL     1      38.746 -18.209  27.449  1.00  0.00     0.163 HD
BRANCH  12  14
HETATM   14  C20 UNL     1      38.593 -16.366  28.436  1.00  0.00     0.180 C
BRANCH  14  15
HETATM   15  C21 UNL     1      37.216 -16.220  28.856  1.00  0.00     0.240 C
HETATM   16  O3  UNL     1      36.491 -17.230  29.178  1.00  0.00    -0.271 OA
HETATM   17  N4  UNL     1      36.575 -14.973  28.940  1.00  0.00    -0.364 N
HETATM   18  C22 UNL     1      35.174 -14.810  29.361  1.00  0.00     0.149 C
ATOM     19  H4  UNL     1      37.107 -14.137  28.697  1.00  0.00     0.161 HD
ENDBRANCH  14  15
BRANCH  14  20
HETATM   20  C23 UNL     1      38.822 -15.704  27.081  1.00  0.00     0.009 C
HETATM   21  C24 UNL     1      40.149 -16.218  26.512  1.00  0.00     0.012 C
HETATM   22  C25 UNL     1      37.789 -16.171  26.058  1.00  0.00     0.012 C
ENDBRANCH  14  20
ENDBRANCH  12  14
ENDBRANCH   7  10
ENDBRANCH   1   7
BRANCH   5  23
HETATM   23  C5  UNL     1      37.149 -21.697  25.025  1.00  0.00     0.098 C
BRANCH  23  24
HETATM   24  C6  UNL     1      37.218 -23.161  24.880  1.00  0.00     0.001 C
HETATM   25  C7  UNL     1      35.882 -23.897  24.931  1.00  0.00     0.011 C
HETATM   26  C8  UNL     1      38.282 -23.902  25.609  1.00  0.00     0.011 C
ENDBRANCH  23  24
BRANCH  23  27
HETATM   27  C9  UNL     1      36.844 -20.774  23.956  1.00  0.00    -0.018 C
HETATM   28  C10 UNL     1      37.304 -19.344  24.238  1.00  0.00     0.016 C
HETATM   29  C11 UNL     1      37.181 -18.437  23.066  1.00  0.00    -0.013 C
HETATM   30  C12 UNL     1      35.728 -18.460  22.633  1.00  0.00     0.009 C
HETATM   31  C16 UNL     1      38.051 -18.890  21.912  1.00  0.00     0.009 C
HETATM   32  C13 UNL     1      35.389 -19.846  22.202  1.00  0.00    -0.013 C
HETATM   33  C14 UNL     1      36.282 -20.358  21.087  1.00  0.00     0.009 C
HETATM   34  C18 UNL     1      35.476 -20.850  23.358  1.00  0.00     0.016 C
HETATM   35  C15 UNL     1      37.691 -20.323  21.629  1.00  0.00    -0.013 C
HETATM   36  C17 UNL     1      37.804 -21.197  22.817  1.00  0.00     0.016 C
ENDBRANCH  23  27
ENDBRANCH   5  23
TORSDOF 9
ENDMDL