MODEL 5
REMARK VINA RESULT: -6.651765990      2.038      7.180
REMARK  9 active torsions:
REMARK  status: ('A' for Active; 'I' for Inactive)
REMARK    1  A    between atoms: C2_2  and  C4_4
REMARK    2  A    between atoms: C4_4  and  C5_5
REMARK    3  A    between atoms: C5_5  and  N1_6
REMARK       I    between atoms: N1_6  and  C6_8
REMARK    4  A    between atoms: N3_11  and  C7_13
REMARK    5  A    between atoms: C7_13  and  C10_16
REMARK       I    between atoms: N4_20  and  C14_21
REMARK    6  A    between atoms: C14_21  and  C15_23
REMARK    7  A    between atoms: C15_23  and  N5_24
REMARK    8  A    between atoms: C15_23  and  C21_32
REMARK       I    between atoms: N5_24  and  C16_26
REMARK    9  A    between atoms: C16_26  and  C17_28
ROOT
HETATM    1  C10 UNL     1      39.550 -19.401  26.044  1.00  0.00     0.019 C
HETATM    2  C11 UNL     1      40.493 -20.497  26.359  1.00  0.00     0.057 C
HETATM    3  C12 UNL     1      40.851 -21.014  24.977  1.00  0.00     0.026 C
HETATM    4  C13 UNL     1      40.067 -20.099  24.014  1.00  0.00     0.132 C
HETATM    5  N4  UNL     1      38.882 -19.852  24.898  1.00  0.00    -0.321 N
HETATM    6  C14 UNL     1      37.626 -20.164  24.391  1.00  0.00     0.247 C
HETATM    7  O2  UNL     1      36.640 -20.126  25.158  1.00  0.00    -0.271 OA
ENDROOT
BRANCH   1   8
HETATM    8  C7  UNL     1      38.894 -18.646  27.130  1.00  0.00     0.061 C
HETATM    9  C8  UNL     1      39.955 -18.035  28.071  1.00  0.00     0.044 C
HETATM   10  C9  UNL     1      38.194 -19.691  27.990  1.00  0.00     0.044 C
BRANCH   8  11
HETATM   11  N3  UNL     1      37.931 -17.731  26.880  1.00  0.00    -0.381 N
HETATM   12  C4  UNL     1      37.369 -16.574  27.330  1.00  0.00     0.004 C
ATOM     13  H3  UNL     1      37.438 -18.013  26.032  1.00  0.00     0.160 HD
BRANCH  12  14
HETATM   14  C2  UNL     1      36.716 -16.427  28.650  1.00  0.00     0.024 C
HETATM   15  C1  UNL     1      35.854 -15.164  28.820  1.00  0.00     0.016 C
HETATM   16  C3  UNL     1      37.684 -16.360  29.815  1.00  0.00     0.016 C
ENDBRANCH  12  14
BRANCH  12  17
HETATM   17  C5  UNL     1      37.932 -15.292  26.719  1.00  0.00     0.176 C
BRANCH  17  18
HETATM   18  N1  UNL     1      38.181 -15.291  25.319  1.00  0.00    -0.340 N
HETATM   19  C6  UNL     1      39.351 -15.653  24.630  1.00  0.00     0.328 C
HETATM   20  N2  UNL     1      39.408 -15.587  23.223  1.00  0.00    -0.040 NA
HETATM   21  O1  UNL     1      40.381 -16.044  25.220  1.00  0.00    -0.251 OA
ATOM     22  H1  UNL     1      37.403 -14.986  24.734  1.00  0.00     0.164 HD
ENDBRANCH  17  18
ENDBRANCH  12  17
ENDBRANCH   8  11
ENDBRANCH   1   8
BRANCH   6  23
HETATM   23  C15 UNL     1      37.277 -20.548  23.016  1.00  0.00     0.184 C
BRANCH  23  24
HETATM   24  N5  UNL     1      36.196 -21.567  23.096  1.00  0.00    -0.346 N
HETATM   25  C16 UNL     1      36.449 -22.939  22.977  1.00  0.00     0.226 C
HETATM   26  O3  UNL     1      37.637 -23.313  22.795  1.00  0.00    -0.273 OA
ATOM     27  H5  UNL     1      35.237 -21.256  23.243  1.00  0.00     0.163 HD
BRANCH  25  28
HETATM   28  C17 UNL     1      35.396 -23.974  23.054  1.00  0.00     0.030 C
HETATM   29  C18 UNL     1      34.019 -23.431  22.718  1.00  0.00     0.024 C
HETATM   30  C19 UNL     1      35.666 -25.156  22.182  1.00  0.00     0.024 C
HETATM   31  C20 UNL     1      35.285 -24.506  24.488  1.00  0.00     0.024 C
ENDBRANCH  25  28
ENDBRANCH  23  24
BRANCH  23  32
HETATM   32  C21 UNL     1      36.704 -19.517  22.124  1.00  0.00    -0.022 C
HETATM   33  C22 UNL     1      36.722 -20.128  20.707  1.00  0.00     0.017 C
HETATM   34  C23 UNL     1      37.317 -18.192  22.004  1.00  0.00     0.017 C
HETATM   35  C24 UNL     1      35.191 -19.392  22.403  1.00  0.00     0.017 C
ENDBRANCH  23  32
ENDBRANCH   6  23
TORSDOF 9
ENDMDL