MODEL 5
REMARK VINA RESULT: -7.552576259      0.970      1.027
REMARK  8 active torsions:
REMARK  status: ('A' for Active; 'I' for Inactive)
REMARK    1  A    between atoms: C2_2  and  C4_4
REMARK    2  A    between atoms: C4_4  and  C5_5
REMARK    3  A    between atoms: C5_5  and  N1_6
REMARK    4  A    between atoms: C5_5  and  C18_22
REMARK       I    between atoms: N1_6  and  C6_8
REMARK       I    between atoms: C6_8  and  N2_10
REMARK       I    between atoms: C18_22  and  N3_24
REMARK    5  A    between atoms: N3_24  and  C19_26
REMARK    6  A    between atoms: C19_26  and  C20_27
REMARK       I    between atoms: C20_27  and  N4_29
REMARK    7  A    between atoms: N4_29  and  C21_31
REMARK    8  A    between atoms: C21_31  and  C23_33
ROOT
HETATM    1  C5  UNL     1      37.421 -20.775  25.824  1.00  0.00     0.178 C
ENDROOT
BRANCH   1   2
HETATM    2  C4  UNL     1      37.831 -19.802  24.769  1.00  0.00     0.038 C
BRANCH   2   3
HETATM    3  C2  UNL     1      36.940 -18.682  24.473  1.00  0.00    -0.020 C
HETATM    4  C1  UNL     1      36.370 -18.572  23.110  1.00  0.00     0.009 C
HETATM    5  C3  UNL     1      37.736 -17.387  24.715  1.00  0.00     0.009 C
ENDBRANCH   2   3
ENDBRANCH   1   2
BRANCH   1   6
HETATM    6  N1  UNL     1      37.802 -22.126  25.375  1.00  0.00    -0.330 N
HETATM    7  C6  UNL     1      36.754 -23.066  25.216  1.00  0.00     0.319 C
HETATM    8  O1  UNL     1      35.542 -22.697  25.467  1.00  0.00    -0.247 OA
HETATM    9  N2  UNL     1      36.947 -24.403  24.792  1.00  0.00    -0.334 N
HETATM   10  C7  UNL     1      35.742 -25.239  24.654  1.00  0.00     0.127 C
HETATM   11  C17 UNL     1      38.259 -24.879  24.511  1.00  0.00     0.127 C
HETATM   12  C8  UNL     1      34.974 -24.930  23.398  1.00  0.00     0.020 C
HETATM   13  C9  UNL     1      35.465 -25.646  22.182  1.00  0.00     0.002 C
HETATM   14  C10 UNL     1      35.311 -27.121  22.207  1.00  0.00     0.000 C
HETATM   15  C11 UNL     1      36.239 -27.798  21.253  1.00  0.00     0.000 C
HETATM   16  C12 UNL     1      37.690 -27.557  21.488  1.00  0.00     0.000 C
HETATM   17  C13 UNL     1      38.162 -27.924  22.873  1.00  0.00     0.000 C
HETATM   18  C14 UNL     1      39.472 -27.247  23.216  1.00  0.00     0.000 C
HETATM   19  C15 UNL     1      39.638 -26.962  24.679  1.00  0.00     0.002 C
HETATM   20  C16 UNL     1      38.520 -26.146  25.279  1.00  0.00     0.020 C
ATOM     21  H1  UNL     1      38.775 -22.373  25.188  1.00  0.00     0.165 HD
ENDBRANCH   1   6
BRANCH   1  22
HETATM   22  C18 UNL     1      37.877 -20.488  27.171  1.00  0.00     0.240 C
HETATM   23  O2  UNL     1      38.524 -21.347  27.812  1.00  0.00    -0.271 OA
HETATM   24  N3  UNL     1      37.612 -19.249  27.803  1.00  0.00    -0.351 N
ATOM     25  H3  UNL     1      37.085 -18.551  27.279  1.00  0.00     0.163 HD
BRANCH  24  26
HETATM   26  C19 UNL     1      38.033 -18.911  29.130  1.00  0.00     0.225 C
BRANCH  26  27
HETATM   27  C20 UNL     1      37.867 -17.482  29.480  1.00  0.00     0.236 C
HETATM   28  O3  UNL     1      38.198 -17.011  30.601  1.00  0.00    -0.272 OA
HETATM   29  N4  UNL     1      37.306 -16.634  28.480  1.00  0.00    -0.347 N
ATOM     30  H4  UNL     1      37.037 -17.005  27.568  1.00  0.00     0.163 HD
BRANCH  29  31
HETATM   31  C21 UNL     1      37.131 -15.233  28.794  1.00  0.00     0.169 C
HETATM   32  C22 UNL     1      37.572 -14.406  27.593  1.00  0.00     0.042 C
BRANCH  31  33
HETATM   33  C23 UNL     1      35.712 -14.930  29.092  1.00  0.00     0.253 C
HETATM   34  N5  UNL     1      35.224 -13.604  28.995  1.00  0.00    -0.060 NA
HETATM   35  O4  UNL     1      34.933 -15.860  29.433  1.00  0.00    -0.275 OA
ENDBRANCH  31  33
ENDBRANCH  29  31
ENDBRANCH  26  27
ENDBRANCH  24  26
ENDBRANCH   1  22
TORSDOF 8
ENDMDL