MODEL 3
REMARK VINA RESULT: -7.495610709      3.829      7.311
REMARK  10 active torsions:
REMARK  status: ('A' for Active; 'I' for Inactive)
REMARK    1  A    between atoms: C10_12  and  C11_13
REMARK    2  A    between atoms: C11_13  and  C12_14
REMARK    3  A    between atoms: C13_17  and  O1_18
REMARK    4  A    between atoms: C15_21  and  C16_22
REMARK    5  A    between atoms: C17_23  and  C18_24
REMARK    6  A    between atoms: C19_25  and  C20_26
REMARK    7  A    between atoms: C20_26  and  S1_27
REMARK    8  A    between atoms: S1_27  and  N3_30
REMARK    9  A    between atoms: N3_30  and  C21_32
REMARK   10  A    between atoms: C21_32  and  C22_33
ROOT
HETATM    1  C12 UNL     1      39.024 -21.000  27.935  1.00  0.00     0.046 A
HETATM    2  N2  UNL     1      39.572 -20.888  29.154  1.00  0.00    -0.336 N
ATOM      3  H2  UNL     1      39.195 -20.308  29.902  1.00  0.00     0.168 HD
HETATM    4  C13 UNL     1      40.667 -21.628  29.263  1.00  0.00     0.141 A
HETATM    5  C14 UNL     1      40.849 -22.262  28.041  1.00  0.00     0.069 A
HETATM    6  C15 UNL     1      39.845 -21.884  27.216  1.00  0.00    -0.005 A
ENDROOT
BRANCH   6   7
HETATM    7  C16 UNL     1      39.577 -22.261  25.859  1.00  0.00     0.014 C
HETATM    8  C17 UNL     1      38.800 -23.132  25.312  1.00  0.00     0.001 C
BRANCH   8   9
HETATM    9  C18 UNL     1      37.875 -24.095  25.846  1.00  0.00    -0.003 C
HETATM   10  C19 UNL     1      37.005 -24.780  25.122  1.00  0.00    -0.010 C
BRANCH  10  11
HETATM   11  C20 UNL     1      36.785 -24.726  23.681  1.00  0.00     0.190 C
BRANCH  11  12
HETATM   12  S1  UNL     1      35.031 -24.947  23.355  1.00  0.00     0.233 S
HETATM   13  O2  UNL     1      34.966 -25.905  22.172  1.00  0.00    -0.205 OA
HETATM   14  O3  UNL     1      34.359 -25.644  24.493  1.00  0.00    -0.205 OA
BRANCH  12  15
HETATM   15  N3  UNL     1      34.315 -23.501  22.900  1.00  0.00    -0.298 N
ATOM     16  H3  UNL     1      33.301 -23.406  22.841  1.00  0.00     0.177 HD
BRANCH  15  17
HETATM   17  C21 UNL     1      35.171 -22.424  22.600  1.00  0.00     0.076 C
BRANCH  17  18
HETATM   18  C22 UNL     1      34.928 -21.156  23.327  1.00  0.00     0.016 C
HETATM   19  C23 UNL     1      35.361 -19.918  22.629  1.00  0.00     0.015 C
HETATM   20  C24 UNL     1      35.740 -21.232  24.629  1.00  0.00     0.015 C
ENDBRANCH  17  18
ENDBRANCH  15  17
ENDBRANCH  12  15
ENDBRANCH  11  12
ENDBRANCH  10  11
ENDBRANCH   8   9
ENDBRANCH   6   7
BRANCH   1  21
HETATM   21  C11 UNL     1      37.843 -20.298  27.471  1.00  0.00     0.060 C
BRANCH  21  22
HETATM   22  C10 UNL     1      37.778 -19.029  27.157  1.00  0.00     0.040 A
HETATM   23  C2  UNL     1      38.134 -18.418  25.983  1.00  0.00    -0.033 A
HETATM   24  C1  UNL     1      38.698 -18.946  24.723  1.00  0.00     0.050 C
HETATM   25  C3  UNL     1      37.870 -17.055  26.131  1.00  0.00     0.038 A
HETATM   26  C4  UNL     1      37.358 -16.849  27.385  1.00  0.00     0.035 A
HETATM   27  C5  UNL     1      36.988 -15.662  27.880  1.00  0.00    -0.053 C
HETATM   28  N1  UNL     1      37.311 -18.039  27.982  1.00  0.00    -0.356 N
HETATM   29  C6  UNL     1      37.057 -14.366  27.179  1.00  0.00     0.036 C
HETATM   30  C9  UNL     1      36.429 -15.391  29.231  1.00  0.00     0.036 C
HETATM   31  C7  UNL     1      35.894 -13.577  27.723  1.00  0.00     0.005 C
HETATM   32  C8  UNL     1      35.557 -14.167  29.069  1.00  0.00     0.005 C
ATOM     33  H1  UNL     1      36.972 -18.194  28.931  1.00  0.00     0.166 HD
ENDBRANCH  21  22
ENDBRANCH   1  21
BRANCH   4  34
HETATM   34  O1  UNL     1      41.491 -21.761  30.368  1.00  0.00    -0.346 OA
ATOM     35  H1  UNL     1      42.440 -21.816  30.382  1.00  0.00     0.219 HD
ENDBRANCH   4  34
TORSDOF 10
ENDMDL