MODEL 1
REMARK VINA RESULT: -6.899779079      0.000      0.000
REMARK  9 active torsions:
REMARK  status: ('A' for Active; 'I' for Inactive)
REMARK    1  A    between atoms: C2_2  and  C3_3
REMARK    2  A    between atoms: C3_3  and  C5_5
REMARK    3  A    between atoms: C6_8  and  O1_9
REMARK    4  A    between atoms: C7_11  and  C8_12
REMARK    5  A    between atoms: C8_12  and  C9_13
REMARK    6  A    between atoms: C13_20  and  C14_21
REMARK    7  A    between atoms: C14_21  and  C15_22
REMARK    8  A    between atoms: C19_29  and  C20_30
REMARK    9  A    between atoms: C20_30  and  C21_31
ROOT
HETATM    1  C5  UNL     1      38.145 -20.226  25.669  1.00  0.00     0.179 C
HETATM    2  N1  UNL     1      38.798 -21.372  25.124  1.00  0.00    -0.359 N
ATOM      3  H1  UNL     1      38.208 -21.920  24.497  1.00  0.00     0.162 HD
HETATM    4  C6  UNL     1      40.082 -21.891  25.276  1.00  0.00     0.135 C
HETATM    5  C7  UNL     1      40.741 -22.481  26.467  1.00  0.00     0.159 C
HETATM    6  N2  UNL     1      39.859 -22.644  27.605  1.00  0.00    -0.347 N
ATOM      7  H2  UNL     1      38.958 -23.085  27.423  1.00  0.00     0.163 HD
HETATM    8  C12 UNL     1      40.111 -22.259  28.931  1.00  0.00     0.249 C
HETATM    9  O2  UNL     1      39.565 -22.982  29.821  1.00  0.00    -0.271 OA
HETATM   10  C13 UNL     1      40.919 -21.135  29.410  1.00  0.00     0.277 C
HETATM   11  N3  UNL     1      40.028 -20.062  29.812  1.00  0.00    -0.060 N
ATOM     12  H31 UNL     1      40.396 -19.543  30.609  1.00  0.00     0.278 HD
ATOM     13  H32 UNL     1      39.175 -20.418  30.243  1.00  0.00     0.278 HD
HETATM   14  C18 UNL     1      39.737 -19.177  28.668  1.00  0.00     0.262 C
HETATM   15  C19 UNL     1      38.295 -18.750  28.634  1.00  0.00     0.133 C
HETATM   16  N4  UNL     1      37.396 -19.762  28.117  1.00  0.00    -0.350 N
ATOM     17  H4  UNL     1      36.632 -20.009  28.746  1.00  0.00     0.163 HD
HETATM   18  C25 UNL     1      37.396 -20.452  26.921  1.00  0.00     0.241 C
HETATM   19  O3  UNL     1      36.614 -21.481  26.848  1.00  0.00    -0.271 OA
ENDROOT
BRANCH  15  20
HETATM   20  C20 UNL     1      38.063 -17.416  28.080  1.00  0.00    -0.000 C
BRANCH  20  21
HETATM   21  C21 UNL     1      37.021 -16.512  28.536  1.00  0.00    -0.000 C
HETATM   22  C22 UNL     1      36.692 -15.280  28.365  1.00  0.00    -0.088 C
HETATM   23  C23 UNL     1      35.436 -14.775  29.097  1.00  0.00     0.043 C
HETATM   24  C24 UNL     1      37.399 -14.256  27.597  1.00  0.00     0.043 C
ENDBRANCH  20  21
ENDBRANCH  15  20
BRANCH  10  25
HETATM   25  C14 UNL     1      41.987 -21.473  30.381  1.00  0.00     0.046 C
BRANCH  25  26
HETATM   26  C15 UNL     1      43.344 -21.764  29.909  1.00  0.00    -0.020 C
HETATM   27  C16 UNL     1      43.655 -20.732  28.797  1.00  0.00     0.009 C
HETATM   28  C17 UNL     1      44.378 -21.482  30.973  1.00  0.00     0.009 C
ENDBRANCH  25  26
ENDBRANCH  10  25
BRANCH   1  29
HETATM   29  C3  UNL     1      37.106 -19.620  24.711  1.00  0.00     0.013 C
HETATM   30  C4  UNL     1      36.957 -20.344  23.426  1.00  0.00     0.012 C
BRANCH  29  31
HETATM   31  C2  UNL     1      37.178 -18.141  24.599  1.00  0.00     0.002 C
HETATM   32  C1  UNL     1      38.527 -17.540  24.437  1.00  0.00     0.005 C
ENDBRANCH  29  31
ENDBRANCH   1  29
BRANCH   4  33
HETATM   33  O1  UNL     1      40.885 -21.890  24.249  1.00  0.00    -0.348 OA
ATOM     34  H1  UNL     1      40.536 -22.126  23.397  1.00  0.00     0.219 HD
ENDBRANCH   4  33
BRANCH   5  35
HETATM   35  C8  UNL     1      41.538 -23.714  26.202  1.00  0.00     0.037 C
BRANCH  35  36
HETATM   36  C9  UNL     1      42.756 -23.976  26.962  1.00  0.00    -0.020 C
HETATM   37  C10 UNL     1      44.007 -24.325  26.251  1.00  0.00     0.009 C
HETATM   38  C11 UNL     1      42.590 -24.978  28.094  1.00  0.00     0.009 C
ENDBRANCH  35  36
ENDBRANCH   5  35
TORSDOF 9
ENDMDL