MODEL 4
REMARK VINA RESULT: -8.271761805      3.281      4.665
REMARK  11 active torsions:
REMARK  status: ('A' for Active; 'I' for Inactive)
REMARK    1  A    between atoms: C2_4  and  O1_5
REMARK    2  A    between atoms: C2_4  and  N2_7
REMARK    3  A    between atoms: N2_7  and  C3_9
REMARK    4  A    between atoms: N3_11  and  C5_13
REMARK    5  A    between atoms: C5_13  and  C6_14
REMARK    6  A    between atoms: C6_14  and  N4_15
REMARK       I    between atoms: N4_15  and  C7_17
REMARK       I    between atoms: C7_17  and  N5_19
REMARK    7  A    between atoms: N5_19  and  C8_21
REMARK    8  A    between atoms: C11_25  and  C12_26
REMARK    9  A    between atoms: C15_29  and  C16_30
REMARK   10  A    between atoms: C16_30  and  O3_31
REMARK   11  A    between atoms: C16_30  and  C17_33
ROOT
HETATM    1  C8  UNL     1      41.861 -19.920  26.058  1.00  0.00     0.038 A
HETATM    2  C9  UNL     1      41.192 -20.386  24.937  1.00  0.00     0.054 A
HETATM    3  C10 UNL     1      39.879 -20.044  24.728  1.00  0.00     0.047 A
HETATM    4 CL1  UNL     1      39.183 -20.589  23.194  1.00  0.00    -0.083 Cl
HETATM    5  C11 UNL     1      39.136 -19.238  25.587  1.00  0.00     0.000 A
HETATM    6  C15 UNL     1      39.767 -18.759  26.698  1.00  0.00     0.012 A
HETATM    7  C24 UNL     1      41.120 -19.123  26.894  1.00  0.00     0.044 A
ENDROOT
BRANCH   1   8
HETATM    8  N5  UNL     1      43.173 -20.357  26.329  1.00  0.00    -0.309 N
HETATM    9  C7  UNL     1      43.585 -21.581  26.888  1.00  0.00     0.324 C
HETATM   10  N4  UNL     1      44.952 -21.783  27.211  1.00  0.00    -0.321 N
HETATM   11  O2  UNL     1      42.757 -22.477  27.096  1.00  0.00    -0.247 OA
ATOM     12  H4  UNL     1      45.584 -21.001  27.038  1.00  0.00     0.169 HD
ATOM     13  H5  UNL     1      43.919 -19.704  26.090  1.00  0.00     0.170 HD
BRANCH  10  14
HETATM   14  C6  UNL     1      45.526 -22.952  27.746  1.00  0.00     0.085 C
BRANCH  14  15
HETATM   15  C5  UNL     1      45.553 -23.071  29.243  1.00  0.00     0.165 C
BRANCH  15  16
HETATM   16  N3  UNL     1      44.207 -22.922  29.788  1.00  0.00    -0.375 N
HETATM   17  C3  UNL     1      43.828 -21.929  30.549  1.00  0.00     0.076 C
HETATM   18  C4  UNL     1      44.773 -20.842  30.900  1.00  0.00     0.089 C
ATOM     19  H3  UNL     1      43.518 -23.639  29.560  1.00  0.00     0.161 HD
BRANCH  17  20
HETATM   20  N2  UNL     1      42.489 -21.923  31.007  1.00  0.00    -0.313 N
ATOM     21  H2  UNL     1      42.348 -22.122  31.997  1.00  0.00     0.170 HD
BRANCH  20  22
HETATM   22  C2  UNL     1      41.328 -21.673  30.244  1.00  0.00     0.217 C
HETATM   23  N1  UNL     1      40.791 -22.378  29.253  1.00  0.00    -0.361 N
HETATM   24  C1  UNL     1      39.623 -22.100  28.471  1.00  0.00     0.150 C
ATOM     25  H1  UNL     1      41.280 -23.241  29.016  1.00  0.00     0.162 HD
BRANCH  22  26
HETATM   26  O1  UNL     1      40.727 -20.545  30.631  1.00  0.00    -0.333 OA
ATOM     27  H1  UNL     1      40.252 -20.035  29.985  1.00  0.00     0.220 HD
ENDBRANCH  22  26
ENDBRANCH  20  22
ENDBRANCH  17  20
ENDBRANCH  15  16
ENDBRANCH  14  15
ENDBRANCH  10  14
ENDBRANCH   1   8
BRANCH   6  28
HETATM   28  C16 UNL     1      39.157 -17.995  27.740  1.00  0.00     0.093 C
BRANCH  28  29
HETATM   29  O3  UNL     1      39.468 -18.548  28.924  1.00  0.00    -0.359 OA
ATOM     30  H3  UNL     1      38.870 -18.218  29.585  1.00  0.00     0.217 HD
ENDBRANCH  28  29
BRANCH  28  31
HETATM   31  C17 UNL     1      38.343 -16.859  27.879  1.00  0.00     0.072 A
HETATM   32  C18 UNL     1      38.643 -15.656  27.246  1.00  0.00    -0.042 A
HETATM   33  C19 UNL     1      39.905 -15.584  26.481  1.00  0.00     0.049 C
HETATM   34  C20 UNL     1      37.811 -14.546  27.371  1.00  0.00     0.032 A
HETATM   35  C21 UNL     1      36.659 -14.590  28.128  1.00  0.00     0.009 A
HETATM   36  C22 UNL     1      35.753 -13.405  28.247  1.00  0.00     0.068 C
HETATM   37  N6  UNL     1      36.387 -15.743  28.736  1.00  0.00    -0.327 N
HETATM   38  C23 UNL     1      37.169 -16.804  28.623  1.00  0.00     0.259 A
ATOM     39  H6  UNL     1      35.546 -15.811  29.308  1.00  0.00     0.169 HD
HETATM   40  O4  UNL     1      36.842 -17.857  29.228  1.00  0.00    -0.267 OA
ENDBRANCH  28  31
ENDBRANCH   6  28
BRANCH   5  41
HETATM   41  C12 UNL     1      37.676 -19.226  25.344  1.00  0.00    -0.075 C
HETATM   42  C13 UNL     1      36.851 -20.036  26.239  1.00  0.00     0.044 C
HETATM   43  C14 UNL     1      37.078 -18.006  24.741  1.00  0.00     0.044 C
ENDBRANCH   5  41
TORSDOF 11
ENDMDL