MODEL 3
REMARK VINA RESULT: -7.432298675      3.936      7.666
REMARK  9 active torsions:
REMARK  status: ('A' for Active; 'I' for Inactive)
REMARK       I    between atoms: N1_2  and  C2_4
REMARK    1  A    between atoms: C2_4  and  C3_6
REMARK    2  A    between atoms: C6_9  and  N2_10
REMARK    3  A    between atoms: N2_10  and  C7_12
REMARK    4  A    between atoms: C7_12  and  N3_14
REMARK    5  A    between atoms: N3_14  and  C8_16
REMARK    6  A    between atoms: C11_19  and  S2_20
REMARK    7  A    between atoms: S2_20  and  N4_23
REMARK    8  A    between atoms: N4_23  and  C12_25
REMARK    9  A    between atoms: C15_28  and  C16_29
ROOT
HETATM    1  C8  UNL     1      39.829 -17.677  27.225  1.00  0.00     0.034 A
HETATM    2  C9  UNL     1      39.338 -17.813  28.522  1.00  0.00     0.031 A
HETATM    3  C10 UNL     1      39.593 -18.943  29.224  1.00  0.00     0.027 A
HETATM    4  C11 UNL     1      40.334 -19.970  28.678  1.00  0.00     0.080 A
HETATM    5  C19 UNL     1      40.812 -19.825  27.402  1.00  0.00     0.027 A
HETATM    6  C20 UNL     1      40.574 -18.695  26.658  1.00  0.00     0.031 A
ENDROOT
BRANCH   1   7
HETATM    7  N3  UNL     1      39.476 -16.492  26.554  1.00  0.00    -0.333 N
ATOM      8  H3  UNL     1      40.189 -15.770  26.456  1.00  0.00     0.168 HD
BRANCH   7   9
HETATM    9  C7  UNL     1      38.216 -16.238  26.014  1.00  0.00     0.176 C
HETATM   10  S1  UNL     1      37.212 -15.240  26.882  1.00  0.00    -0.041 SA
BRANCH   9  11
HETATM   11  N2  UNL     1      37.691 -16.774  24.832  1.00  0.00    -0.333 N
ATOM     12  H2  UNL     1      37.724 -16.179  24.004  1.00  0.00     0.168 HD
BRANCH  11  13
HETATM   13  C6  UNL     1      37.119 -18.060  24.672  1.00  0.00     0.034 A
HETATM   14  C5  UNL     1      37.063 -19.040  25.627  1.00  0.00     0.030 A
HETATM   15  C4  UNL     1      36.508 -20.304  25.370  1.00  0.00     0.019 A
HETATM   16  C3  UNL     1      35.987 -20.627  24.138  1.00  0.00     0.032 A
HETATM   17  C22 UNL     1      36.041 -19.643  23.177  1.00  0.00     0.019 A
HETATM   18  C21 UNL     1      36.580 -18.404  23.415  1.00  0.00     0.030 A
BRANCH  16  19
HETATM   19  C2  UNL     1      35.410 -21.936  23.860  1.00  0.00     0.251 C
HETATM   20  N1  UNL     1      34.542 -22.188  22.780  1.00  0.00    -0.361 N
HETATM   21  C1  UNL     1      34.014 -23.519  22.575  1.00  0.00     0.149 C
ATOM     22  H1  UNL     1      34.286 -21.433  22.143  1.00  0.00     0.162 HD
HETATM   23  O1  UNL     1      35.725 -22.879  24.650  1.00  0.00    -0.268 OA
ENDBRANCH  16  19
ENDBRANCH  11  13
ENDBRANCH   9  11
ENDBRANCH   7   9
ENDBRANCH   1   7
BRANCH   4  24
HETATM   24  S2  UNL     1      40.681 -21.442  29.558  1.00  0.00     0.263 S
HETATM   25  O2  UNL     1      40.924 -21.037  31.002  1.00  0.00    -0.200 OA
HETATM   26  O3  UNL     1      39.500 -22.331  29.437  1.00  0.00    -0.200 OA
BRANCH  24  27
HETATM   27  N4  UNL     1      42.109 -22.201  28.973  1.00  0.00    -0.281 N
ATOM     28  H4  UNL     1      42.042 -22.837  28.180  1.00  0.00     0.179 HD
BRANCH  27  29
HETATM   29  C12 UNL     1      43.385 -21.964  29.568  1.00  0.00     0.042 A
HETATM   30  C13 UNL     1      43.943 -22.957  30.382  1.00  0.00     0.031 A
HETATM   31  C14 UNL     1      45.167 -22.735  30.959  1.00  0.00     0.020 A
HETATM   32  C15 UNL     1      45.869 -21.554  30.758  1.00  0.00     0.041 A
HETATM   33  C17 UNL     1      45.335 -20.568  29.960  1.00  0.00     0.020 A
HETATM   34  C18 UNL     1      44.091 -20.801  29.379  1.00  0.00     0.031 A
BRANCH  32  35
HETATM   35  C16 UNL     1      47.148 -21.351  31.375  1.00  0.00     0.209 C
HETATM   36  O4  UNL     1      47.569 -22.153  32.238  1.00  0.00    -0.644 OA
HETATM   37  O5  UNL     1      47.931 -20.271  31.026  1.00  0.00    -0.644 OA
ENDBRANCH  32  35
ENDBRANCH  27  29
ENDBRANCH  24  27
ENDBRANCH   4  24
TORSDOF 9
ENDMDL