MODEL 5
REMARK VINA RESULT: -7.162773994      6.766      8.538
REMARK  11 active torsions:
REMARK  status: ('A' for Active; 'I' for Inactive)
REMARK    1  A    between atoms: C2_2  and  C3_3
REMARK    2  A    between atoms: C3_3  and  C4_4
REMARK    3  A    between atoms: C4_4  and  N1_5
REMARK       I    between atoms: N1_5  and  C5_6
REMARK       I    between atoms: C5_6  and  N2_8
REMARK    4  A    between atoms: N2_8  and  C6_10
REMARK    5  A    between atoms: C9_13  and  N3_14
REMARK    6  A    between atoms: N3_14  and  C10_16
REMARK    7  A    between atoms: C10_16  and  N4_18
REMARK    8  A    between atoms: N4_18  and  N5_20
REMARK       I    between atoms: N5_20  and  C11_22
REMARK    9  A    between atoms: C11_22  and  C12_24
REMARK   10  A    between atoms: C12_24  and  O3_25
REMARK   11  A    between atoms: O3_25  and  C13_26
ROOT
HETATM    1  N3  UNL     1      38.429 -15.644  28.300  1.00  0.00    -0.332 N
ATOM      2  H3  UNL     1      39.098 -15.140  28.882  1.00  0.00     0.168 HD
ENDROOT
BRANCH   1   3
HETATM    3  C9  UNL     1      38.597 -17.028  28.194  1.00  0.00     0.034 A
HETATM    4  C8  UNL     1      39.832 -17.590  27.834  1.00  0.00     0.032 A
HETATM    5  C7  UNL     1      39.976 -18.939  27.727  1.00  0.00     0.032 A
HETATM    6  C6  UNL     1      38.929 -19.849  27.964  1.00  0.00     0.037 A
HETATM    7  C20 UNL     1      37.724 -19.286  28.318  1.00  0.00     0.032 A
HETATM    8  C19 UNL     1      37.574 -17.914  28.426  1.00  0.00     0.032 A
BRANCH   6   9
HETATM    9  N2  UNL     1      39.157 -21.223  27.774  1.00  0.00    -0.297 N
HETATM   10  C5  UNL     1      39.835 -22.089  28.758  1.00  0.00     0.397 C
HETATM   11  N1  UNL     1      39.956 -23.391  28.472  1.00  0.00    -0.369 NA
HETATM   12  O1  UNL     1      40.227 -21.440  29.786  1.00  0.00    -0.230 OA
ATOM     13  H2  UNL     1      38.834 -21.646  26.903  1.00  0.00     0.172 HD
BRANCH  11  14
HETATM   14  C4  UNL     1      40.080 -24.723  28.181  1.00  0.00     0.161 C
BRANCH  14  15
HETATM   15  C3  UNL     1      40.185 -25.626  29.385  1.00  0.00     0.059 C
BRANCH  15  16
HETATM   16  C2  UNL     1      41.242 -26.671  29.261  1.00  0.00     0.002 C
HETATM   17  C1  UNL     1      40.804 -27.936  28.608  1.00  0.00     0.005 C
ENDBRANCH  15  16
ENDBRANCH  14  15
ENDBRANCH  11  14
ENDBRANCH   6   9
ENDBRANCH   1   3
BRANCH   1  18
HETATM   18  C10 UNL     1      37.425 -14.885  27.681  1.00  0.00     0.191 C
HETATM   19  S1  UNL     1      36.071 -14.493  28.457  1.00  0.00    -0.039 SA
BRANCH  18  20
HETATM   20  N4  UNL     1      37.624 -14.460  26.341  1.00  0.00    -0.273 N
ATOM     21  H4  UNL     1      37.571 -13.465  26.119  1.00  0.00     0.189 HD
BRANCH  20  22
HETATM   22  N5  UNL     1      37.891 -15.373  25.325  1.00  0.00    -0.266 N
HETATM   23  C11 UNL     1      39.109 -15.671  24.716  1.00  0.00     0.260 C
HETATM   24  O2  UNL     1      40.233 -15.187  24.974  1.00  0.00    -0.269 OA
ATOM     25  H5  UNL     1      37.086 -15.894  24.979  1.00  0.00     0.190 HD
BRANCH  23  26
HETATM   26  C12 UNL     1      39.076 -16.700  23.600  1.00  0.00     0.280 C
BRANCH  26  27
HETATM   27  O3  UNL     1      39.617 -17.909  24.052  1.00  0.00    -0.342 OA
BRANCH  27  28
HETATM   28  C13 UNL     1      38.872 -19.028  24.255  1.00  0.00     0.069 A
HETATM   29  C14 UNL     1      39.326 -20.323  24.150  1.00  0.00     0.038 A
HETATM   30  C15 UNL     1      38.511 -21.417  24.368  1.00  0.00     0.022 A
HETATM   31  C16 UNL     1      37.196 -21.248  24.703  1.00  0.00     0.011 A
HETATM   32 BR1  UNL     1      36.074 -22.758  24.998  1.00  0.00    -0.051 Br
HETATM   33  C17 UNL     1      36.705 -19.946  24.819  1.00  0.00     0.022 A
HETATM   34  C18 UNL     1      37.529 -18.872  24.598  1.00  0.00     0.038 A
ENDBRANCH  27  28
ENDBRANCH  26  27
ENDBRANCH  23  26
ENDBRANCH  20  22
ENDBRANCH  18  20
ENDBRANCH   1  18
TORSDOF 11
ENDMDL