MODEL 3
REMARK VINA RESULT: -7.709861257      2.580      3.875
REMARK  10 active torsions:
REMARK  status: ('A' for Active; 'I' for Inactive)
REMARK    1  A    between atoms: C5_5  and  C6_6
REMARK    2  A    between atoms: C6_6  and  N2_10
REMARK    3  A    between atoms: N2_10  and  O1_12
REMARK    4  A    between atoms: C10_16  and  N3_17
REMARK       I    between atoms: N3_17  and  C11_19
REMARK       I    between atoms: C11_19  and  N4_21
REMARK    5  A    between atoms: N4_21  and  C12_23
REMARK    6  A    between atoms: C12_23  and  C13_24
REMARK    7  A    between atoms: C13_24  and  C14_25
REMARK    8  A    between atoms: C13_24  and  C15_28
REMARK    9  A    between atoms: C13_24  and  C21_35
REMARK   10  A    between atoms: C14_25  and  O3_26
ROOT
HETATM    1  C1  UNL     1      39.078 -17.713  24.886  1.00  0.00     0.018 C
HETATM    2  C2  UNL     1      38.423 -17.183  25.759  1.00  0.00    -0.075 C
HETATM    3  C3  UNL     1      37.637 -16.580  26.832  1.00  0.00     0.044 A
HETATM    4  C4  UNL     1      37.238 -15.262  26.779  1.00  0.00     0.038 A
HETATM    5  C5  UNL     1      36.507 -14.667  27.770  1.00  0.00     0.011 A
HETATM    6  C8  UNL     1      36.172 -15.467  28.872  1.00  0.00     0.017 A
HETATM    7  C9  UNL     1      36.575 -16.803  28.935  1.00  0.00     0.032 A
HETATM    8  C10 UNL     1      37.298 -17.372  27.937  1.00  0.00     0.055 A
ENDROOT
BRANCH   8   9
HETATM    9  N3  UNL     1      37.642 -18.712  27.919  1.00  0.00    -0.308 N
HETATM   10  C11 UNL     1      38.770 -19.382  28.463  1.00  0.00     0.320 C
HETATM   11  O2  UNL     1      39.635 -18.680  29.002  1.00  0.00    -0.247 OA
HETATM   12  N4  UNL     1      38.837 -20.755  28.357  1.00  0.00    -0.342 N
ATOM     13  H4  UNL     1      37.992 -21.148  27.942  1.00  0.00     0.164 HD
ATOM     14  H3  UNL     1      36.978 -19.316  27.436  1.00  0.00     0.170 HD
BRANCH  12  15
HETATM   15  C12 UNL     1      39.784 -21.757  28.679  1.00  0.00     0.141 C
BRANCH  15  16
HETATM   16  C13 UNL     1      40.726 -22.181  27.552  1.00  0.00     0.031 C
BRANCH  16  17
HETATM   17  C14 UNL     1      39.998 -22.120  26.248  1.00  0.00     0.180 C
BRANCH  17  18
HETATM   18  O3  UNL     1      38.711 -22.691  26.287  1.00  0.00    -0.400 OA
ATOM     19  H3  UNL     1      38.287 -22.739  25.438  1.00  0.00     0.209 HD
ENDBRANCH  17  18
ENDBRANCH  16  17
BRANCH  16  20
HETATM   20  C15 UNL     1      41.027 -23.650  27.870  1.00  0.00    -0.045 A
HETATM   21  C16 UNL     1      40.852 -24.088  29.172  1.00  0.00     0.009 A
HETATM   22  C17 UNL     1      41.043 -25.430  29.535  1.00  0.00     0.019 A
HETATM   23  C18 UNL     1      41.415 -26.329  28.574  1.00  0.00     0.011 A
HETATM   24 BR1  UNL     1      41.661 -28.173  29.084  1.00  0.00    -0.051 Br
HETATM   25  C19 UNL     1      41.591 -25.913  27.290  1.00  0.00     0.019 A
HETATM   26  C20 UNL     1      41.395 -24.580  26.959  1.00  0.00     0.009 A
ENDBRANCH  16  20
BRANCH  16  27
HETATM   27  C21 UNL     1      41.967 -21.383  27.527  1.00  0.00    -0.036 C
HETATM   28  C22 UNL     1      41.894 -20.195  26.610  1.00  0.00     0.015 C
HETATM   29  C23 UNL     1      42.370 -20.822  28.900  1.00  0.00     0.015 C
HETATM   30  C24 UNL     1      43.190 -22.190  27.110  1.00  0.00     0.015 C
ENDBRANCH  16  27
ENDBRANCH  15  16
ENDBRANCH  12  15
ENDBRANCH   8   9
BRANCH   5  31
HETATM   31  C6  UNL     1      36.117 -13.276  27.730  1.00  0.00     0.129 C
HETATM   32  N1  UNL     1      35.770 -12.701  28.845  1.00  0.00    -0.383 N
ATOM     33  H12 UNL     1      35.772 -13.274  29.689  1.00  0.00     0.157 HD
ATOM     34  H11 UNL     1      35.495 -11.719  28.816  1.00  0.00     0.157 HD
BRANCH  31  35
HETATM   35  N2  UNL     1      36.115 -12.487  26.568  1.00  0.00    -0.251 N
ATOM     36  H2  UNL     1      36.951 -12.456  25.986  1.00  0.00     0.196 HD
BRANCH  35  37
HETATM   37  O1  UNL     1      35.037 -11.771  26.203  1.00  0.00    -0.284 OA
HETATM   38  C7  UNL     1      35.240 -10.942  25.115  1.00  0.00     0.237 C
ENDBRANCH  35  37
ENDBRANCH  31  35
ENDBRANCH   5  31
TORSDOF 10
ENDMDL