MODEL 4
REMARK VINA RESULT: -7.383907162      1.916      6.041
REMARK  9 active torsions:
REMARK  status: ('A' for Active; 'I' for Inactive)
REMARK    1  A    between atoms: C2_2  and  C4_4
REMARK    2  A    between atoms: C4_4  and  N1_5
REMARK    3  A    between atoms: C4_4  and  C19_32
REMARK       I    between atoms: N1_5  and  C5_7
REMARK    4  A    between atoms: C5_7  and  C6_9
REMARK    5  A    between atoms: C6_9  and  C7_10
REMARK    6  A    between atoms: C6_9  and  N4_23
REMARK    7  A    between atoms: C7_10  and  C8_11
REMARK       I    between atoms: N4_23  and  C15_25
REMARK    8  A    between atoms: C15_25  and  C16_27
REMARK    9  A    between atoms: C16_27  and  O3_30
ROOT
HETATM    1  C6  UNL     1      40.145 -21.071  26.977  1.00  0.00     0.182 C
ENDROOT
BRANCH   1   2
HETATM    2  C5  UNL     1      40.393 -21.785  28.298  1.00  0.00     0.245 C
HETATM    3  N1  UNL     1      41.563 -22.476  28.501  1.00  0.00    -0.328 N
ATOM      4  H1  UNL     1      42.196 -22.433  27.703  1.00  0.00     0.168 HD
HETATM    5  O1  UNL     1      39.489 -21.682  29.112  1.00  0.00    -0.271 OA
BRANCH   3   6
HETATM    6  C4  UNL     1      42.091 -23.251  29.604  1.00  0.00     0.021 C
BRANCH   6   7
HETATM    7  C2  UNL     1      41.710 -24.683  29.486  1.00  0.00    -0.064 C
HETATM    8  C1  UNL     1      40.521 -25.140  30.227  1.00  0.00     0.045 C
HETATM    9  C3  UNL     1      41.742 -25.300  28.126  1.00  0.00     0.045 C
ENDBRANCH   6   7
BRANCH   6  10
HETATM   10  C19 UNL     1      43.438 -22.910  30.099  1.00  0.00    -0.009 C
HETATM   11  C20 UNL     1      43.975 -24.148  30.800  1.00  0.00     0.021 C
HETATM   12  C21 UNL     1      43.635 -21.757  30.993  1.00  0.00     0.021 C
HETATM   13  C22 UNL     1      44.409 -22.748  28.899  1.00  0.00     0.021 C
ENDBRANCH   6  10
ENDBRANCH   3   6
ENDBRANCH   1   2
BRANCH   1  14
HETATM   14  C7  UNL     1      40.744 -19.725  27.063  1.00  0.00     0.092 C
BRANCH  14  15
HETATM   15  C8  UNL     1      39.923 -18.635  27.558  1.00  0.00     0.014 A
HETATM   16  C9  UNL     1      39.341 -17.639  26.762  1.00  0.00     0.040 A
HETATM   17  C10 UNL     1      38.630 -16.799  27.550  1.00  0.00     0.011 A
HETATM   18  C11 UNL     1      37.881 -15.667  27.222  1.00  0.00     0.035 A
HETATM   19  C14 UNL     1      38.752 -17.246  28.832  1.00  0.00     0.115 A
HETATM   20  C12 UNL     1      37.248 -14.984  28.225  1.00  0.00     0.027 A
HETATM   21 BR1  UNL     1      36.231 -13.446  27.779  1.00  0.00    -0.050 Br
HETATM   22  C13 UNL     1      37.380 -15.450  29.528  1.00  0.00     0.108 A
HETATM   23  N2  UNL     1      38.119 -16.557  29.799  1.00  0.00    -0.350 N
ATOM     24  H2  UNL     1      38.198 -16.875  30.765  1.00  0.00     0.166 HD
HETATM   25  N3  UNL     1      39.537 -18.353  28.794  1.00  0.00    -0.345 N
ATOM     26  H3  UNL     1      39.798 -18.899  29.615  1.00  0.00     0.167 HD
ENDBRANCH  14  15
ENDBRANCH   1  14
BRANCH   1  27
HETATM   27  N4  UNL     1      38.691 -20.983  26.779  1.00  0.00    -0.345 N
HETATM   28  C15 UNL     1      37.980 -21.840  25.903  1.00  0.00     0.252 C
HETATM   29  O2  UNL     1      38.662 -22.711  25.277  1.00  0.00    -0.270 OA
ATOM     30  H4  UNL     1      38.171 -20.274  27.294  1.00  0.00     0.163 HD
BRANCH  28  31
HETATM   31  C16 UNL     1      36.535 -21.771  25.691  1.00  0.00     0.131 C
HETATM   32  C17 UNL     1      36.142 -20.754  24.638  1.00  0.00     0.056 C
HETATM   33  C18 UNL     1      36.010 -23.102  25.272  1.00  0.00     0.056 C
BRANCH  31  34
HETATM   34  O3  UNL     1      35.893 -21.399  26.877  1.00  0.00    -0.381 OA
ATOM     35  H3  UNL     1      35.278 -22.073  27.141  1.00  0.00     0.211 HD
ENDBRANCH  31  34
ENDBRANCH  28  31
ENDBRANCH   1  27
TORSDOF 9
ENDMDL