MODEL 4
REMARK VINA RESULT: -7.121345441      1.776      2.564
REMARK  8 active torsions:
REMARK  status: ('A' for Active; 'I' for Inactive)
REMARK    1  A    between atoms: C4_4  and  C5_5
REMARK    2  A    between atoms: C5_5  and  C6_6
REMARK    3  A    between atoms: C6_6  and  S1_7
REMARK    4  A    between atoms: S1_7  and  C7_8
REMARK    5  A    between atoms: C12_14  and  N1_15
REMARK       I    between atoms: N1_15  and  C13_17
REMARK       I    between atoms: C13_17  and  N2_19
REMARK    6  A    between atoms: N2_19  and  C14_21
REMARK    7  A    between atoms: C14_21  and  C15_22
REMARK    8  A    between atoms: C15_22  and  N3_23
REMARK       I    between atoms: N3_23  and  C16_25
ROOT
HETATM    1  C7  UNL     1      36.510 -21.565  24.703  1.00  0.00     0.020 A
HETATM    2  C8  UNL     1      35.791 -21.160  23.583  1.00  0.00     0.028 A
HETATM    3  C9  UNL     1      36.051 -19.885  23.150  1.00  0.00    -0.041 A
HETATM    4  C10 UNL     1      35.386 -19.274  21.974  1.00  0.00     0.049 C
HETATM    5  C11 UNL     1      36.983 -19.068  23.808  1.00  0.00     0.042 A
HETATM    6  S2  UNL     1      37.558 -17.476  23.586  1.00  0.00    -0.051 SA
HETATM    7  C12 UNL     1      38.653 -17.419  24.894  1.00  0.00     0.153 A
HETATM    8  N6  UNL     1      38.528 -18.629  25.447  1.00  0.00    -0.334 N
ATOM      9  H6  UNL     1      39.075 -18.888  26.268  1.00  0.00     0.168 HD
HETATM   10  C17 UNL     1      37.683 -19.478  24.906  1.00  0.00     0.070 A
HETATM   11  C18 UNL     1      37.420 -20.790  25.358  1.00  0.00     0.056 A
HETATM   12 BR1  UNL     1      38.294 -21.544  26.872  1.00  0.00    -0.047 Br
ENDROOT
BRANCH   7  13
HETATM   13  N1  UNL     1      39.419 -16.443  25.282  1.00  0.00    -0.288 N
HETATM   14  C13 UNL     1      38.937 -15.632  26.384  1.00  0.00     0.325 C
HETATM   15  O1  UNL     1      39.731 -15.560  27.335  1.00  0.00    -0.247 OA
HETATM   16  N2  UNL     1      37.701 -15.001  26.365  1.00  0.00    -0.321 N
ATOM     17  H2  UNL     1      37.173 -15.174  25.510  1.00  0.00     0.169 HD
ATOM     18  H1  UNL     1      40.317 -16.256  24.833  1.00  0.00     0.172 HD
BRANCH  16  19
HETATM   19  C14 UNL     1      37.024 -14.175  27.277  1.00  0.00     0.085 C
BRANCH  19  20
HETATM   20  C15 UNL     1      36.594 -14.675  28.593  1.00  0.00     0.166 C
BRANCH  20  21
HETATM   21  N3  UNL     1      36.300 -16.056  28.732  1.00  0.00    -0.360 N
HETATM   22  C16 UNL     1      37.320 -17.010  29.109  1.00  0.00     0.182 C
HETATM   23  N4  UNL     1      38.121 -16.756  30.064  1.00  0.00    -0.374 N
HETATM   24  N5  UNL     1      37.394 -18.216  28.388  1.00  0.00    -0.064 NA
ATOM     25  H42 UNL     1      38.066 -15.882  30.587  1.00  0.00     0.158 HD
ATOM     26  H41 UNL     1      38.841 -17.429  30.330  1.00  0.00     0.158 HD
ATOM     27  H3  UNL     1      35.349 -16.384  28.563  1.00  0.00     0.162 HD
ENDBRANCH  20  21
ENDBRANCH  19  20
ENDBRANCH  16  19
ENDBRANCH   7  13
BRANCH   1  28
HETATM   28  S1  UNL     1      36.168 -23.232  25.297  1.00  0.00    -0.128 SA
BRANCH  28  29
HETATM   29  C6  UNL     1      36.152 -24.371  23.833  1.00  0.00     0.083 C
BRANCH  29  30
HETATM   30  C5  UNL     1      34.847 -25.075  23.892  1.00  0.00     0.038 C
BRANCH  30  31
HETATM   31  C4  UNL     1      34.762 -26.459  23.459  1.00  0.00    -0.024 C
HETATM   32  C2  UNL     1      35.279 -27.550  23.949  1.00  0.00    -0.091 C
HETATM   33  C1  UNL     1      36.131 -27.670  25.129  1.00  0.00     0.042 C
HETATM   34  C3  UNL     1      34.965 -28.851  23.217  1.00  0.00     0.042 C
ENDBRANCH  30  31
ENDBRANCH  29  30
ENDBRANCH  28  29
ENDBRANCH   1  28
TORSDOF 8
ENDMDL