MODEL 1
REMARK VINA RESULT: -9.118060906      0.000      0.000
REMARK  7 active torsions:
REMARK  status: ('A' for Active; 'I' for Inactive)
REMARK       I    between atoms: N1_2  and  C2_4
REMARK    1  A    between atoms: C2_4  and  C3_6
REMARK       I    between atoms: C3_6  and  N2_8
REMARK    2  A    between atoms: N2_8  and  C4_10
REMARK    3  A    between atoms: C7_13  and  C8_14
REMARK       I    between atoms: C8_14  and  N3_16
REMARK    4  A    between atoms: N3_16  and  C9_18
REMARK    5  A    between atoms: C15_25  and  C16_26
REMARK       I    between atoms: C16_26  and  N4_28
REMARK    6  A    between atoms: N4_28  and  C17_30
REMARK    7  A    between atoms: C21_34  and  N5_35
REMARK       I    between atoms: N5_35  and  C22_37
ROOT
HETATM    1  C4  UNL     1      41.445 -21.791  28.238  1.00  0.00     0.036 A
HETATM    2  C5  UNL     1      41.701 -20.540  28.732  1.00  0.00     0.030 A
HETATM    3  C6  UNL     1      40.838 -19.487  28.472  1.00  0.00     0.020 A
HETATM    4  C7  UNL     1      39.677 -19.663  27.697  1.00  0.00     0.048 A
HETATM    5  C15 UNL     1      39.399 -20.891  27.198  1.00  0.00     0.050 A
HETATM    6  C25 UNL     1      40.304 -21.930  27.487  1.00  0.00     0.047 A
ENDROOT
BRANCH   5   7
HETATM    7  C16 UNL     1      38.215 -21.211  26.424  1.00  0.00     0.257 C
HETATM    8  O4  UNL     1      37.176 -21.518  27.115  1.00  0.00    -0.267 OA
HETATM    9  N4  UNL     1      38.141 -21.199  25.036  1.00  0.00    -0.323 N
ATOM     10  H4  UNL     1      38.982 -20.940  24.520  1.00  0.00     0.169 HD
BRANCH   9  11
HETATM   11  C17 UNL     1      36.973 -21.521  24.279  1.00  0.00     0.037 A
HETATM   12  C18 UNL     1      36.025 -20.630  23.886  1.00  0.00     0.029 A
HETATM   13  C19 UNL     1      34.882 -21.029  23.178  1.00  0.00     0.004 A
HETATM   14  C20 UNL     1      34.748 -22.391  22.886  1.00  0.00     0.029 A
HETATM   15  C21 UNL     1      35.668 -23.323  23.256  1.00  0.00     0.036 A
HETATM   16  C24 UNL     1      36.799 -22.863  23.966  1.00  0.00     0.059 A
BRANCH  15  17
HETATM   17  N5  UNL     1      35.546 -24.683  22.953  1.00  0.00    -0.327 N
HETATM   18  C22 UNL     1      34.795 -25.649  23.641  1.00  0.00     0.218 C
HETATM   19  C23 UNL     1      34.818 -27.076  23.131  1.00  0.00     0.117 C
HETATM   20  O5  UNL     1      34.097 -25.431  24.656  1.00  0.00    -0.274 OA
ATOM     21  H5  UNL     1      36.064 -25.011  22.137  1.00  0.00     0.169 HD
ENDBRANCH  15  17
ENDBRANCH   9  11
ENDBRANCH   5   7
BRANCH   4  22
HETATM   22  C8  UNL     1      38.858 -18.454  27.444  1.00  0.00     0.257 C
HETATM   23  O3  UNL     1      38.546 -18.233  26.285  1.00  0.00    -0.267 OA
HETATM   24  N3  UNL     1      38.503 -17.653  28.530  1.00  0.00    -0.323 N
ATOM     25  H3  UNL     1      38.831 -17.945  29.451  1.00  0.00     0.169 HD
BRANCH  24  26
HETATM   26  C9  UNL     1      37.731 -16.477  28.464  1.00  0.00     0.035 A
HETATM   27  C10 UNL     1      38.341 -15.337  27.901  1.00  0.00     0.032 A
HETATM   28  C11 UNL     1      37.678 -14.146  27.803  1.00  0.00     0.044 A
HETATM   29  C12 UNL     1      36.393 -13.980  28.236  1.00  0.00     0.116 A
HETATM   30  F1  UNL     1      35.764 -12.791  28.124  1.00  0.00    -0.206 F
HETATM   31  C13 UNL     1      35.777 -15.075  28.787  1.00  0.00     0.044 A
HETATM   32  C14 UNL     1      36.451 -16.298  28.891  1.00  0.00     0.032 A
ENDBRANCH  24  26
ENDBRANCH   4  22
BRANCH   1  33
HETATM   33  N2  UNL     1      42.284 -22.920  28.436  1.00  0.00    -0.319 N
HETATM   34  C3  UNL     1      42.220 -23.845  29.472  1.00  0.00     0.313 C
HETATM   35  O2  UNL     1      41.389 -23.827  30.432  1.00  0.00    -0.262 OA
ATOM     36  H2  UNL     1      43.014 -23.069  27.739  1.00  0.00     0.169 HD
BRANCH  34  37
HETATM   37  C2  UNL     1      43.203 -24.956  29.471  1.00  0.00     0.309 C
HETATM   38  N1  UNL     1      42.884 -26.144  28.763  1.00  0.00    -0.357 N
HETATM   39  C1  UNL     1      43.802 -27.264  28.724  1.00  0.00     0.149 C
ATOM     40  H1  UNL     1      41.992 -26.210  28.272  1.00  0.00     0.162 HD
HETATM   41  O1  UNL     1      44.283 -24.824  30.089  1.00  0.00    -0.262 OA
ENDBRANCH  34  37
ENDBRANCH   1  33
TORSDOF 7
ENDMDL