MODEL 3
REMARK VINA RESULT: -8.552270995      2.501      7.435
REMARK  6 active torsions:
REMARK  status: ('A' for Active; 'I' for Inactive)
REMARK    1  A    between atoms: C2_2  and  C4_4
REMARK    2  A    between atoms: C4_4  and  C5_5
REMARK    3  A    between atoms: C7_9  and  C8_10
REMARK    4  A    between atoms: C11_13  and  N2_14
REMARK    5  A    between atoms: N2_14  and  C12_16
REMARK    6  A    between atoms: C20_31  and  C21_32
ROOT
HETATM    1  C5  UNL     1      39.061 -23.197  26.781  1.00  0.00     0.174 C
HETATM    2  N1  UNL     1      38.669 -21.982  27.171  1.00  0.00    -0.375 N
ATOM      3  H1  UNL     1      38.333 -21.972  28.133  1.00  0.00     0.160 HD
HETATM    4  C6  UNL     1      38.610 -20.717  26.571  1.00  0.00     0.052 C
HETATM    5  C7  UNL     1      39.718 -20.358  25.741  1.00  0.00     0.008 C
HETATM    6  C11 UNL     1      37.158 -20.289  26.348  1.00  0.00     0.057 C
HETATM    7  C17 UNL     1      36.298 -21.258  25.714  1.00  0.00     0.024 C
HETATM    8  C18 UNL     1      36.196 -21.521  24.293  1.00  0.00     0.152 C
HETATM    9  N4  UNL     1      35.507 -22.780  24.059  1.00  0.00    -0.356 N
ATOM     10  H4  UNL     1      34.685 -22.740  23.457  1.00  0.00     0.162 HD
HETATM   11  C19 UNL     1      35.840 -24.032  24.561  1.00  0.00     0.241 C
HETATM   12  O2  UNL     1      34.853 -24.715  25.041  1.00  0.00    -0.271 OA
HETATM   13  C20 UNL     1      37.133 -24.719  24.641  1.00  0.00     0.180 C
HETATM   14  N5  UNL     1      38.306 -23.943  24.432  1.00  0.00    -0.346 N
ATOM     15  H5  UNL     1      38.454 -23.557  23.500  1.00  0.00     0.163 HD
HETATM   16  C27 UNL     1      39.297 -23.659  25.431  1.00  0.00     0.241 C
HETATM   17  O3  UNL     1      40.509 -23.851  25.041  1.00  0.00    -0.271 OA
ENDROOT
BRANCH   6  18
HETATM   18  N2  UNL     1      36.976 -18.917  26.344  1.00  0.00    -0.352 N
ATOM     19  H2  UNL     1      36.435 -18.589  25.544  1.00  0.00     0.166 HD
BRANCH  18  20
HETATM   20  C12 UNL     1      37.368 -17.894  27.190  1.00  0.00     0.078 A
HETATM   21  C13 UNL     1      37.468 -17.904  28.536  1.00  0.00     0.107 A
HETATM   22  C14 UNL     1      37.873 -16.801  29.246  1.00  0.00     0.247 A
HETATM   23  O1  UNL     1      37.957 -16.844  30.520  1.00  0.00    -0.268 OA
HETATM   24  N3  UNL     1      38.191 -15.650  28.629  1.00  0.00    -0.331 N
HETATM   25  C15 UNL     1      38.117 -15.560  27.289  1.00  0.00     0.136 A
ATOM     26  H3  UNL     1      38.489 -14.844  29.177  1.00  0.00     0.168 HD
HETATM   27  C16 UNL     1      37.715 -16.656  26.582  1.00  0.00     0.158 A
HETATM   28  F1  UNL     1      37.656 -16.512  25.215  1.00  0.00    -0.202 F
ENDBRANCH  18  20
ENDBRANCH   6  18
BRANCH   5  29
HETATM   29  C8  UNL     1      39.901 -19.074  25.015  1.00  0.00     0.002 C
HETATM   30  C9  UNL     1      41.442 -18.977  24.637  1.00  0.00     0.013 C
HETATM   31  C10 UNL     1      39.298 -19.059  23.616  1.00  0.00     0.013 C
ENDBRANCH   5  29
BRANCH   1  32
HETATM   32  C4  UNL     1      40.370 -23.501  27.578  1.00  0.00     0.038 C
BRANCH  32  33
HETATM   33  C2  UNL     1      40.118 -23.172  29.024  1.00  0.00    -0.020 C
HETATM   34  C1  UNL     1      40.072 -24.417  29.885  1.00  0.00     0.009 C
HETATM   35  C3  UNL     1      41.309 -22.358  29.508  1.00  0.00     0.009 C
ENDBRANCH  32  33
ENDBRANCH   1  32
BRANCH  13  36
HETATM   36  C21 UNL     1      37.131 -25.828  23.587  1.00  0.00     0.018 C
HETATM   37  C22 UNL     1      38.093 -26.928  23.939  1.00  0.00     0.007 C
HETATM   38  C23 UNL     1      38.622 -27.667  22.726  1.00  0.00     0.000 C
HETATM   39  C24 UNL     1      37.493 -27.716  21.718  1.00  0.00     0.000 C
HETATM   40  C25 UNL     1      37.323 -26.334  21.168  1.00  0.00     0.000 C
HETATM   41  C26 UNL     1      37.483 -25.277  22.237  1.00  0.00     0.007 C
ENDBRANCH  13  36
TORSDOF 6
ENDMDL