MODEL 4
REMARK VINA RESULT: -7.837180157      1.200      1.919
REMARK  8 active torsions:
REMARK  status: ('A' for Active; 'I' for Inactive)
REMARK    1  A    between atoms: C2_2  and  C3_3
REMARK    2  A    between atoms: C2_2  and  C4_5
REMARK       I    between atoms: C4_5  and  N1_7
REMARK    3  A    between atoms: N1_7  and  C5_9
REMARK    4  A    between atoms: C5_9  and  C6_10
REMARK    5  A    between atoms: C5_9  and  C7_13
REMARK       I    between atoms: C7_13  and  N2_15
REMARK    6  A    between atoms: N2_15  and  C8_17
REMARK    7  A    between atoms: C11_20  and  N3_21
REMARK       I    between atoms: N3_21  and  C12_23
REMARK       I    between atoms: C12_23  and  N4_25
REMARK    8  A    between atoms: N4_25  and  C13_27
ROOT
HETATM    1  C8  UNL     1      42.728 -20.594  28.756  1.00  0.00     0.034 A
HETATM    2  C9  UNL     1      43.001 -21.470  29.823  1.00  0.00     0.032 A
HETATM    3  C10 UNL     1      44.275 -21.917  30.090  1.00  0.00     0.032 A
HETATM    4  C11 UNL     1      45.342 -21.538  29.335  1.00  0.00     0.036 A
HETATM    5  C23 UNL     1      45.096 -20.673  28.277  1.00  0.00     0.032 A
HETATM    6  C24 UNL     1      43.811 -20.226  28.013  1.00  0.00     0.032 A
ENDROOT
BRANCH   1   7
HETATM    7  N2  UNL     1      41.411 -20.170  28.550  1.00  0.00    -0.325 N
HETATM    8  C7  UNL     1      40.724 -20.104  27.338  1.00  0.00     0.255 C
HETATM    9  O4  UNL     1      41.210 -20.439  26.229  1.00  0.00    -0.270 OA
ATOM     10  H2  UNL     1      40.895 -19.875  29.379  1.00  0.00     0.169 HD
BRANCH   8  11
HETATM   11  C5  UNL     1      39.302 -19.614  27.269  1.00  0.00     0.279 C
BRANCH  11  12
HETATM   12  N1  UNL     1      39.193 -18.406  28.050  1.00  0.00    -0.339 N
HETATM   13  C4  UNL     1      38.288 -17.397  27.651  1.00  0.00     0.223 C
HETATM   14  O1  UNL     1      37.579 -17.552  26.616  1.00  0.00    -0.273 OA
ATOM     15  H1  UNL     1      39.766 -18.281  28.885  1.00  0.00     0.163 HD
BRANCH  13  16
HETATM   16  C2  UNL     1      38.164 -16.149  28.445  1.00  0.00     0.087 C
HETATM   17  C1  UNL     1      37.740 -16.537  29.837  1.00  0.00     0.021 C
BRANCH  16  18
HETATM   18  C3  UNL     1      37.204 -15.220  27.778  1.00  0.00     0.128 C
HETATM   19 CL1  UNL     1      35.767 -15.028  28.804  1.00  0.00    -0.130 Cl
ENDBRANCH  16  18
ENDBRANCH  13  16
ENDBRANCH  11  12
BRANCH  11  20
HETATM   20  C6  UNL     1      38.397 -20.663  27.808  1.00  0.00     0.206 C
HETATM   21  O2  UNL     1      38.806 -21.353  28.792  1.00  0.00    -0.646 OA
HETATM   22  O3  UNL     1      37.144 -20.901  27.279  1.00  0.00    -0.646 OA
ENDBRANCH  11  20
ENDBRANCH   8  11
ENDBRANCH   1   7
BRANCH   4  23
HETATM   23  N3  UNL     1      46.672 -21.959  29.526  1.00  0.00    -0.309 N
HETATM   24  C12 UNL     1      47.615 -21.516  30.460  1.00  0.00     0.321 C
HETATM   25  O5  UNL     1      47.363 -20.636  31.293  1.00  0.00    -0.247 OA
HETATM   26  N4  UNL     1      48.916 -22.072  30.479  1.00  0.00    -0.334 N
ATOM     27  H4  UNL     1      49.122 -22.797  29.793  1.00  0.00     0.165 HD
ATOM     28  H3  UNL     1      46.994 -22.693  28.895  1.00  0.00     0.170 HD
BRANCH  26  29
HETATM   29  C13 UNL     1      49.967 -21.706  31.378  1.00  0.00     0.035 C
HETATM   30  C14 UNL     1      49.718 -22.129  32.809  1.00  0.00     0.035 C
HETATM   31  C15 UNL     1      50.913 -21.692  33.633  1.00  0.00    -0.012 C
HETATM   32  C16 UNL     1      51.167 -20.206  33.534  1.00  0.00     0.009 C
HETATM   33  C20 UNL     1      52.188 -22.384  33.184  1.00  0.00     0.009 C
HETATM   34  C17 UNL     1      51.446 -19.830  32.088  1.00  0.00    -0.012 C
HETATM   35  C18 UNL     1      52.611 -20.561  31.510  1.00  0.00     0.009 C
HETATM   36  C22 UNL     1      50.190 -20.229  31.311  1.00  0.00     0.035 C
HETATM   37  C19 UNL     1      52.419 -22.042  31.734  1.00  0.00    -0.012 C
HETATM   38  C21 UNL     1      51.224 -22.476  30.951  1.00  0.00     0.035 C
ENDBRANCH  26  29
ENDBRANCH   4  23
TORSDOF 8
ENDMDL