MODEL 1
REMARK VINA RESULT: -8.109832080      0.000      0.000
REMARK  9 active torsions:
REMARK  status: ('A' for Active; 'I' for Inactive)
REMARK    1  A    between atoms: C2_2  and  C5_5
REMARK       I    between atoms: C5_5  and  N1_7
REMARK    2  A    between atoms: N1_7  and  C6_9
REMARK    3  A    between atoms: C6_9  and  C7_10
REMARK    4  A    between atoms: C7_10  and  N2_11
REMARK       I    between atoms: N2_11  and  C8_13
REMARK    5  A    between atoms: C8_13  and  C9_15
REMARK    6  A    between atoms: C10_16  and  C11_17
REMARK    7  A    between atoms: C14_20  and  N3_21
REMARK       I    between atoms: N3_21  and  C15_23
REMARK    8  A    between atoms: C15_23  and  C16_25
REMARK    9  A    between atoms: C21_31  and  O4_32
ROOT
HETATM    1  C11 UNL     1      43.246 -20.638  28.347  1.00  0.00    -0.036 A
HETATM    2  C12 UNL     1      44.372 -20.276  27.701  1.00  0.00     0.013 A
HETATM    3  C13 UNL     1      45.600 -20.225  28.395  1.00  0.00     0.030 A
HETATM    4  C14 UNL     1      45.711 -20.530  29.720  1.00  0.00     0.035 A
HETATM    5  C22 UNL     1      44.533 -20.906  30.384  1.00  0.00     0.030 A
HETATM    6  C23 UNL     1      43.332 -20.956  29.709  1.00  0.00     0.013 A
ENDROOT
BRANCH   1   7
HETATM    7  C10 UNL     1      41.956 -20.739  27.731  1.00  0.00     0.017 C
HETATM    8  C9  UNL     1      40.854 -20.686  28.440  1.00  0.00     0.075 C
BRANCH   8   9
HETATM    9  C8  UNL     1      39.499 -20.776  27.959  1.00  0.00     0.241 C
HETATM   10  N2  UNL     1      39.191 -20.312  26.628  1.00  0.00    -0.356 N
ATOM     11  H2  UNL     1      39.928 -19.929  26.036  1.00  0.00     0.162 HD
HETATM   12  O2  UNL     1      38.604 -21.250  28.691  1.00  0.00    -0.269 OA
BRANCH  10  13
HETATM   13  C7  UNL     1      37.844 -20.392  26.136  1.00  0.00     0.142 C
BRANCH  13  14
HETATM   14  C6  UNL     1      37.198 -19.083  25.909  1.00  0.00     0.142 C
BRANCH  14  15
HETATM   15  N1  UNL     1      37.239 -18.143  26.965  1.00  0.00    -0.359 N
HETATM   16  C5  UNL     1      37.230 -16.771  27.090  1.00  0.00     0.225 C
HETATM   17  O1  UNL     1      37.190 -15.890  26.214  1.00  0.00    -0.273 OA
ATOM     18  H1  UNL     1      37.287 -18.602  27.875  1.00  0.00     0.162 HD
BRANCH  16  19
HETATM   19  C2  UNL     1      37.275 -16.170  28.502  1.00  0.00     0.030 C
HETATM   20  C1  UNL     1      38.122 -17.107  29.327  1.00  0.00     0.024 C
HETATM   21  C3  UNL     1      37.941 -14.815  28.339  1.00  0.00     0.024 C
HETATM   22  C4  UNL     1      35.900 -15.958  29.051  1.00  0.00     0.024 C
ENDBRANCH  16  19
ENDBRANCH  14  15
ENDBRANCH  13  14
ENDBRANCH  10  13
ENDBRANCH   8   9
ENDBRANCH   1   7
BRANCH   4  23
HETATM   23  N3  UNL     1      46.891 -20.473  30.494  1.00  0.00    -0.323 N
HETATM   24  C15 UNL     1      47.735 -21.599  30.730  1.00  0.00     0.259 C
HETATM   25  O3  UNL     1      47.400 -22.675  30.202  1.00  0.00    -0.267 OA
ATOM     26  H3  UNL     1      47.154 -19.578  30.906  1.00  0.00     0.169 HD
BRANCH  24  27
HETATM   27  C16 UNL     1      48.940 -21.530  31.548  1.00  0.00     0.066 A
HETATM   28  C17 UNL     1      50.027 -20.787  31.119  1.00  0.00     0.039 A
HETATM   29  C18 UNL     1      51.165 -20.717  31.876  1.00  0.00     0.012 A
HETATM   30 BR1  UNL     1      52.640 -19.683  31.258  1.00  0.00    -0.051 Br
HETATM   31  C19 UNL     1      51.232 -21.391  33.074  1.00  0.00     0.022 A
HETATM   32  C20 UNL     1      50.186 -22.130  33.526  1.00  0.00     0.039 A
HETATM   33  C21 UNL     1      49.009 -22.201  32.742  1.00  0.00     0.081 A
BRANCH  33  34
HETATM   34  O4  UNL     1      48.018 -22.963  33.277  1.00  0.00    -0.360 OA
ATOM     35  H4  UNL     1      47.881 -23.117  34.204  1.00  0.00     0.217 HD
ENDBRANCH  33  34
ENDBRANCH  24  27
ENDBRANCH   4  23
TORSDOF 9
ENDMDL