MODEL 1
REMARK VINA RESULT: -6.432650011      0.000      0.000
REMARK  4 active torsions:
REMARK  status: ('A' for Active; 'I' for Inactive)
REMARK    1  A    between atoms: C2_2  and  C4_4
REMARK    2  A    between atoms: C5_6  and  N1_7
REMARK    3  A    between atoms: N1_7  and  C6_9
REMARK    4  A    between atoms: C12_17  and  O1_18
ROOT
HETATM    1  C4  UNL     1      22.061 -44.482   9.556  1.00  0.00     0.064 A
HETATM    2  S1  UNL     1      23.721 -44.981   9.334  1.00  0.00    -0.050 SA
HETATM    3  C5  UNL     1      24.461 -43.776  10.270  1.00  0.00     0.147 A
HETATM    4  N2  UNL     1      23.438 -43.051  10.711  1.00  0.00    -0.316 N
ATOM      5  H2  UNL     1      23.593 -42.242  11.312  1.00  0.00     0.170 HD
HETATM    6  C12 UNL     1      22.224 -43.400  10.355  1.00  0.00     0.160 A
ENDROOT
BRANCH   3   7
HETATM    7  N1  UNL     1      25.744 -43.618  10.493  1.00  0.00    -0.366 N
ATOM      8  H1  UNL     1      26.183 -42.722  10.281  1.00  0.00     0.162 HD
BRANCH   7   9
HETATM    9  C6  UNL     1      26.542 -44.686  11.032  1.00  0.00     0.083 C
HETATM   10  C7  UNL     1      25.861 -45.253  12.258  1.00  0.00     0.025 C
HETATM   11  C8  UNL     1      26.606 -46.503  12.651  1.00  0.00     0.002 C
HETATM   12  C9  UNL     1      28.017 -46.151  13.004  1.00  0.00     0.000 C
HETATM   13  C10 UNL     1      28.700 -45.486  11.823  1.00  0.00     0.002 C
HETATM   14  C11 UNL     1      27.914 -44.222  11.465  1.00  0.00     0.025 C
ENDBRANCH   7   9
ENDBRANCH   3   7
BRANCH   1  15
HETATM   15  C2  UNL     1      20.883 -45.144   8.977  1.00  0.00    -0.050 C
HETATM   16  C1  UNL     1      20.455 -44.851   7.799  1.00  0.00     0.020 C
HETATM   17  C3  UNL     1      20.190 -46.182   9.809  1.00  0.00     0.049 C
ENDBRANCH   1  15
BRANCH   6  18
HETATM   18  O1  UNL     1      21.103 -42.646  10.807  1.00  0.00    -0.345 OA
ATOM     19  H1  UNL     1      20.833 -41.853  10.359  1.00  0.00     0.219 HD
ENDBRANCH   6  18
TORSDOF 4
ENDMDL