MODEL 3
REMARK VINA RESULT: -5.911339279      2.624      4.745
REMARK  3 active torsions:
REMARK  status: ('A' for Active; 'I' for Inactive)
REMARK    1  A    between atoms: C4_5  and  C5_6
REMARK    2  A    between atoms: C6_9  and  C7_10
REMARK    3  A    between atoms: C7_10  and  O3_11
ROOT
HETATM    1  C1  UNL     1      25.154 -46.920   9.469  1.00  0.00     0.049 C
HETATM    2  C2  UNL     1      26.417 -46.965  10.319  1.00  0.00    -0.045 A
HETATM    3  C3  UNL     1      27.190 -48.074  10.263  1.00  0.00     0.058 A
HETATM    4  S1  UNL     1      28.462 -47.768  11.306  1.00  0.00    -0.094 SA
HETATM    5  C4  UNL     1      27.990 -46.138  11.849  1.00  0.00     0.091 A
HETATM    6  C6  UNL     1      26.843 -45.936  11.162  1.00  0.00     0.006 A
ENDROOT
BRANCH   6   7
HETATM    7  C7  UNL     1      25.969 -44.696  11.234  1.00  0.00     0.087 C
HETATM    8  C8  UNL     1      26.259 -43.756  10.087  1.00  0.00     0.043 C
HETATM    9  C9  UNL     1      24.963 -43.237   9.502  1.00  0.00     0.003 C
HETATM   10  C10 UNL     1      24.000 -42.693  10.487  1.00  0.00     0.000 C
HETATM   11  C11 UNL     1      24.000 -43.429  11.784  1.00  0.00     0.003 C
HETATM   12  C12 UNL     1      24.531 -44.867  11.444  1.00  0.00     0.043 C
BRANCH   7  13
HETATM   13  O3  UNL     1      26.374 -43.996  12.432  1.00  0.00    -0.385 OA
ATOM     14  H3  UNL     1      25.580 -43.618  12.793  1.00  0.00     0.211 HD
ENDBRANCH   7  13
ENDBRANCH   6   7
BRANCH   5  15
HETATM   15  C5  UNL     1      28.836 -45.476  12.811  1.00  0.00     0.217 C
HETATM   16  O1  UNL     1      29.410 -44.368  12.355  1.00  0.00    -0.643 OA
HETATM   17  O2  UNL     1      29.175 -45.729  14.063  1.00  0.00    -0.643 OA
ENDBRANCH   5  15
TORSDOF 3
ENDMDL