MODEL 4
REMARK VINA RESULT: -6.154404958      3.916      6.002
REMARK  3 active torsions:
REMARK  status: ('A' for Active; 'I' for Inactive)
REMARK       I    between atoms: N1_2  and  C2_4
REMARK    1  A    between atoms: C2_4  and  C3_6
REMARK    2  A    between atoms: C5_9  and  C6_10
REMARK    3  A    between atoms: C12_16  and  O2_17
ROOT
HETATM    1  C3  UNL     1      22.733 -44.733   9.848  1.00  0.00     0.106 A
HETATM    2  S1  UNL     1      23.561 -45.924   8.902  1.00  0.00    -0.093 SA
HETATM    3  C4  UNL     1      24.981 -46.029   9.886  1.00  0.00     0.061 A
HETATM    4  C5  UNL     1      24.748 -45.156  10.882  1.00  0.00    -0.013 A
HETATM    5  C12 UNL     1      23.576 -44.472  10.866  1.00  0.00     0.095 A
ENDROOT
BRANCH   4   6
HETATM    6  C6  UNL     1      25.829 -44.947  11.921  1.00  0.00     0.022 C
HETATM    7  C7  UNL     1      26.362 -46.362  12.202  1.00  0.00     0.009 C
HETATM    8  C8  UNL     1      27.530 -46.156  13.157  1.00  0.00     0.001 C
HETATM    9  C9  UNL     1      28.692 -45.849  12.226  1.00  0.00     0.000 C
HETATM   10  C10 UNL     1      28.246 -44.933  11.087  1.00  0.00     0.001 C
HETATM   11  C11 UNL     1      26.998 -44.141  11.358  1.00  0.00     0.009 C
ENDBRANCH   4   6
BRANCH   5  12
HETATM   12  O2  UNL     1      23.255 -43.529  11.865  1.00  0.00    -0.359 OA
ATOM     13  H2  UNL     1      23.565 -42.633  11.820  1.00  0.00     0.217 HD
ENDBRANCH   5  12
BRANCH   1  14
HETATM   14  C2  UNL     1      21.358 -44.315   9.534  1.00  0.00     0.261 C
HETATM   15  N1  UNL     1      20.625 -43.554  10.483  1.00  0.00    -0.361 N
HETATM   16  C1  UNL     1      19.317 -43.004  10.376  1.00  0.00     0.149 C
ATOM     17  H1  UNL     1      21.105 -43.376  11.366  1.00  0.00     0.162 HD
HETATM   18  O1  UNL     1      20.818 -44.591   8.459  1.00  0.00    -0.267 OA
ENDBRANCH   1  14
TORSDOF 3
ENDMDL