MODEL 4
REMARK VINA RESULT: -6.088715308      2.820      6.167
REMARK  3 active torsions:
REMARK  status: ('A' for Active; 'I' for Inactive)
REMARK    1  A    between atoms: C4_5  and  O1_6
REMARK    2  A    between atoms: C5_8  and  C6_9
REMARK       I    between atoms: C6_9  and  N1_11
REMARK    3  A    between atoms: N1_11  and  C7_13
ROOT
HETATM    1  C6  UNL     1      24.025 -45.513   9.763  1.00  0.00     0.255 C
HETATM    2  O2  UNL     1      24.456 -46.457   9.036  1.00  0.00    -0.268 OA
HETATM    3  N1  UNL     1      24.857 -45.088  10.801  1.00  0.00    -0.352 N
ATOM      4  H1  UNL     1      24.574 -44.332  11.425  1.00  0.00     0.163 HD
ENDROOT
BRANCH   1   5
HETATM    5  C5  UNL     1      22.718 -44.920   9.499  1.00  0.00     0.078 A
HETATM    6  C2  UNL     1      22.380 -43.759  10.186  1.00  0.00    -0.003 A
HETATM    7  C1  UNL     1      23.153 -42.983  11.189  1.00  0.00     0.057 C
HETATM    8  S1  UNL     1      20.824 -43.387   9.621  1.00  0.00    -0.103 SA
HETATM    9  C3  UNL     1      20.608 -44.675   8.538  1.00  0.00     0.087 A
HETATM   10  C4  UNL     1      21.786 -45.378   8.650  1.00  0.00     0.088 A
BRANCH  10  11
HETATM   11  O1  UNL     1      21.905 -46.536   7.845  1.00  0.00    -0.359 OA
ATOM     12  H1  UNL     1      22.409 -46.443   7.045  1.00  0.00     0.217 HD
ENDBRANCH  10  11
ENDBRANCH   1   5
BRANCH   3  13
HETATM   13  C7  UNL     1      26.167 -45.770  10.970  1.00  0.00     0.084 C
HETATM   14  C8  UNL     1      27.200 -44.770  10.529  1.00  0.00     0.025 C
HETATM   15  C9  UNL     1      28.566 -45.026  11.076  1.00  0.00     0.002 C
HETATM   16  C10 UNL     1      28.625 -46.384  11.725  1.00  0.00     0.000 C
HETATM   17  C11 UNL     1      27.666 -46.374  12.891  1.00  0.00     0.002 C
HETATM   18  C12 UNL     1      26.257 -46.129  12.421  1.00  0.00     0.025 C
ENDBRANCH   3  13
TORSDOF 3
ENDMDL