MODEL 4
REMARK VINA RESULT: -5.839758463      1.615      1.696
REMARK  2 active torsions:
REMARK  status: ('A' for Active; 'I' for Inactive)
REMARK    1  A    between atoms: C3_6  and  C4_7
REMARK    2  A    between atoms: C4_7  and  S1_8
ROOT
HETATM    1  O1  UNL     1      26.157 -42.950  10.888  1.00  0.00    -0.273 OA
HETATM    2  C1  UNL     1      25.965 -44.196  10.889  1.00  0.00     0.225 C
HETATM    3  N1  UNL     1      27.116 -45.014  10.702  1.00  0.00    -0.360 N
ATOM      4  H1  UNL     1      27.994 -44.600  11.016  1.00  0.00     0.162 HD
HETATM    5  C2  UNL     1      27.233 -46.332  10.139  1.00  0.00     0.128 C
HETATM    6  C3  UNL     1      25.939 -47.083  10.107  1.00  0.00     0.017 C
HETATM    7  C5  UNL     1      24.927 -46.496   9.181  1.00  0.00     0.041 C
HETATM    8  C6  UNL     1      24.137 -45.453   9.891  1.00  0.00    -0.070 C
HETATM    9  C7  UNL     1      22.966 -45.285   9.314  1.00  0.00    -0.023 C
HETATM   10  C8  UNL     1      22.025 -44.294   9.866  1.00  0.00     0.027 C
HETATM   11  C9  UNL     1      22.911 -43.098  10.257  1.00  0.00     0.005 C
HETATM   12  C10 UNL     1      23.688 -43.551  11.467  1.00  0.00     0.019 C
HETATM   13  C11 UNL     1      24.585 -44.699  11.081  1.00  0.00     0.106 C
ENDROOT
BRANCH   6  14
HETATM   14  C4  UNL     1      26.204 -48.540   9.776  1.00  0.00     0.093 C
BRANCH  14  15
HETATM   15  S1  UNL     1      28.003 -48.687   9.490  1.00  0.00    -0.085 SA
HETATM   16  S2  UNL     1      28.901 -49.351  11.307  1.00  0.00    -0.013 SA
ENDBRANCH  14  15
ENDBRANCH   6  14
TORSDOF 2
ENDMDL