MODEL 2
REMARK VINA RESULT: -7.623757050      1.571      2.134
REMARK  3 active torsions:
REMARK  status: ('A' for Active; 'I' for Inactive)
REMARK    1  A    between atoms: C2_7  and  C3_8
REMARK    2  A    between atoms: C4_9  and  C5_10
REMARK    3  A    between atoms: C14_19  and  N3_20
ROOT
HETATM    1  N1  UNL     1      21.637 -46.288   7.883  1.00  0.00    -0.387 N
ATOM      2  H11 UNL     1      20.679 -46.638   7.873  1.00  0.00     0.157 HD
ATOM      3  H12 UNL     1      22.177 -46.814   7.196  1.00  0.00     0.157 HD
HETATM    4  C1  UNL     1      22.074 -45.328   8.655  1.00  0.00     0.106 A
HETATM    5  N2  UNL     1      23.384 -44.851   8.670  1.00  0.00    -0.348 N
ATOM      6  H2  UNL     1      24.132 -45.232   8.090  1.00  0.00     0.167 HD
HETATM    7  C2  UNL     1      23.549 -43.853   9.514  1.00  0.00     0.012 A
HETATM    8  C13 UNL     1      22.281 -43.567  10.185  1.00  0.00     0.097 A
HETATM    9  C14 UNL     1      21.297 -44.570   9.647  1.00  0.00     0.255 A
ENDROOT
BRANCH   7  10
HETATM   10  C3  UNL     1      24.861 -43.246   9.644  1.00  0.00     0.021 C
HETATM   11  C4  UNL     1      25.912 -43.613  10.272  1.00  0.00    -0.020 C
BRANCH  11  12
HETATM   12  C5  UNL     1      26.139 -44.791  11.085  1.00  0.00     0.008 C
HETATM   13  C6  UNL     1      26.366 -46.031  10.233  1.00  0.00     0.008 C
HETATM   14  C7  UNL     1      26.246 -47.225  11.156  1.00  0.00     0.001 C
HETATM   15  C8  UNL     1      27.610 -47.890  11.182  1.00  0.00     0.000 C
HETATM   16  C9  UNL     1      28.520 -47.203  12.211  1.00  0.00     0.000 C
HETATM   17  C10 UNL     1      29.298 -46.091  11.613  1.00  0.00     0.000 C
HETATM   18  C11 UNL     1      28.630 -44.799  11.433  1.00  0.00     0.001 C
HETATM   19  C12 UNL     1      27.310 -44.597  12.058  1.00  0.00     0.008 C
ENDBRANCH  11  12
ENDBRANCH   7  10
BRANCH   9  20
HETATM   20  N3  UNL     1      20.137 -43.926   9.054  1.00  0.00    -0.068 N
ATOM     21  H33 UNL     1      20.092 -42.940   9.310  1.00  0.00     0.275 HD
ATOM     22  H32 UNL     1      20.245 -43.827   8.045  1.00  0.00     0.275 HD
ATOM     23  H31 UNL     1      19.269 -44.409   9.287  1.00  0.00     0.275 HD
ENDBRANCH   9  20
TORSDOF 3
ENDMDL