MODEL 4
REMARK VINA RESULT: -6.364830452      1.255      1.373
REMARK  3 active torsions:
REMARK  status: ('A' for Active; 'I' for Inactive)
REMARK    1  A    between atoms: O1_2  and  C2_3
REMARK    2  A    between atoms: C2_3  and  C3_5
REMARK    3  A    between atoms: C3_5  and  C4_6
ROOT
HETATM    1  C4  UNL     1      25.722 -44.395  10.797  1.00  0.00    -0.029 C
HETATM    2  C5  UNL     1      25.061 -45.720  10.797  1.00  0.00     0.014 C
HETATM    3  C6  UNL     1      25.786 -46.810  11.537  1.00  0.00    -0.012 C
HETATM    4  C7  UNL     1      26.581 -47.726  10.702  1.00  0.00     0.024 C
HETATM    5  C8  UNL     1      27.190 -47.209   9.449  1.00  0.00     0.114 C
HETATM    6  N1  UNL     1      28.293 -46.334   9.572  1.00  0.00    -0.417 N
ATOM      7  H1  UNL     1      29.222 -46.622   9.265  1.00  0.00     0.153 HD
HETATM    8  C9  UNL     1      28.083 -45.042  10.132  1.00  0.00     0.077 C
HETATM    9  C10 UNL     1      28.441 -45.094  11.590  1.00  0.00     0.029 C
HETATM   10  C11 UNL     1      27.283 -45.037  12.519  1.00  0.00    -0.012 C
HETATM   11  C12 UNL     1      26.574 -46.336  12.722  1.00  0.00     0.009 C
HETATM   12  C13 UNL     1      26.276 -43.996  12.151  1.00  0.00     0.014 C
HETATM   13  C14 UNL     1      26.822 -44.365   9.792  1.00  0.00     0.034 C
ENDROOT
BRANCH   1  14
HETATM   14  C3  UNL     1      24.724 -43.302  10.478  1.00  0.00     0.120 C
BRANCH  14  15
HETATM   15  C2  UNL     1      23.442 -43.398  11.143  1.00  0.00     0.259 C
HETATM   16  O2  UNL     1      23.295 -43.048  12.333  1.00  0.00    -0.265 OA
BRANCH  15  17
HETATM   17  O1  UNL     1      22.342 -43.887  10.458  1.00  0.00    -0.326 OA
HETATM   18  C1  UNL     1      21.295 -43.002  10.054  1.00  0.00     0.213 C
ENDBRANCH  15  17
ENDBRANCH  14  15
ENDBRANCH   1  14
TORSDOF 3
ENDMDL