MODEL 5
REMARK VINA RESULT: -6.469456067      1.367      1.524
REMARK  2 active torsions:
REMARK  status: ('A' for Active; 'I' for Inactive)
REMARK    1  A    between atoms: N2_5  and  N3_7
REMARK    2  A    between atoms: N3_7  and  C4_9
ROOT
HETATM    1  C1  UNL     1      22.123 -45.229   8.631  1.00  0.00     0.082 C
HETATM    2  C2  UNL     1      23.181 -44.987   9.633  1.00  0.00     0.101 C
HETATM    3  C3  UNL     1      23.003 -43.966  10.619  1.00  0.00     0.114 C
HETATM    4  N1  UNL     1      22.868 -43.139  11.415  1.00  0.00    -0.190 NA
HETATM    5  N2  UNL     1      24.263 -45.674   9.646  1.00  0.00    -0.298 N
ATOM      6  H2  UNL     1      24.985 -45.497  10.345  1.00  0.00     0.187 HD
ENDROOT
BRANCH   5   7
HETATM    7  N3  UNL     1      24.432 -46.671   8.681  1.00  0.00    -0.325 N
ATOM      8  H3  UNL     1      24.157 -46.481   7.717  1.00  0.00     0.181 HD
BRANCH   7   9
HETATM    9  C4  UNL     1      24.990 -47.976   9.017  1.00  0.00     0.145 C
HETATM   10  C5  UNL     1      26.336 -47.842   9.641  1.00  0.00     0.041 C
HETATM   11  C6  UNL     1      27.346 -48.863   9.331  1.00  0.00    -0.044 C
HETATM   12  C7  UNL     1      27.369 -49.915  10.430  1.00  0.00     0.015 C
HETATM   13  C8  UNL     1      28.734 -48.215   9.445  1.00  0.00     0.015 C
HETATM   14  C9  UNL     1      27.293 -49.551   8.021  1.00  0.00     0.023 C
HETATM   15  C10 UNL     1      25.969 -49.732   7.394  1.00  0.00    -0.007 C
HETATM   16  C11 UNL     1      25.423 -51.152   7.598  1.00  0.00     0.021 C
HETATM   17  C12 UNL     1      26.080 -49.570   5.871  1.00  0.00     0.021 C
HETATM   18  C13 UNL     1      24.915 -48.797   7.816  1.00  0.00     0.012 C
HETATM   19  N4  UNL     1      23.878 -48.715   7.071  1.00  0.00    -0.403 N
ATOM     20  H42 UNL     1      23.147 -48.066   7.363  1.00  0.00     0.155 HD
ATOM     21  H41 UNL     1      23.825 -49.290   6.229  1.00  0.00     0.155 HD
ENDBRANCH   7   9
ENDBRANCH   5   7
TORSDOF 2
ENDMDL