MODEL 4
REMARK VINA RESULT: -6.412082768      4.035      5.861
REMARK  4 active torsions:
REMARK  status: ('A' for Active; 'I' for Inactive)
REMARK    1  A    between atoms: C2_2  and  N1_4
REMARK       I    between atoms: N1_4  and  C4_6
REMARK    2  A    between atoms: C4_6  and  O2_8
REMARK    3  A    between atoms: O2_8  and  N2_9
REMARK       I    between atoms: N2_9  and  C5_11
REMARK    4  A    between atoms: C5_11  and  C6_13
ROOT
HETATM    1  N2  UNL     1      25.007 -46.927   9.170  1.00  0.00    -0.224 N
ATOM      2  H2  UNL     1      24.497 -46.579   8.358  1.00  0.00     0.198 HD
HETATM    3  C5  UNL     1      25.281 -46.041  10.239  1.00  0.00     0.250 C
HETATM    4  O3  UNL     1      25.915 -46.438  11.266  1.00  0.00    -0.271 OA
ENDROOT
BRANCH   1   5
HETATM    5  O2  UNL     1      25.398 -48.216   9.192  1.00  0.00    -0.178 OA
BRANCH   5   6
HETATM    6  C4  UNL     1      25.653 -48.978   8.070  1.00  0.00     0.383 C
HETATM    7  N1  UNL     1      25.851 -48.416   6.788  1.00  0.00    -0.331 N
ATOM      8  H1  UNL     1      25.799 -47.403   6.683  1.00  0.00     0.165 HD
HETATM    9  O1  UNL     1      25.717 -50.226   8.192  1.00  0.00    -0.236 OA
BRANCH   7  10
HETATM   10  C2  UNL     1      26.123 -49.218   5.629  1.00  0.00     0.078 C
HETATM   11  C1  UNL     1      24.875 -49.302   4.744  1.00  0.00     0.032 C
HETATM   12  C3  UNL     1      27.240 -48.700   4.770  1.00  0.00     0.032 C
ENDBRANCH   7  10
ENDBRANCH   5   6
ENDBRANCH   1   5
BRANCH   3  13
HETATM   13  C6  UNL     1      24.859 -44.620  10.238  1.00  0.00     0.039 C
HETATM   14  C7  UNL     1      26.107 -43.780  10.119  1.00  0.00     0.025 C
HETATM   15  C8  UNL     1      23.914 -44.384   9.107  1.00  0.00     0.019 C
HETATM   16  C9  UNL     1      22.463 -44.358   9.589  1.00  0.00     0.001 C
HETATM   17  C10 UNL     1      22.217 -43.153  10.481  1.00  0.00     0.000 C
HETATM   18  C11 UNL     1      23.460 -42.936  11.334  1.00  0.00     0.001 C
HETATM   19  C12 UNL     1      24.148 -44.265  11.536  1.00  0.00     0.019 C
ENDBRANCH   3  13
TORSDOF 4
ENDMDL