MODEL 4
REMARK VINA RESULT: -6.223520768      2.595      5.088
REMARK  4 active torsions:
REMARK  status: ('A' for Active; 'I' for Inactive)
REMARK    1  A    between atoms: O1_1  and  C1_3
REMARK    2  A    between atoms: C1_3  and  C2_4
REMARK    3  A    between atoms: C2_4  and  C3_5
REMARK    4  A    between atoms: C10_13  and  O2_14
ROOT
HETATM    1  C3  UNL     1      26.470 -45.254  10.963  1.00  0.00    -0.012 C
HETATM    2  C4  UNL     1      26.160 -43.816  10.795  1.00  0.00     0.006 C
HETATM    3  C5  UNL     1      25.013 -43.612   9.845  1.00  0.00     0.022 C
HETATM    4  C6  UNL     1      23.726 -44.247  10.370  1.00  0.00     0.015 C
HETATM    5  C7  UNL     1      22.753 -43.115  10.839  1.00  0.00     0.022 C
HETATM    6  C8  UNL     1      21.633 -42.844   9.874  1.00  0.00     0.012 C
HETATM    7  C9  UNL     1      20.551 -43.805   9.651  1.00  0.00     0.077 C
HETATM    8  S1  UNL     1      20.749 -44.967   8.218  1.00  0.00    -0.126 SA
HETATM    9  C10 UNL     1      22.417 -45.832   8.471  1.00  0.00     0.248 C
HETATM   10  C11 UNL     1      23.039 -45.007   9.416  1.00  0.00    -0.131 C
HETATM   11  C12 UNL     1      24.060 -45.005  11.632  1.00  0.00     0.022 C
HETATM   12  C13 UNL     1      25.217 -45.937  11.519  1.00  0.00     0.006 C
ENDROOT
BRANCH   9  13
HETATM   13  O2  UNL     1      22.030 -47.136   8.843  1.00  0.00    -0.375 OA
ATOM     14  H2  UNL     1      21.088 -47.053   8.932  1.00  0.00     0.212 HD
ENDBRANCH   9  13
BRANCH   1  15
HETATM   15  C2  UNL     1      26.844 -46.018   9.735  1.00  0.00     0.030 C
BRANCH  15  16
HETATM   16  C1  UNL     1      26.208 -47.346   9.641  1.00  0.00     0.164 C
BRANCH  16  17
HETATM   17  O1  UNL     1      25.333 -47.585   8.629  1.00  0.00    -0.401 OA
ATOM     18  H1  UNL     1      25.246 -46.942   7.935  1.00  0.00     0.209 HD
ENDBRANCH  16  17
ENDBRANCH  15  16
ENDBRANCH   1  15
TORSDOF 4
ENDMDL