MODEL 1
REMARK VINA RESULT: -6.355056380      0.000      0.000
REMARK  4 active torsions:
REMARK  status: ('A' for Active; 'I' for Inactive)
REMARK       I    between atoms: N1_2  and  C2_4
REMARK    1  A    between atoms: C2_4  and  C3_6
REMARK    2  A    between atoms: C4_7  and  C5_8
REMARK    3  A    between atoms: C5_8  and  O2_9
REMARK    4  A    between atoms: N2_11  and  O3_13
ROOT
HETATM    1  C3  UNL     1     -15.051  80.323   3.975  1.00  0.00     0.098 C
HETATM    2  C4  UNL     1     -16.073  79.929   4.947  1.00  0.00     0.076 C
HETATM    3  C6  UNL     1     -17.035  80.918   4.246  1.00  0.00     0.024 C
HETATM    4  C7  UNL     1     -15.835  81.585   3.575  1.00  0.00    -0.023 C
HETATM    5  C8  UNL     1     -16.099  81.729   2.123  1.00  0.00     0.011 C
HETATM    6  C9  UNL     1     -17.430  82.424   1.881  1.00  0.00     0.005 C
HETATM    7  C10 UNL     1     -17.343  83.910   1.995  1.00  0.00    -0.018 C
HETATM    8  C11 UNL     1     -17.602  84.497   0.621  1.00  0.00     0.010 C
HETATM    9  C12 UNL     1     -16.034  84.413   2.516  1.00  0.00     0.009 C
HETATM   10  C13 UNL     1     -15.768  84.095   3.931  1.00  0.00    -0.009 C
HETATM   11  C14 UNL     1     -14.367  84.602   4.320  1.00  0.00     0.005 C
HETATM   12  C15 UNL     1     -13.894  83.179   4.083  1.00  0.00     0.006 C
HETATM   13  C16 UNL     1     -15.331  82.751   4.297  1.00  0.00    -0.001 C
ENDROOT
BRANCH   1  14
HETATM   14  C2  UNL     1     -14.632  79.465   2.882  1.00  0.00     0.223 C
HETATM   15  N1  UNL     1     -13.283  79.027   2.822  1.00  0.00    -0.365 N
HETATM   16  C1  UNL     1     -12.810  78.156   1.734  1.00  0.00     0.149 C
ATOM     17  H1  UNL     1     -12.628  79.322   3.547  1.00  0.00     0.161 HD
HETATM   18  O1  UNL     1     -15.414  79.097   1.991  1.00  0.00    -0.273 OA
ENDBRANCH   1  14
BRANCH   2  19
HETATM   19  C5  UNL     1     -16.631  78.589   5.012  1.00  0.00     0.140 C
HETATM   20  N2  UNL     1     -16.843  78.020   6.143  1.00  0.00    -0.251 N
ATOM     21  H2  UNL     1     -17.235  77.079   6.140  1.00  0.00     0.196 HD
BRANCH  19  22
HETATM   22  O2  UNL     1     -16.946  77.895   3.863  1.00  0.00    -0.348 OA
ATOM     23  H2  UNL     1     -16.643  78.192   3.013  1.00  0.00     0.219 HD
ENDBRANCH  19  22
BRANCH  20  24
HETATM   24  O3  UNL     1     -16.576  78.597   7.349  1.00  0.00    -0.288 OA
ATOM     25  H3  UNL     1     -16.275  79.491   7.455  1.00  0.00     0.244 HD
ENDBRANCH  20  24
ENDBRANCH   2  19
TORSDOF 4
ENDMDL