MODEL 1
REMARK VINA RESULT: -6.380194088      0.000      0.000
REMARK  4 active torsions:
REMARK  status: ('A' for Active; 'I' for Inactive)
REMARK    1  A    between atoms: C8_8  and  C9_9
REMARK    2  A    between atoms: C9_9  and  O1_10
REMARK    3  A    between atoms: C15_17  and  O2_18
REMARK    4  A    between atoms: C15_17  and  C16_20
ROOT
HETATM    1  C1  UNL     1     -13.697  78.730   6.560  1.00  0.00     0.019 C
HETATM    2  C2  UNL     1     -14.387  79.272   5.302  1.00  0.00    -0.002 C
HETATM    3  C3  UNL     1     -13.512  78.812   4.138  1.00  0.00     0.019 C
HETATM    4  C4  UNL     1     -15.674  78.521   5.188  1.00  0.00     0.013 C
HETATM    5  C5  UNL     1     -16.891  79.416   5.226  1.00  0.00     0.005 C
HETATM    6  C6  UNL     1     -16.665  80.404   4.069  1.00  0.00     0.037 C
HETATM    7  C7  UNL     1     -15.592  81.306   4.530  1.00  0.00    -0.035 C
HETATM    8  C8  UNL     1     -15.603  82.566   4.187  1.00  0.00     0.017 C
HETATM    9  C15 UNL     1     -14.512  80.745   5.384  1.00  0.00     0.176 C
ENDROOT
BRANCH   8  10
HETATM   10  C9  UNL     1     -16.627  83.233   3.341  1.00  0.00     0.076 C
HETATM   11  C10 UNL     1     -16.032  84.421   2.584  1.00  0.00     0.042 C
HETATM   12  C11 UNL     1     -17.217  85.113   1.909  1.00  0.00     0.003 C
HETATM   13  C12 UNL     1     -17.596  84.217   0.733  1.00  0.00     0.000 C
HETATM   14  C13 UNL     1     -17.038  82.836   0.900  1.00  0.00     0.003 C
HETATM   15  C14 UNL     1     -17.196  82.295   2.300  1.00  0.00     0.042 C
BRANCH  10  16
HETATM   16  O1  UNL     1     -17.635  83.802   4.146  1.00  0.00    -0.386 OA
ATOM     17  H1  UNL     1     -17.448  84.719   4.313  1.00  0.00     0.211 HD
ENDBRANCH  10  16
ENDBRANCH   8  10
BRANCH   9  18
HETATM   18  O2  UNL     1     -14.873  81.056   6.715  1.00  0.00    -0.374 OA
ATOM     19  H2  UNL     1     -15.474  81.791   6.675  1.00  0.00     0.211 HD
ENDBRANCH   9  18
BRANCH   9  20
HETATM   20  C16 UNL     1     -13.196  81.375   5.145  1.00  0.00     0.214 C
HETATM   21  O3  UNL     1     -12.413  81.752   6.052  1.00  0.00    -0.645 OA
HETATM   22  O4  UNL     1     -12.721  81.599   3.845  1.00  0.00    -0.645 OA
ENDBRANCH   9  20
TORSDOF 4
ENDMDL