MODEL 4
REMARK VINA RESULT: -6.716439842      8.325     10.391
REMARK  3 active torsions:
REMARK  status: ('A' for Active; 'I' for Inactive)
REMARK    1  A    between atoms: C2_2  and  C7_14
REMARK    2  A    between atoms: C3_3  and  C4_4
REMARK    3  A    between atoms: C4_4  and  C5_5
REMARK       I    between atoms: C5_5  and  N1_7
REMARK       I    between atoms: N1_7  and  C6_9
ROOT
HETATM    1  C1  UNL     1     -17.458  72.670   4.196  1.00  0.00     0.043 C
HETATM    2  C2  UNL     1     -18.168  73.014   2.925  1.00  0.00    -0.083 C
HETATM    3  C3  UNL     1     -19.491  73.031   2.965  1.00  0.00    -0.015 C
ENDROOT
BRANCH   2   4
HETATM    4  C7  UNL     1     -17.335  73.305   1.746  1.00  0.00     0.017 C
HETATM    5  C8  UNL     1     -18.149  73.477   0.490  1.00  0.00     0.046 C
HETATM    6  C9  UNL     1     -17.371  74.076  -0.634  1.00  0.00     0.059 C
HETATM    7  C10 UNL     1     -17.567  73.388  -1.948  1.00  0.00     0.046 C
HETATM    8  C11 UNL     1     -15.875  74.064  -0.282  1.00  0.00     0.049 C
HETATM    9  O2  UNL     1     -17.681  75.426  -0.725  1.00  0.00    -0.375 OA
HETATM   10  C12 UNL     1     -15.914  75.150   0.793  1.00  0.00    -0.015 C
HETATM   11  C13 UNL     1     -14.574  75.717   1.091  1.00  0.00     0.018 C
HETATM   12  C14 UNL     1     -16.659  74.654   2.006  1.00  0.00     0.021 C
HETATM   13  C15 UNL     1     -16.835  76.139   0.084  1.00  0.00     0.126 C
HETATM   14  C16 UNL     1     -15.957  76.999  -0.829  1.00  0.00     0.040 C
ENDBRANCH   2   4
BRANCH   3  15
HETATM   15  C4  UNL     1     -20.269  72.731   4.180  1.00  0.00     0.130 C
BRANCH  15  16
HETATM   16  C5  UNL     1     -20.782  73.971   4.846  1.00  0.00     0.227 C
HETATM   17  O1  UNL     1     -20.331  75.103   4.566  1.00  0.00    -0.273 OA
HETATM   18  N1  UNL     1     -21.793  73.848   5.803  1.00  0.00    -0.301 N
HETATM   19  C6  UNL     1     -22.313  74.987   6.462  1.00  0.00     0.188 C
ATOM     20  H1  UNL     1     -22.161  72.924   6.029  1.00  0.00     0.171 HD
HETATM   21  N2  UNL     1     -23.236  74.878   7.336  1.00  0.00    -0.373 N
HETATM   22  N3  UNL     1     -21.810  76.270   6.153  1.00  0.00    -0.064 NA
ATOM     23  H22 UNL     1     -23.599  73.952   7.559  1.00  0.00     0.158 HD
ATOM     24  H21 UNL     1     -23.611  75.699   7.811  1.00  0.00     0.158 HD
ENDBRANCH  15  16
ENDBRANCH   3  15
TORSDOF 3
ENDMDL