MODEL 5
REMARK VINA RESULT: -5.792371651      1.644      4.645
REMARK  5 active torsions:
REMARK  status: ('A' for Active; 'I' for Inactive)
REMARK    1  A    between atoms: C4_4  and  C5_5
REMARK    2  A    between atoms: C5_5  and  C6_6
REMARK    3  A    between atoms: C12_12  and  O1_13
REMARK    4  A    between atoms: C13_15  and  O2_16
REMARK    5  A    between atoms: C16_20  and  O3_21
ROOT
HETATM    1  C6  UNL     1     -13.989  81.850   4.495  1.00  0.00     0.032 C
HETATM    2  C7  UNL     1     -15.054  82.593   3.777  1.00  0.00    -0.070 C
HETATM    3  C8  UNL     1     -16.112  82.069   3.222  1.00  0.00    -0.046 C
HETATM    4  C9  UNL     1     -16.975  83.126   2.583  1.00  0.00     0.037 C
HETATM    5  C10 UNL     1     -16.608  84.318   3.430  1.00  0.00     0.009 C
HETATM    6  C11 UNL     1     -15.099  84.100   3.572  1.00  0.00     0.035 C
HETATM    7  C12 UNL     1     -16.362  80.613   3.262  1.00  0.00     0.182 C
HETATM    8  C13 UNL     1     -15.656  80.076   4.452  1.00  0.00     0.098 C
HETATM    9  C14 UNL     1     -15.703  78.607   4.634  1.00  0.00     0.044 C
HETATM   10  C15 UNL     1     -14.420  78.271   5.318  1.00  0.00     0.035 C
HETATM   11  C16 UNL     1     -13.709  79.601   5.586  1.00  0.00     0.130 C
HETATM   12  C17 UNL     1     -14.156  80.399   4.348  1.00  0.00     0.023 C
HETATM   13  C18 UNL     1     -13.577  79.735   3.165  1.00  0.00     0.022 C
ENDROOT
BRANCH   1  14
HETATM   14  C5  UNL     1     -12.693  82.450   4.013  1.00  0.00     0.037 C
BRANCH  14  15
HETATM   15  C4  UNL     1     -11.538  82.308   4.884  1.00  0.00    -0.024 C
HETATM   16  C2  UNL     1     -11.304  83.224   5.821  1.00  0.00    -0.091 C
HETATM   17  C1  UNL     1     -12.217  84.386   5.981  1.00  0.00     0.042 C
HETATM   18  C3  UNL     1     -10.136  83.127   6.737  1.00  0.00     0.042 C
ENDBRANCH  14  15
ENDBRANCH   1  14
BRANCH   8  19
HETATM   19  O2  UNL     1     -16.204  80.675   5.593  1.00  0.00    -0.386 OA
ATOM     20  H2  UNL     1     -15.498  81.078   6.085  1.00  0.00     0.210 HD
ENDBRANCH   8  19
BRANCH  11  21
HETATM   21  O3  UNL     1     -14.181  80.189   6.743  1.00  0.00    -0.395 OA
ATOM     22  H3  UNL     1     -13.503  80.228   7.406  1.00  0.00     0.210 HD
ENDBRANCH  11  21
BRANCH   7  23
HETATM   23  O1  UNL     1     -16.058  79.996   2.058  1.00  0.00    -0.388 OA
ATOM     24  H1  UNL     1     -16.330  79.086   2.042  1.00  0.00     0.210 HD
ENDBRANCH   7  23
TORSDOF 5
ENDMDL