MODEL 3
REMARK VINA RESULT: -5.742939917      2.222      4.744
REMARK  4 active torsions:
REMARK  status: ('A' for Active; 'I' for Inactive)
REMARK    1  A    between atoms: C4_4  and  O1_5
REMARK    2  A    between atoms: C5_7  and  C7_9
REMARK    3  A    between atoms: C7_9  and  O2_10
REMARK    4  A    between atoms: C11_15  and  O3_16
ROOT
HETATM    1  C1  UNL     1     -16.905  84.245   3.526  1.00  0.00     0.015 C
HETATM    2  C2  UNL     1     -16.083  83.226   3.568  1.00  0.00    -0.082 C
HETATM    3  C3  UNL     1     -15.876  82.391   2.355  1.00  0.00     0.066 C
HETATM    4  C4  UNL     1     -16.247  81.021   2.884  1.00  0.00     0.133 C
HETATM    5  C5  UNL     1     -15.077  80.560   3.761  1.00  0.00     0.011 C
HETATM    6  C6  UNL     1     -13.978  80.162   2.791  1.00  0.00     0.021 C
HETATM    7  C8  UNL     1     -14.690  81.538   4.803  1.00  0.00    -0.022 C
HETATM    8  C9  UNL     1     -14.966  80.885   6.172  1.00  0.00     0.017 C
HETATM    9  C10 UNL     1     -13.156  81.613   4.761  1.00  0.00     0.043 C
HETATM   10  C11 UNL     1     -12.532  82.212   5.962  1.00  0.00     0.127 C
HETATM   11  C12 UNL     1     -12.437  83.706   5.941  1.00  0.00    -0.018 C
HETATM   12  C13 UNL     1     -11.359  84.181   6.891  1.00  0.00     0.018 C
HETATM   13  C14 UNL     1     -12.248  84.324   4.605  1.00  0.00     0.012 C
HETATM   14  C15 UNL     1     -13.659  84.595   4.062  1.00  0.00     0.006 C
HETATM   15  C16 UNL     1     -14.602  84.075   5.126  1.00  0.00    -0.005 C
HETATM   16  C17 UNL     1     -13.802  84.224   6.346  1.00  0.00     0.017 C
HETATM   17  C18 UNL     1     -15.343  82.862   4.818  1.00  0.00     0.027 C
ENDROOT
BRANCH   5  18
HETATM   18  C7  UNL     1     -15.596  79.208   4.251  1.00  0.00     0.176 C
BRANCH  18  19
HETATM   19  O2  UNL     1     -16.950  79.097   4.315  1.00  0.00    -0.400 OA
ATOM     20  H2  UNL     1     -17.387  78.986   3.478  1.00  0.00     0.209 HD
ENDBRANCH  18  19
ENDBRANCH   5  18
BRANCH   4  21
HETATM   21  O1  UNL     1     -16.473  80.132   1.876  1.00  0.00    -0.394 OA
ATOM     22  H1  UNL     1     -16.828  79.314   2.201  1.00  0.00     0.210 HD
ENDBRANCH   4  21
BRANCH  10  23
HETATM   23  O3  UNL     1     -11.202  81.732   6.022  1.00  0.00    -0.395 OA
ATOM     24  H3  UNL     1     -11.035  81.487   6.924  1.00  0.00     0.210 HD
ENDBRANCH  10  23
TORSDOF 4
ENDMDL