MODEL 5
REMARK VINA RESULT: -6.063502151      1.456      2.821
REMARK  4 active torsions:
REMARK  status: ('A' for Active; 'I' for Inactive)
REMARK    1  A    between atoms: C4_4  and  O1_5
REMARK    2  A    between atoms: O1_5  and  C5_6
REMARK       I    between atoms: C5_6  and  N1_8
REMARK    3  A    between atoms: N1_8  and  C6_10
REMARK    4  A    between atoms: C11_16  and  O3_17
ROOT
HETATM    1  C5  UNL     1     -10.423  84.939   8.211  1.00  0.00     0.361 C
HETATM    2  O2  UNL     1     -10.814  85.776   9.064  1.00  0.00    -0.238 OA
HETATM    3  N1  UNL     1      -9.039  84.914   7.848  1.00  0.00    -0.330 N
ATOM      4  H1  UNL     1      -8.748  84.224   7.155  1.00  0.00     0.165 HD
ENDROOT
BRANCH   1   5
HETATM    5  O1  UNL     1     -11.359  84.092   7.680  1.00  0.00    -0.299 OA
BRANCH   5   6
HETATM    6  C4  UNL     1     -11.648  83.911   6.330  1.00  0.00     0.134 C
HETATM    7  C3  UNL     1     -13.124  83.595   6.117  1.00  0.00     0.037 C
HETATM    8  C2  UNL     1     -13.497  83.567   4.677  1.00  0.00    -0.015 C
HETATM    9  C1  UNL     1     -14.478  84.669   4.312  1.00  0.00     0.010 C
HETATM   10  C16 UNL     1     -12.280  83.733   3.834  1.00  0.00     0.013 C
HETATM   11  C13 UNL     1     -11.137  82.839   4.208  1.00  0.00    -0.045 C
HETATM   12  C12 UNL     1     -10.781  82.878   5.659  1.00  0.00     0.041 C
HETATM   13  C14 UNL     1     -11.468  81.403   3.784  1.00  0.00     0.015 C
HETATM   14  C15 UNL     1      -9.950  83.260   3.336  1.00  0.00     0.015 C
ENDBRANCH   5   6
ENDBRANCH   1   5
BRANCH   3  15
HETATM   15  C6  UNL     1      -8.044  85.768   8.372  1.00  0.00     0.118 C
HETATM   16  C7  UNL     1      -6.857  86.000   7.490  1.00  0.00     0.058 C
HETATM   17  C8  UNL     1      -5.891  86.917   8.120  1.00  0.00     0.274 C
HETATM   18  N2  UNL     1      -5.699  86.825   9.515  1.00  0.00     0.086 N
HETATM   19  C9  UNL     1      -5.268  88.077  10.118  1.00  0.00     0.310 C
HETATM   20  C10 UNL     1      -6.725  86.268  10.304  1.00  0.00     0.305 C
HETATM   21  C11 UNL     1      -7.468  85.131   9.645  1.00  0.00     0.169 C
BRANCH  21  22
HETATM   22  O3  UNL     1      -6.518  84.174   9.277  1.00  0.00    -0.392 OA
ATOM     23  H3  UNL     1      -5.917  84.046  10.002  1.00  0.00     0.210 HD
ENDBRANCH  21  22
ENDBRANCH   3  15
TORSDOF 4
ENDMDL