MODEL 4
REMARK VINA RESULT: -4.937687201      5.180      7.173
REMARK  4 active torsions:
REMARK  status: ('A' for Active; 'I' for Inactive)
REMARK    1  A    between atoms: C2_2  and  N1_4
REMARK    2  A    between atoms: N1_4  and  C4_6
REMARK    3  A    between atoms: C4_6  and  N2_8
REMARK       I    between atoms: N2_8  and  C5_10
REMARK       I    between atoms: C5_10  and  N3_12
REMARK    4  A    between atoms: N3_12  and  C6_14
ROOT
HETATM    1  N2  UNL     1     -11.481  82.129   5.811  1.00  0.00    -0.286 N
ATOM      2  H2  UNL     1     -11.333  81.159   5.531  1.00  0.00     0.173 HD
HETATM    3  C5  UNL     1     -12.762  82.694   5.579  1.00  0.00     0.323 C
HETATM    4  O1  UNL     1     -12.950  83.877   5.919  1.00  0.00    -0.247 OA
HETATM    5  N3  UNL     1     -13.782  81.897   4.971  1.00  0.00    -0.329 N
ATOM      6  H3  UNL     1     -13.559  80.935   4.719  1.00  0.00     0.165 HD
ENDROOT
BRANCH   1   7
HETATM    7  C4  UNL     1     -10.394  82.815   6.404  1.00  0.00     0.175 C
HETATM    8  S1  UNL     1      -8.933  82.746   5.632  1.00  0.00    -0.041 SA
BRANCH   7   9
HETATM    9  N1  UNL     1     -10.513  83.557   7.609  1.00  0.00    -0.363 N
ATOM     10  H1  UNL     1     -11.059  83.171   8.380  1.00  0.00     0.162 HD
BRANCH   9  11
HETATM   11  C2  UNL     1      -9.884  84.832   7.766  1.00  0.00     0.075 C
HETATM   12  C1  UNL     1      -8.824  84.777   8.848  1.00  0.00     0.032 C
HETATM   13  C3  UNL     1     -10.897  85.861   8.209  1.00  0.00     0.032 C
ENDBRANCH   9  11
ENDBRANCH   7   9
ENDBRANCH   1   7
BRANCH   5  14
HETATM   14  C6  UNL     1     -15.099  82.383   4.700  1.00  0.00     0.149 C
HETATM   15  C7  UNL     1     -15.175  83.250   3.472  1.00  0.00     0.045 C
HETATM   16  C8  UNL     1     -16.543  83.276   2.846  1.00  0.00    -0.044 C
HETATM   17  C9  UNL     1     -17.638  83.548   3.832  1.00  0.00     0.015 C
HETATM   18  C10 UNL     1     -16.546  84.465   1.874  1.00  0.00     0.015 C
HETATM   19  C11 UNL     1     -16.828  82.060   2.010  1.00  0.00     0.019 C
HETATM   20  C12 UNL     1     -16.296  80.790   2.578  1.00  0.00     0.077 C
HETATM   21  S2  UNL     1     -16.153  80.927   4.395  1.00  0.00    -0.144 SA
ENDBRANCH   5  14
TORSDOF 4
ENDMDL