MODEL 2
REMARK VINA RESULT: -5.914203886      1.901      2.790
REMARK  7 active torsions:
REMARK  status: ('A' for Active; 'I' for Inactive)
REMARK    1  A    between atoms: C2_2  and  C5_5
REMARK    2  A    between atoms: C5_5  and  C6_6
REMARK    3  A    between atoms: C6_6  and  N1_7
REMARK    4  A    between atoms: C9_10  and  N2_11
REMARK    5  A    between atoms: N2_11  and  C10_13
REMARK    6  A    between atoms: C10_13  and  N3_15
REMARK    7  A    between atoms: N3_15  and  N4_17
ROOT
HETATM    1  N1  UNL     1     -14.818  81.990   3.691  1.00  0.00     0.117 N
HETATM    2  C7  UNL     1     -15.662  83.052   4.109  1.00  0.00     0.283 C
HETATM    3  C8  UNL     1     -17.030  83.041   3.530  1.00  0.00     0.106 C
HETATM    4  C9  UNL     1     -17.184  82.033   2.478  1.00  0.00     0.082 C
HETATM    5  N5  UNL     1     -16.493  80.962   2.478  1.00  0.00    -0.345 N
ATOM      6  H5  UNL     1     -16.612  80.269   1.739  1.00  0.00     0.163 HD
HETATM    7  C11 UNL     1     -15.537  80.746   3.546  1.00  0.00     0.226 C
HETATM    8  C12 UNL     1     -16.252  80.290   4.767  1.00  0.00     0.073 C
HETATM    9  C13 UNL     1     -14.617  79.650   3.093  1.00  0.00     0.073 C
ENDROOT
BRANCH   4  10
HETATM   10  N2  UNL     1     -18.115  82.222   1.426  1.00  0.00    -0.322 N
ATOM     11  H2  UNL     1     -19.111  82.200   1.644  1.00  0.00     0.169 HD
BRANCH  10  12
HETATM   12  C10 UNL     1     -17.720  82.440   0.086  1.00  0.00     0.191 C
HETATM   13  S1  UNL     1     -18.130  81.365  -1.091  1.00  0.00    -0.039 SA
BRANCH  12  14
HETATM   14  N3  UNL     1     -16.962  83.574  -0.289  1.00  0.00    -0.283 N
ATOM     15  H3  UNL     1     -16.234  83.475  -0.996  1.00  0.00     0.188 HD
BRANCH  14  16
HETATM   16  N4  UNL     1     -17.190  84.837   0.293  1.00  0.00    -0.343 N
ATOM     17  H42 UNL     1     -18.110  85.263   0.178  1.00  0.00     0.176 HD
ATOM     18  H41 UNL     1     -16.462  85.323   0.816  1.00  0.00     0.176 HD
ENDBRANCH  14  16
ENDBRANCH  12  14
ENDBRANCH  10  12
ENDBRANCH   4  10
BRANCH   1  19
HETATM   19  C6  UNL     1     -13.639  81.853   4.518  1.00  0.00     0.276 C
BRANCH  19  20
HETATM   20  C5  UNL     1     -13.537  83.035   5.411  1.00  0.00     0.039 C
BRANCH  20  21
HETATM   21  C2  UNL     1     -12.234  83.774   5.322  1.00  0.00    -0.050 C
HETATM   22  C1  UNL     1     -12.460  84.968   4.390  1.00  0.00     0.014 C
HETATM   23  C3  UNL     1     -11.710  84.278   6.615  1.00  0.00     0.014 C
HETATM   24  C4  UNL     1     -11.150  82.936   4.661  1.00  0.00     0.014 C
ENDBRANCH  20  21
ENDBRANCH  19  20
ENDBRANCH   1  19
TORSDOF 7
ENDMDL