MODEL 5
REMARK VINA RESULT: -5.063993547      1.516      3.158
REMARK  5 active torsions:
REMARK  status: ('A' for Active; 'I' for Inactive)
REMARK    1  A    between atoms: C2_2  and  C3_3
REMARK    2  A    between atoms: C11_11  and  O1_12
REMARK    3  A    between atoms: C16_18  and  O2_19
REMARK    4  A    between atoms: C16_18  and  C17_21
REMARK    5  A    between atoms: C17_21  and  O3_22
ROOT
HETATM    1  C3  UNL     1     -20.271  76.060   7.786  1.00  0.00    -0.020 C
HETATM    2  C4  UNL     1     -20.729  77.295   7.154  1.00  0.00     0.020 C
HETATM    3  C5  UNL     1     -21.515  75.336   8.335  1.00  0.00     0.013 C
HETATM    4  C6  UNL     1     -22.402  74.903   7.233  1.00  0.00     0.002 C
HETATM    5  C7  UNL     1     -21.724  74.470   5.984  1.00  0.00     0.013 C
HETATM    6  C8  UNL     1     -20.272  74.110   6.157  1.00  0.00    -0.003 C
HETATM    7  C9  UNL     1     -20.265  72.682   6.691  1.00  0.00     0.019 C
HETATM    8  C10 UNL     1     -19.498  75.060   7.039  1.00  0.00     0.043 C
HETATM    9  C11 UNL     1     -18.281  75.498   6.309  1.00  0.00     0.070 C
HETATM   10  C12 UNL     1     -16.983  75.156   7.050  1.00  0.00     0.039 C
HETATM   11  C13 UNL     1     -16.678  73.731   6.695  1.00  0.00     0.004 C
HETATM   12  C14 UNL     1     -17.146  73.614   5.247  1.00  0.00     0.011 C
HETATM   13  C15 UNL     1     -18.173  74.668   5.044  1.00  0.00     0.058 C
HETATM   14  C16 UNL     1     -19.571  74.213   4.818  1.00  0.00     0.093 C
ENDROOT
BRANCH  14  15
HETATM   15  O2  UNL     1     -20.208  75.218   4.039  1.00  0.00    -0.386 OA
ATOM     16  H2  UNL     1     -20.320  74.896   3.152  1.00  0.00     0.210 HD
ENDBRANCH  14  15
BRANCH  14  17
HETATM   17  C17 UNL     1     -19.716  72.978   3.972  1.00  0.00     0.203 C
BRANCH  17  18
HETATM   18  O3  UNL     1     -19.568  73.405   2.631  1.00  0.00    -0.398 OA
ATOM     19  H3  UNL     1     -20.375  73.856   2.409  1.00  0.00     0.209 HD
ENDBRANCH  17  18
ENDBRANCH  14  17
BRANCH   9  20
HETATM   20  O1  UNL     1     -18.269  76.821   5.895  1.00  0.00    -0.389 OA
ATOM     21  H1  UNL     1     -17.475  77.111   5.463  1.00  0.00     0.210 HD
ENDBRANCH   9  20
BRANCH   1  22
HETATM   22  C2  UNL     1     -19.505  76.406   9.038  1.00  0.00    -0.027 C
HETATM   23  C1  UNL     1     -19.051  77.605   9.326  1.00  0.00     0.007 C
ENDBRANCH   1  22
TORSDOF 5
ENDMDL