MODEL 5
REMARK VINA RESULT: -5.691051120      2.606      6.665
REMARK  5 active torsions:
REMARK  status: ('A' for Active; 'I' for Inactive)
REMARK    1  A    between atoms: C2_2  and  C7_9
REMARK    2  A    between atoms: C3_3  and  C4_4
REMARK    3  A    between atoms: C5_5  and  C6_6
REMARK    4  A    between atoms: C10_12  and  O3_13
REMARK    5  A    between atoms: C14_18  and  O4_19
ROOT
HETATM    1  C7  UNL     1     -13.230  82.429   4.170  1.00  0.00     0.025 C
HETATM    2  C8  UNL     1     -12.199  81.280   4.130  1.00  0.00     0.013 C
HETATM    3  C9  UNL     1     -13.143  80.136   3.725  1.00  0.00     0.040 C
HETATM    4  C10 UNL     1     -14.216  80.342   4.782  1.00  0.00     0.069 C
HETATM    5  C11 UNL     1     -15.345  79.417   4.682  1.00  0.00     0.019 C
HETATM    6  C12 UNL     1     -14.827  78.082   4.130  1.00  0.00     0.013 C
HETATM    7  C13 UNL     1     -16.499  79.826   3.854  1.00  0.00     0.039 C
HETATM    8  C14 UNL     1     -16.814  81.302   3.924  1.00  0.00     0.119 C
HETATM    9  C15 UNL     1     -15.559  82.058   3.672  1.00  0.00     0.044 C
HETATM   10  C16 UNL     1     -14.483  81.804   4.712  1.00  0.00    -0.003 C
HETATM   11  C17 UNL     1     -14.902  82.291   6.066  1.00  0.00     0.019 C
ENDROOT
BRANCH   1  12
HETATM   12  C2  UNL     1     -12.704  83.580   4.873  1.00  0.00    -0.079 C
HETATM   13  C1  UNL     1     -13.034  84.951   4.448  1.00  0.00     0.044 C
HETATM   14  C3  UNL     1     -11.927  83.419   5.933  1.00  0.00     0.003 C
BRANCH  14  15
HETATM   15  C4  UNL     1     -11.375  84.513   6.710  1.00  0.00     0.007 C
HETATM   16  C5  UNL     1     -10.604  84.265   7.748  1.00  0.00     0.084 C
BRANCH  16  17
HETATM   17  C6  UNL     1     -10.027  85.338   8.559  1.00  0.00     0.198 C
HETATM   18  O1  UNL     1     -10.805  86.112   9.180  1.00  0.00    -0.645 OA
HETATM   19  O2  UNL     1      -8.680  85.544   8.676  1.00  0.00    -0.645 OA
ENDBRANCH  16  17
ENDBRANCH  14  15
ENDBRANCH   1  12
BRANCH   4  20
HETATM   20  O3  UNL     1     -13.567  80.089   6.015  1.00  0.00    -0.389 OA
ATOM     21  H3  UNL     1     -13.446  80.945   6.409  1.00  0.00     0.210 HD
ENDBRANCH   4  20
BRANCH   8  22
HETATM   22  O4  UNL     1     -17.670  81.548   2.822  1.00  0.00    -0.396 OA
ATOM     23  H4  UNL     1     -17.362  80.965   2.137  1.00  0.00     0.210 HD
ENDBRANCH   8  22
TORSDOF 5
ENDMDL