MODEL 3
REMARK VINA RESULT: -8.425571628      1.624      1.991
REMARK  5 active torsions:
REMARK  status: ('A' for Active; 'I' for Inactive)
REMARK       I    between atoms: N1_2  and  C2_4
REMARK    1  A    between atoms: C2_4  and  O2_6
REMARK    2  A    between atoms: O2_6  and  C3_7
REMARK    3  A    between atoms: C3_7  and  C4_8
REMARK    4  A    between atoms: C9_16  and  C10_17
REMARK    5  A    between atoms: C11_18  and  C12_19
ROOT
HETATM    1  C4  UNL     1      37.743   5.066  53.485  1.00  0.00     0.094 C
HETATM    2  C5  UNL     1      39.154   5.432  53.091  1.00  0.00     0.049 C
HETATM    3  O3  UNL     1      37.193   6.414  53.653  1.00  0.00    -0.304 OA
HETATM    4  C6  UNL     1      36.089   7.042  53.187  1.00  0.00     0.296 C
HETATM    5  O4  UNL     1      35.279   7.685  53.888  1.00  0.00    -0.259 OA
HETATM    6  C7  UNL     1      35.758   7.000  51.742  1.00  0.00     0.068 A
HETATM    7  C8  UNL     1      34.755   7.790  51.461  1.00  0.00     0.160 A
HETATM    8  O5  UNL     1      34.224   7.965  50.191  1.00  0.00    -0.322 OA
HETATM    9  C9  UNL     1      34.872   7.201  49.200  1.00  0.00     0.075 A
HETATM   10  C13 UNL     1      35.873   6.402  49.446  1.00  0.00     0.046 A
HETATM   11  C14 UNL     1      36.456   6.178  50.756  1.00  0.00    -0.027 A
HETATM   12  C15 UNL     1      36.795   4.812  51.140  1.00  0.00     0.101 C
HETATM   13  C16 UNL     1      36.947   4.314  52.549  1.00  0.00     0.047 C
HETATM   14  C17 UNL     1      36.963   2.833  52.397  1.00  0.00    -0.006 C
HETATM   15  C18 UNL     1      35.926   2.319  53.409  1.00  0.00     0.018 C
HETATM   16  C19 UNL     1      38.051   1.897  52.514  1.00  0.00     0.026 C
HETATM   17  C20 UNL     1      39.309   2.064  51.716  1.00  0.00     0.024 C
HETATM   18  C21 UNL     1      38.553   1.420  53.859  1.00  0.00     0.024 C
HETATM   19  C22 UNL     1      37.469   0.564  52.025  1.00  0.00     0.157 C
HETATM   20  O7  UNL     1      38.274  -0.395  52.016  1.00  0.00    -0.292 OA
HETATM   21  C23 UNL     1      36.135   0.354  51.598  1.00  0.00     0.048 C
HETATM   22  C24 UNL     1      35.492   1.391  51.059  1.00  0.00    -0.007 C
HETATM   23  C25 UNL     1      36.363   2.592  51.020  1.00  0.00     0.049 C
HETATM   24  C26 UNL     1      37.176   2.337  49.824  1.00  0.00     0.027 C
HETATM   25  C27 UNL     1      35.650   3.892  50.729  1.00  0.00     0.263 C
HETATM   26  F1  UNL     1      34.560   4.134  51.528  1.00  0.00    -0.204 F
HETATM   27  F2  UNL     1      35.345   3.892  49.404  1.00  0.00    -0.204 F
ENDROOT
BRANCH   1  28
HETATM   28  C3  UNL     1      37.632   4.784  54.964  1.00  0.00     0.219 C
BRANCH  28  29
HETATM   29  O2  UNL     1      36.233   4.538  55.281  1.00  0.00    -0.301 OA
BRANCH  29  30
HETATM   30  C2  UNL     1      35.859   4.212  56.565  1.00  0.00     0.360 C
HETATM   31  N1  UNL     1      36.671   4.421  57.700  1.00  0.00    -0.341 N
HETATM   32  C1  UNL     1      36.225   4.058  59.015  1.00  0.00     0.151 C
ATOM     33  H1  UNL     1      37.594   4.838  57.584  1.00  0.00     0.164 HD
HETATM   34  O1  UNL     1      34.724   3.696  56.722  1.00  0.00    -0.239 OA
ENDBRANCH  29  30
ENDBRANCH  28  29
ENDBRANCH   1  28
BRANCH   9  35
HETATM   35  C10 UNL     1      34.362   7.334  47.799  1.00  0.00     0.040 C
HETATM   36  C11 UNL     1      34.661   8.387  47.091  1.00  0.00     0.044 C
BRANCH  36  37
HETATM   37  C12 UNL     1      34.156   8.498  45.731  1.00  0.00     0.258 C
HETATM   38  O6  UNL     1      34.889   8.914  44.790  1.00  0.00    -0.302 OA
ENDBRANCH  36  37
ENDBRANCH   9  35
TORSDOF 5
ENDMDL