MODEL 4
REMARK VINA RESULT: -8.616778429      2.254      3.084
REMARK  6 active torsions:
REMARK  status: ('A' for Active; 'I' for Inactive)
REMARK    1  A    between atoms: C2_2  and  C4_4
REMARK    2  A    between atoms: C4_4  and  C5_6
REMARK    3  A    between atoms: C5_6  and  C6_7
REMARK    4  A    between atoms: C6_7  and  C7_8
REMARK    5  A    between atoms: C7_8  and  C9_10
REMARK    6  A    between atoms: C20_23  and  O3_24
ROOT
HETATM    1  C9  UNL     1      34.548   6.698  51.085  1.00  0.00    -0.002 C
HETATM    2  C10 UNL     1      33.393   5.947  50.433  1.00  0.00     0.006 C
HETATM    3  C11 UNL     1      34.334   4.912  49.740  1.00  0.00     0.006 C
HETATM    4  C12 UNL     1      35.023   4.413  50.964  1.00  0.00     0.006 C
HETATM    5  C13 UNL     1      36.044   3.395  50.825  1.00  0.00     0.069 C
HETATM    6  C14 UNL     1      36.543   3.366  49.487  1.00  0.00     0.047 C
HETATM    7  C15 UNL     1      37.978   3.228  49.178  1.00  0.00     0.151 C
HETATM    8  O2  UNL     1      38.359   4.010  48.035  1.00  0.00    -0.382 OA
HETATM    9  C16 UNL     1      38.447   5.206  48.869  1.00  0.00     0.200 C
HETATM   10  C17 UNL     1      38.859   4.211  49.901  1.00  0.00     0.129 C
HETATM   11  C18 UNL     1      40.284   3.900  49.550  1.00  0.00     0.079 C
HETATM   12  N1  UNL     1      41.404   3.642  49.295  1.00  0.00    -0.196 NA
HETATM   13  C19 UNL     1      38.627   4.325  51.306  1.00  0.00     0.050 C
HETATM   14  C20 UNL     1      37.836   5.156  52.023  1.00  0.00     0.056 C
HETATM   15  C21 UNL     1      36.876   6.165  51.636  1.00  0.00     0.075 C
HETATM   16  C22 UNL     1      35.418   5.681  51.699  1.00  0.00    -0.030 C
HETATM   17  C23 UNL     1      35.109   5.516  53.184  1.00  0.00     0.016 C
HETATM   18  C24 UNL     1      38.969   3.038  52.075  1.00  0.00     0.206 C
HETATM   19  O4  UNL     1      39.716   3.171  53.056  1.00  0.00    -0.286 OA
HETATM   20  C25 UNL     1      38.466   1.701  51.732  1.00  0.00     0.110 C
HETATM   21 CL1  UNL     1      39.740   0.467  51.932  1.00  0.00    -0.078 Cl
HETATM   22  C26 UNL     1      37.285   1.264  51.372  1.00  0.00     0.105 C
HETATM   23 CL2  UNL     1      37.148  -0.512  51.045  1.00  0.00    -0.078 Cl
HETATM   24  C27 UNL     1      35.983   1.927  51.203  1.00  0.00     0.177 C
HETATM   25  O5  UNL     1      34.874   1.419  51.335  1.00  0.00    -0.291 OA
ENDROOT
BRANCH  14  26
HETATM   26  O3  UNL     1      37.962   4.953  53.426  1.00  0.00    -0.364 OA
ATOM     27  H3  UNL     1      37.136   5.059  53.885  1.00  0.00     0.217 HD
ENDBRANCH  14  26
BRANCH   1  28
HETATM   28  C7  UNL     1      34.119   7.910  51.754  1.00  0.00    -0.013 C
HETATM   29  C8  UNL     1      32.603   8.125  51.761  1.00  0.00     0.010 C
BRANCH  28  30
HETATM   30  C6  UNL     1      34.770   9.098  51.022  1.00  0.00     0.012 C
BRANCH  30  31
HETATM   31  C5  UNL     1      35.157   8.826  49.623  1.00  0.00     0.079 C
BRANCH  31  32
HETATM   32  C4  UNL     1      34.169   9.176  48.579  1.00  0.00     0.130 C
HETATM   33  O1  UNL     1      33.374  10.071  48.594  1.00  0.00    -0.298 OA
BRANCH  32  34
HETATM   34  C2  UNL     1      34.210   8.262  47.365  1.00  0.00     0.047 C
HETATM   35  C1  UNL     1      34.411   9.052  46.113  1.00  0.00     0.017 C
HETATM   36  C3  UNL     1      35.328   7.278  47.547  1.00  0.00     0.017 C
ENDBRANCH  32  34
ENDBRANCH  31  32
ENDBRANCH  30  31
ENDBRANCH  28  30
ENDBRANCH   1  28
TORSDOF 6
ENDMDL