MODEL 4
REMARK VINA RESULT: -7.321065084      2.195      5.163
REMARK  5 active torsions:
REMARK  status: ('A' for Active; 'I' for Inactive)
REMARK    1  A    between atoms: O1_2  and  C2_3
REMARK    2  A    between atoms: C11_12  and  O2_13
REMARK    3  A    between atoms: C16_18  and  O3_19
REMARK    4  A    between atoms: C23_29  and  O5_30
REMARK    5  A    between atoms: O5_30  and  C24_31
ROOT
HETATM    1  C2  UNL     1      39.266   5.190  52.933  1.00  0.00     0.204 C
HETATM    2  C3  UNL     1      38.115   5.249  51.909  1.00  0.00     0.042 C
HETATM    3  C4  UNL     1      37.044   6.028  52.579  1.00  0.00     0.006 C
HETATM    4  C5  UNL     1      36.412   7.119  51.763  1.00  0.00     0.033 C
HETATM    5  C6  UNL     1      35.273   6.700  50.935  1.00  0.00    -0.020 C
HETATM    6  C7  UNL     1      34.938   5.507  50.533  1.00  0.00    -0.069 C
HETATM    7  C8  UNL     1      33.685   5.617  49.708  1.00  0.00     0.047 C
HETATM    8  C9  UNL     1      35.399   4.169  50.622  1.00  0.00    -0.002 C
HETATM    9  C10 UNL     1      36.293   3.538  51.569  1.00  0.00     0.076 C
HETATM   10  C11 UNL     1      36.013   2.068  51.343  1.00  0.00     0.140 C
HETATM   11  C13 UNL     1      36.570   1.699  49.978  1.00  0.00     0.038 C
HETATM   12  C14 UNL     1      37.923   2.137  49.675  1.00  0.00    -0.001 C
HETATM   13  C15 UNL     1      38.128   1.940  48.165  1.00  0.00     0.037 C
HETATM   14  C16 UNL     1      39.604   1.947  47.967  1.00  0.00     0.118 C
HETATM   15  C17 UNL     1      40.320   3.035  48.674  1.00  0.00     0.032 C
HETATM   16  C18 UNL     1      39.922   3.183  50.165  1.00  0.00     0.013 C
HETATM   17  C19 UNL     1      38.398   3.454  50.176  1.00  0.00    -0.025 C
HETATM   18  C20 UNL     1      38.394   4.601  49.195  1.00  0.00     0.016 C
HETATM   19  C21 UNL     1      37.809   3.840  51.477  1.00  0.00     0.060 C
HETATM   20  C22 UNL     1      38.270   3.085  52.676  1.00  0.00     0.286 C
HETATM   21  F1  UNL     1      38.835   1.849  52.476  1.00  0.00    -0.204 F
HETATM   22  O4  UNL     1      37.216   3.040  53.553  1.00  0.00    -0.306 OA
HETATM   23  C23 UNL     1      36.141   3.750  53.035  1.00  0.00     0.195 C
HETATM   24  C26 UNL     1      36.174   5.210  53.464  1.00  0.00     0.051 C
HETATM   25  C27 UNL     1      34.871   5.827  53.807  1.00  0.00     0.016 C
HETATM   26  C28 UNL     1      39.391   3.814  53.380  1.00  0.00     0.330 C
HETATM   27  F2  UNL     1      40.641   3.275  53.206  1.00  0.00    -0.197 F
HETATM   28  F3  UNL     1      39.199   3.619  54.767  1.00  0.00    -0.197 F
ENDROOT
BRANCH  23  29
HETATM   29  O5  UNL     1      34.989   3.177  53.608  1.00  0.00    -0.282 OA
BRANCH  29  30
HETATM   30  C24 UNL     1      34.798   2.862  54.932  1.00  0.00     0.257 C
HETATM   31  C25 UNL     1      33.458   3.035  55.604  1.00  0.00     0.126 C
HETATM   32  O6  UNL     1      35.746   2.418  55.614  1.00  0.00    -0.266 OA
ENDBRANCH  29  30
ENDBRANCH  23  29
BRANCH  10  33
HETATM   33  O2  UNL     1      36.145   1.141  52.278  1.00  0.00    -0.389 OA
HETATM   34  C12 UNL     1      36.420  -0.097  51.800  1.00  0.00     0.202 C
ENDBRANCH  10  33
BRANCH   1  35
HETATM   35  O1  UNL     1      40.380   5.888  52.552  1.00  0.00    -0.384 OA
HETATM   36  C1  UNL     1      41.269   6.224  53.537  1.00  0.00     0.202 C
ENDBRANCH   1  35
BRANCH  14  37
HETATM   37  O3  UNL     1      39.946   1.993  46.638  1.00  0.00    -0.396 OA
ATOM     38  H3  UNL     1      40.844   1.720  46.491  1.00  0.00     0.210 HD
ENDBRANCH  14  37
TORSDOF 5
ENDMDL