MODEL 5
REMARK VINA RESULT: -7.333497144      1.692      2.237
REMARK  6 active torsions:
REMARK  status: ('A' for Active; 'I' for Inactive)
REMARK    1  A    between atoms: O1_2  and  C2_3
REMARK    2  A    between atoms: C7_9  and  O2_10
REMARK    3  A    between atoms: C16_21  and  N1_22
REMARK       I    between atoms: N1_22  and  C17_24
REMARK    4  A    between atoms: C17_24  and  C18_26
REMARK    5  A    between atoms: C18_26  and  O6_28
REMARK    6  A    between atoms: O6_28  and  C19_29
ROOT
HETATM    1  C2  UNL     1      33.475   4.025  55.765  1.00  0.00     0.103 A
HETATM    2  C3  UNL     1      34.114   3.796  54.569  1.00  0.00     0.050 A
HETATM    3  C4  UNL     1      35.485   3.712  54.467  1.00  0.00    -0.013 A
HETATM    4  C5  UNL     1      36.247   3.863  55.601  1.00  0.00    -0.024 A
HETATM    5  C6  UNL     1      35.576   4.096  56.814  1.00  0.00     0.054 A
HETATM    6 BR1  UNL     1      36.630   4.307  58.395  1.00  0.00    -0.047 Br
HETATM    7  C7  UNL     1      34.213   4.179  56.919  1.00  0.00     0.119 A
HETATM    8  C9  UNL     1      37.730   3.801  55.634  1.00  0.00     0.094 C
HETATM    9  C10 UNL     1      38.231   3.117  54.414  1.00  0.00     0.048 C
HETATM   10 CL1  UNL     1      39.901   2.501  54.521  1.00  0.00    -0.086 Cl
HETATM   11  C11 UNL     1      37.526   2.963  53.323  1.00  0.00     0.098 C
HETATM   12  O3  UNL     1      37.829   2.357  52.107  1.00  0.00    -0.341 OA
HETATM   13  C12 UNL     1      36.645   1.728  51.604  1.00  0.00     0.063 C
HETATM   14  C13 UNL     1      36.882   0.231  51.725  1.00  0.00     0.046 C
HETATM   15  C14 UNL     1      36.435   2.174  50.195  1.00  0.00     0.046 C
HETATM   16  C15 UNL     1      35.537   2.151  52.545  1.00  0.00     0.081 C
HETATM   17  C16 UNL     1      36.112   3.462  53.165  1.00  0.00     0.114 C
ENDROOT
BRANCH  17  18
HETATM   18  N1  UNL     1      35.955   4.472  52.180  1.00  0.00    -0.333 N
HETATM   19  C17 UNL     1      36.423   5.801  52.232  1.00  0.00     0.318 C
HETATM   20  O4  UNL     1      37.065   6.291  53.185  1.00  0.00    -0.262 OA
ATOM     21  H1  UNL     1      35.444   4.205  51.338  1.00  0.00     0.164 HD
BRANCH  19  22
HETATM   22  C18 UNL     1      36.173   6.732  51.113  1.00  0.00     0.353 C
HETATM   23  O5  UNL     1      36.089   6.298  49.916  1.00  0.00    -0.254 OA
BRANCH  22  24
HETATM   24  O6  UNL     1      36.016   8.094  51.287  1.00  0.00    -0.287 OA
BRANCH  24  25
HETATM   25  C19 UNL     1      34.716   8.647  51.546  1.00  0.00     0.139 C
HETATM   26  C20 UNL     1      34.569   9.039  52.981  1.00  0.00     0.064 C
HETATM   27  C21 UNL     1      34.567   9.838  50.621  1.00  0.00     0.064 C
HETATM   28 CL2  UNL     1      33.473   7.442  51.167  1.00  0.00    -0.088 Cl
ENDBRANCH  24  25
ENDBRANCH  22  24
ENDBRANCH  19  22
ENDBRANCH  17  18
BRANCH   1  29
HETATM   29  O1  UNL     1      32.095   4.090  55.764  1.00  0.00    -0.353 OA
HETATM   30  C1  UNL     1      31.258   2.992  55.559  1.00  0.00     0.210 C
ENDBRANCH   1  29
BRANCH   7  31
HETATM   31  O2  UNL     1      33.606   4.411  58.145  1.00  0.00    -0.352 OA
HETATM   32  C8  UNL     1      33.231   3.340  59.008  1.00  0.00     0.210 C
ENDBRANCH   7  31
TORSDOF 6
ENDMDL