MODEL 1
REMARK VINA RESULT: -7.998520821      0.000      0.000
REMARK  6 active torsions:
REMARK  status: ('A' for Active; 'I' for Inactive)
REMARK    1  A    between atoms: C2_2  and  O2_4
REMARK    2  A    between atoms: O2_4  and  C3_5
REMARK    3  A    between atoms: C3_5  and  C4_6
REMARK    4  A    between atoms: C12_17  and  C13_19
REMARK    5  A    between atoms: C15_21  and  O6_22
REMARK    6  A    between atoms: C21_31  and  C22_32
ROOT
HETATM    1  C4  UNL     1      34.169   7.760  48.727  1.00  0.00     0.011 C
HETATM    2  C5  UNL     1      34.430   6.944  49.712  1.00  0.00    -0.006 C
HETATM    3  C6  UNL     1      33.999   5.489  49.509  1.00  0.00     0.194 C
HETATM    4  O3  UNL     1      32.980   5.041  49.025  1.00  0.00    -0.289 OA
HETATM    5  C7  UNL     1      35.199   4.767  50.079  1.00  0.00     0.169 C
HETATM    6  C8  UNL     1      36.274   4.993  49.070  1.00  0.00     0.053 C
HETATM    7  C9  UNL     1      37.555   4.426  49.555  1.00  0.00     0.048 C
HETATM    8  C10 UNL     1      37.214   3.386  50.601  1.00  0.00     0.133 C
HETATM    9  C11 UNL     1      38.264   2.291  50.354  1.00  0.00     0.053 C
HETATM   10  O4  UNL     1      36.047   2.765  50.187  1.00  0.00    -0.225 OA
HETATM   11  O5  UNL     1      34.956   3.417  50.254  1.00  0.00    -0.220 OA
HETATM   12  C12 UNL     1      37.200   3.922  51.996  1.00  0.00     0.187 C
HETATM   13  F1  UNL     1      36.377   2.921  52.635  1.00  0.00    -0.235 F
HETATM   14  C19 UNL     1      36.408   5.143  52.257  1.00  0.00     0.207 C
HETATM   15  F2  UNL     1      37.142   6.295  52.410  1.00  0.00    -0.226 F
HETATM   16 BR1  UNL     1      35.535   4.881  54.025  1.00  0.00    -0.044 Br
HETATM   17  C20 UNL     1      35.279   5.458  51.361  1.00  0.00     0.095 C
HETATM   18  C21 UNL     1      35.097   6.945  51.014  1.00  0.00     0.037 C
ENDROOT
BRANCH  12  19
HETATM   19  C13 UNL     1      38.476   3.747  52.763  1.00  0.00     0.039 C
HETATM   20  C14 UNL     1      38.352   2.896  54.002  1.00  0.00     0.040 C
HETATM   21  C15 UNL     1      39.009   3.682  55.120  1.00  0.00     0.119 C
HETATM   22  C16 UNL     1      39.995   4.524  54.408  1.00  0.00     0.036 C
HETATM   23  C17 UNL     1      39.396   4.832  53.022  1.00  0.00    -0.009 C
HETATM   24  C18 UNL     1      40.650   4.853  52.112  1.00  0.00     0.010 C
BRANCH  21  25
HETATM   25  O6  UNL     1      39.610   2.753  55.972  1.00  0.00    -0.396 OA
ATOM     26  H6  UNL     1      39.101   2.744  56.775  1.00  0.00     0.210 HD
ENDBRANCH  21  25
ENDBRANCH  12  19
BRANCH  18  27
HETATM   27  C22 UNL     1      34.488   7.674  52.153  1.00  0.00    -0.014 C
HETATM   28  C23 UNL     1      33.034   7.966  52.077  1.00  0.00     0.010 C
HETATM   29  C24 UNL     1      35.299   8.804  52.662  1.00  0.00     0.010 C
ENDBRANCH  18  27
BRANCH   1  30
HETATM   30  C3  UNL     1      34.422   9.190  48.560  1.00  0.00     0.207 C
BRANCH  30  31
HETATM   31  O2  UNL     1      33.493  10.059  49.115  1.00  0.00    -0.318 OA
BRANCH  31  32
HETATM   32  C2  UNL     1      33.559  10.889  50.148  1.00  0.00     0.255 C
HETATM   33  C1  UNL     1      32.361  11.378  50.922  1.00  0.00     0.126 C
HETATM   34  O1  UNL     1      34.651  11.328  50.554  1.00  0.00    -0.266 OA
ENDBRANCH  31  32
ENDBRANCH  30  31
ENDBRANCH   1  30
TORSDOF 6
ENDMDL