MODEL 3
REMARK VINA RESULT: -9.192677766      1.658      3.922
REMARK  5 active torsions:
REMARK  status: ('A' for Active; 'I' for Inactive)
REMARK    1  A    between atoms: C2_2  and  O1_3
REMARK    2  A    between atoms: C2_2  and  C9_10
REMARK    3  A    between atoms: C2_2  and  C28_36
REMARK    4  A    between atoms: O1_3  and  C3_4
REMARK       I    between atoms: C9_10  and  N1_12
REMARK    5  A    between atoms: N1_12  and  C10_14
ROOT
HETATM    1  C10 UNL     1      37.853   4.872  49.575  1.00  0.00     0.081 C
HETATM    2  C11 UNL     1      38.303   5.078  48.347  1.00  0.00     0.113 C
HETATM    3  C12 UNL     1      38.896   3.832  47.827  1.00  0.00     0.288 C
HETATM    4  O3  UNL     1      39.430   3.630  46.716  1.00  0.00    -0.260 OA
HETATM    5  O4  UNL     1      38.724   2.978  48.827  1.00  0.00    -0.273 OA
HETATM    6  C13 UNL     1      38.200   3.520  50.029  1.00  0.00     0.225 C
HETATM    7  O5  UNL     1      37.181   2.684  50.369  1.00  0.00    -0.342 OA
HETATM    8  C14 UNL     1      37.525   1.431  50.749  1.00  0.00     0.142 C
HETATM    9  C15 UNL     1      38.613   0.734  49.920  1.00  0.00     0.034 C
HETATM   10  C16 UNL     1      39.986   1.279  50.107  1.00  0.00     0.009 C
HETATM   11  C17 UNL     1      39.907   2.149  51.359  1.00  0.00     0.005 C
HETATM   12  C18 UNL     1      39.326   1.235  52.334  1.00  0.00     0.009 C
HETATM   13  C19 UNL     1      39.471   1.182  53.753  1.00  0.00     0.013 C
HETATM   14  C20 UNL     1      38.442   0.070  54.057  1.00  0.00     0.079 C
HETATM   15  C21 UNL     1      37.541   0.007  52.839  1.00  0.00     0.138 C
HETATM   16  O6  UNL     1      36.815  -0.884  52.490  1.00  0.00    -0.297 OA
HETATM   17  C22 UNL     1      37.805   1.344  52.199  1.00  0.00     0.051 C
HETATM   18  C23 UNL     1      37.165   2.329  53.083  1.00  0.00     0.020 C
HETATM   19  C24 UNL     1      37.700   3.675  53.191  1.00  0.00     0.002 C
HETATM   20  C25 UNL     1      38.831   4.110  52.386  1.00  0.00     0.015 C
HETATM   21  C26 UNL     1      39.221   3.470  51.124  1.00  0.00     0.023 C
HETATM   22  C27 UNL     1      40.362   4.385  50.602  1.00  0.00     0.022 C
ENDROOT
BRANCH   1  23
HETATM   23  N1  UNL     1      37.221   5.938  50.271  1.00  0.00    -0.323 N
HETATM   24  C9  UNL     1      35.989   5.992  50.927  1.00  0.00     0.266 C
HETATM   25  O2  UNL     1      35.273   4.970  50.926  1.00  0.00    -0.269 OA
ATOM     26  H1  UNL     1      37.756   6.807  50.296  1.00  0.00     0.169 HD
BRANCH  24  27
HETATM   27  C2  UNL     1      35.452   7.157  51.634  1.00  0.00     0.236 C
HETATM   28  C1  UNL     1      34.083   6.809  52.251  1.00  0.00     0.066 C
BRANCH  27  29
HETATM   29  O1  UNL     1      35.303   8.310  50.962  1.00  0.00    -0.357 OA
BRANCH  29  30
HETATM   30  C3  UNL     1      34.118   8.852  50.640  1.00  0.00     0.123 C
HETATM   31  C4  UNL     1      34.114   9.238  49.181  1.00  0.00     0.032 C
HETATM   32  C5  UNL     1      32.904  10.060  48.781  1.00  0.00     0.002 C
HETATM   33  C6  UNL     1      32.827  11.301  49.642  1.00  0.00     0.000 C
HETATM   34  C7  UNL     1      32.622  10.777  51.066  1.00  0.00     0.002 C
HETATM   35  C8  UNL     1      33.937  10.175  51.475  1.00  0.00     0.032 C
ENDBRANCH  29  30
ENDBRANCH  27  29
BRANCH  27  36
HETATM   36  C28 UNL     1      36.290   7.551  52.875  1.00  0.00     0.427 C
HETATM   37  F1  UNL     1      36.806   6.480  53.531  1.00  0.00    -0.167 F
HETATM   38  F2  UNL     1      37.245   8.484  52.518  1.00  0.00    -0.167 F
HETATM   39  F3  UNL     1      35.421   8.195  53.742  1.00  0.00    -0.167 F
ENDBRANCH  27  36
ENDBRANCH  24  27
ENDBRANCH   1  23
TORSDOF 5
ENDMDL