MODEL 5
REMARK VINA RESULT: -8.797676445      2.759      5.020
REMARK  7 active torsions:
REMARK  status: ('A' for Active; 'I' for Inactive)
REMARK    1  A    between atoms: O1_2  and  C2_3
REMARK       I    between atoms: N1_9  and  C8_10
REMARK    2  A    between atoms: C8_10  and  O3_12
REMARK    3  A    between atoms: O3_12  and  C9_13
REMARK    4  A    between atoms: C22_28  and  C23_29
REMARK    5  A    between atoms: C23_29  and  C24_30
REMARK    6  A    between atoms: C24_30  and  C25_31
REMARK    7  A    between atoms: C27_36  and  O6_37
ROOT
HETATM    1  C2  UNL     1      40.823   0.793  51.042  1.00  0.00     0.149 C
HETATM    2  C3  UNL     1      39.990   0.999  49.828  1.00  0.00     0.034 C
HETATM    3  C4  UNL     1      39.936   2.426  49.349  1.00  0.00     0.003 C
HETATM    4  C5  UNL     1      38.496   2.857  49.057  1.00  0.00     0.002 C
HETATM    5  C6  UNL     1      37.951   3.721  50.166  1.00  0.00     0.020 C
HETATM    6  C7  UNL     1      37.185   2.934  51.199  1.00  0.00     0.128 C
HETATM    7  N1  UNL     1      37.721   3.079  52.538  1.00  0.00    -0.323 N
HETATM    8  C8  UNL     1      37.866   4.392  53.067  1.00  0.00     0.363 C
HETATM    9  O2  UNL     1      38.320   4.628  54.215  1.00  0.00    -0.238 OA
HETATM   10  C22 UNL     1      38.120   1.980  53.390  1.00  0.00     0.092 C
HETATM   11  C26 UNL     1      38.892   0.913  52.658  1.00  0.00     0.059 C
HETATM   12  C27 UNL     1      40.287   1.307  52.329  1.00  0.00     0.149 C
ENDROOT
BRANCH   8  13
HETATM   13  O3  UNL     1      37.522   5.537  52.365  1.00  0.00    -0.298 OA
BRANCH  13  14
HETATM   14  C9  UNL     1      36.348   6.255  52.529  1.00  0.00     0.134 C
HETATM   15  C10 UNL     1      36.536   7.739  52.674  1.00  0.00     0.033 C
HETATM   16  C11 UNL     1      35.183   8.381  52.934  1.00  0.00     0.008 C
HETATM   17  C12 UNL     1      34.102   7.787  52.068  1.00  0.00    -0.006 C
HETATM   18  C13 UNL     1      33.020   8.777  51.765  1.00  0.00     0.042 C
HETATM   19  C20 UNL     1      34.760   7.201  50.866  1.00  0.00    -0.001 C
HETATM   20  C14 UNL     1      33.522   9.881  50.882  1.00  0.00    -0.039 A
HETATM   21  C15 UNL     1      34.003  11.091  50.454  1.00  0.00     0.025 A
HETATM   22  C16 UNL     1      33.767  10.097  49.542  1.00  0.00     0.137 A
HETATM   23  O4  UNL     1      32.910  10.039  48.484  1.00  0.00    -0.352 OA
HETATM   24  C17 UNL     1      34.249   9.346  48.557  1.00  0.00     0.235 A
HETATM   25  C18 UNL     1      33.974   7.870  48.641  1.00  0.00     0.159 C
HETATM   26  O5  UNL     1      33.866   7.418  47.513  1.00  0.00    -0.295 OA
HETATM   27  C19 UNL     1      33.811   6.884  49.745  1.00  0.00     0.086 C
HETATM   28  C21 UNL     1      35.447   5.920  51.360  1.00  0.00     0.038 C
ENDBRANCH  13  14
ENDBRANCH   8  13
BRANCH  10  29
HETATM   29  C23 UNL     1      36.880   1.483  54.062  1.00  0.00     0.034 C
BRANCH  29  30
HETATM   30  C24 UNL     1      36.608   2.031  55.418  1.00  0.00     0.119 C
BRANCH  30  31
HETATM   31  C25 UNL     1      35.306   2.844  55.330  1.00  0.00     0.388 C
HETATM   32  F1  UNL     1      35.546   4.167  55.645  1.00  0.00    -0.171 F
HETATM   33  F2  UNL     1      34.808   2.816  54.033  1.00  0.00    -0.171 F
HETATM   34  F3  UNL     1      34.339   2.307  56.142  1.00  0.00    -0.171 F
ENDBRANCH  30  31
ENDBRANCH  29  30
ENDBRANCH  10  29
BRANCH  12  35
HETATM   35  O6  UNL     1      40.526   2.682  52.521  1.00  0.00    -0.393 OA
ATOM     36  H6  UNL     1      41.194   2.860  53.173  1.00  0.00     0.210 HD
ENDBRANCH  12  35
BRANCH   1  37
HETATM   37  O1  UNL     1      42.066   1.382  50.821  1.00  0.00    -0.388 OA
HETATM   38  C1  UNL     1      43.013   0.462  50.375  1.00  0.00     0.202 C
ENDBRANCH   1  37
TORSDOF 7
ENDMDL