MODEL 2
REMARK VINA RESULT: -8.565353434      4.241      6.688
REMARK  6 active torsions:
REMARK  status: ('A' for Active; 'I' for Inactive)
REMARK    1  A    between atoms: O1_2  and  C2_3
REMARK    2  A    between atoms: C2_3  and  C3_4
REMARK    3  A    between atoms: C13_15  and  O3_16
REMARK    4  A    between atoms: O3_16  and  C14_17
REMARK    5  A    between atoms: C20_24  and  C21_25
REMARK    6  A    between atoms: C21_25  and  O5_26
ROOT
HETATM    1  C2  UNL     1      34.387   7.411  50.514  1.00  0.00     0.157 C
HETATM    2  C4  UNL     1      35.290   6.735  49.488  1.00  0.00     0.050 C
HETATM    3  C5  UNL     1      35.088   5.288  49.319  1.00  0.00     0.013 C
HETATM    4  C6  UNL     1      35.727   4.340  50.266  1.00  0.00    -0.033 C
HETATM    5  C7  UNL     1      34.616   3.317  50.609  1.00  0.00     0.016 C
HETATM    6  C8  UNL     1      36.733   3.507  49.478  1.00  0.00    -0.001 C
HETATM    7  C9  UNL     1      37.679   4.273  48.643  1.00  0.00     0.007 C
HETATM    8  C10 UNL     1      39.065   3.718  48.522  1.00  0.00     0.012 C
HETATM    9  C11 UNL     1      39.165   2.236  48.554  1.00  0.00    -0.013 C
HETATM   10  C12 UNL     1      39.047   1.774  47.111  1.00  0.00     0.018 C
HETATM   11  C13 UNL     1      40.524   1.842  49.160  1.00  0.00     0.140 C
HETATM   12  C16 UNL     1      40.321   0.733  50.093  1.00  0.00     0.034 C
HETATM   13  C17 UNL     1      38.829   0.361  50.008  1.00  0.00     0.008 C
HETATM   14  C18 UNL     1      38.144   1.543  49.425  1.00  0.00     0.001 C
HETATM   15  C19 UNL     1      37.368   2.417  50.323  1.00  0.00     0.001 C
HETATM   16  C20 UNL     1      38.000   2.984  51.527  1.00  0.00     0.014 C
HETATM   17  C22 UNL     1      37.759   4.444  51.741  1.00  0.00     0.015 C
HETATM   18  C23 UNL     1      36.295   4.851  51.511  1.00  0.00     0.035 C
HETATM   19  C24 UNL     1      36.263   6.316  51.811  1.00  0.00     0.137 A
HETATM   20  O6  UNL     1      36.844   6.399  53.216  1.00  0.00    -0.365 OA
HETATM   21  C25 UNL     1      37.199   7.225  52.162  1.00  0.00     0.167 A
HETATM   22  C26 UNL     1      36.511   8.585  52.371  1.00  0.00     0.118 C
HETATM   23  C27 UNL     1      35.121   8.151  52.761  1.00  0.00     0.288 C
HETATM   24  F1  UNL     1      35.112   7.769  54.111  1.00  0.00    -0.202 F
HETATM   25  F2  UNL     1      34.169   9.109  52.666  1.00  0.00    -0.202 F
HETATM   26  C28 UNL     1      34.906   6.939  51.870  1.00  0.00     0.239 C
HETATM   27  F3  UNL     1      34.044   6.021  52.430  1.00  0.00    -0.229 F
ENDROOT
BRANCH   1  28
HETATM   28  O1  UNL     1      34.507   8.744  50.349  1.00  0.00    -0.374 OA
HETATM   29  C1  UNL     1      34.485   9.352  49.160  1.00  0.00     0.203 C
ENDBRANCH   1  28
BRANCH   1  30
HETATM   30  C3  UNL     1      32.996   6.973  50.433  1.00  0.00     0.273 C
HETATM   31  O2  UNL     1      32.095   7.765  50.600  1.00  0.00    -0.303 OA
ENDBRANCH   1  30
BRANCH  16  32
HETATM   32  C21 UNL     1      37.563   2.304  52.836  1.00  0.00     0.169 C
BRANCH  32  33
HETATM   33  O5  UNL     1      36.606   1.328  52.574  1.00  0.00    -0.400 OA
ATOM     34  H5  UNL     1      36.878   0.496  52.941  1.00  0.00     0.209 HD
ENDBRANCH  32  33
ENDBRANCH  16  32
BRANCH  11  35
HETATM   35  O3  UNL     1      41.260   2.945  49.556  1.00  0.00    -0.316 OA
BRANCH  35  36
HETATM   36  C14 UNL     1      42.439   3.396  49.035  1.00  0.00     0.255 C
HETATM   37  C15 UNL     1      43.356   4.357  49.671  1.00  0.00     0.126 C
HETATM   38  O4  UNL     1      42.678   2.891  47.912  1.00  0.00    -0.266 OA
ENDBRANCH  35  36
ENDBRANCH  11  35
TORSDOF 6
ENDMDL