MODEL 1
REMARK VINA RESULT: -8.124941653      0.000      0.000
REMARK  9 active torsions:
REMARK  status: ('A' for Active; 'I' for Inactive)
REMARK    1  A    between atoms: C3_6  and  N3_7
REMARK    2  A    between atoms: C6_14  and  N5_15
REMARK    3  A    between atoms: N5_15  and  C7_17
REMARK    4  A    between atoms: C13_26  and  N7_27
REMARK    5  A    between atoms: N7_27  and  C14_29
REMARK    6  A    between atoms: C14_29  and  C15_30
REMARK    7  A    between atoms: C15_30  and  O2_31
REMARK    8  A    between atoms: C15_30  and  C16_33
REMARK    9  A    between atoms: C16_33  and  O3_34
ROOT
HETATM    1  N1  UNL     1      -1.502 -86.424  92.852  1.00  0.00    -0.188 NA
HETATM    2  C1  UNL     1      -2.641 -86.467  92.681  1.00  0.00     0.137 C
HETATM    3  C2  UNL     1      -4.085 -86.494  92.466  1.00  0.00     0.190 A
HETATM    4  N2  UNL     1      -4.721 -85.368  92.097  1.00  0.00    -0.318 N
ATOM      5  H2  UNL     1      -4.190 -84.507  91.971  1.00  0.00     0.169 HD
HETATM    6  C3  UNL     1      -6.047 -85.366  91.894  1.00  0.00     0.132 A
HETATM    7  C4  UNL     1      -6.783 -86.522  92.058  1.00  0.00     0.124 A
HETATM    8  C5  UNL     1      -6.123 -87.664  92.432  1.00  0.00     0.097 A
HETATM    9  N4  UNL     1      -4.788 -87.621  92.628  1.00  0.00    -0.330 N
ATOM     10  H4  UNL     1      -4.301 -88.473  92.908  1.00  0.00     0.168 HD
HETATM   11  C6  UNL     1      -7.106 -88.667  92.542  1.00  0.00     0.103 A
HETATM   12  C13 UNL     1      -8.297 -88.090  92.238  1.00  0.00     0.147 A
HETATM   13  N8  UNL     1      -8.095 -86.760  91.936  1.00  0.00    -0.226 N
HETATM   14  C17 UNL     1      -9.045 -85.799  91.565  1.00  0.00     0.191 C
HETATM   15  N9  UNL     1      -9.843 -85.019  91.259  1.00  0.00    -0.171 NA
ENDROOT
BRANCH   6  16
HETATM   16  N3  UNL     1      -6.666 -84.272  91.536  1.00  0.00    -0.383 N
ATOM     17  H32 UNL     1      -6.553 -83.934  90.580  1.00  0.00     0.157 HD
ATOM     18  H31 UNL     1      -7.250 -83.764  92.199  1.00  0.00     0.157 HD
ENDBRANCH   6  16
BRANCH  11  19
HETATM   19  N5  UNL     1      -6.743 -89.964  92.914  1.00  0.00    -0.378 N
ATOM     20  H5  UNL     1      -5.766 -90.031  93.201  1.00  0.00     0.160 HD
BRANCH  19  21
HETATM   21  C7  UNL     1      -7.400 -91.180  92.983  1.00  0.00     0.116 C
HETATM   22  C8  UNL     1      -7.802 -91.926  91.734  1.00  0.00     0.048 C
HETATM   23  C9  UNL     1      -8.618 -93.026  92.469  1.00  0.00     0.129 C
HETATM   24  N6  UNL     1      -7.559 -93.527  93.319  1.00  0.00    -0.336 N
HETATM   25  C10 UNL     1      -6.942 -94.662  93.881  1.00  0.00     0.230 C
HETATM   26  C12 UNL     1      -6.803 -92.316  93.756  1.00  0.00     0.172 C
HETATM   27  O1  UNL     1      -7.552 -95.584  94.482  1.00  0.00    -0.273 OA
HETATM   28  C11 UNL     1      -5.470 -94.655  93.685  1.00  0.00     0.179 C
HETATM   29  S1  UNL     1      -5.216 -92.932  93.064  1.00  0.00    -0.132 SA
ENDBRANCH  19  21
ENDBRANCH  11  19
BRANCH  12  30
HETATM   30  N7  UNL     1      -9.620 -88.591  92.279  1.00  0.00    -0.371 N
ATOM     31  H7  UNL     1      -9.756 -89.505  91.849  1.00  0.00     0.161 HD
BRANCH  30  32
HETATM   32  C14 UNL     1     -10.786 -88.000  92.838  1.00  0.00     0.155 C
BRANCH  32  33
HETATM   33  C15 UNL     1     -10.823 -88.089  94.355  1.00  0.00     0.159 C
BRANCH  33  34
HETATM   34  O2  UNL     1      -9.807 -88.931  94.829  1.00  0.00    -0.392 OA
ATOM     35  H2  UNL     1      -9.935 -89.130  95.749  1.00  0.00     0.210 HD
ENDBRANCH  33  34
BRANCH  33  36
HETATM   36  C16 UNL     1     -10.552 -86.709  94.924  1.00  0.00     0.197 C
BRANCH  36  37
HETATM   37  O3  UNL     1     -11.248 -85.777  94.149  1.00  0.00    -0.398 OA
ATOM     38  H3  UNL     1     -12.085 -86.160  93.912  1.00  0.00     0.209 HD
ENDBRANCH  36  37
ENDBRANCH  33  36
ENDBRANCH  32  33
ENDBRANCH  30  32
ENDBRANCH  12  30
TORSDOF 9
ENDMDL