MODEL 1
REMARK VINA RESULT: -8.579853936      0.000      0.000
REMARK  9 active torsions:
REMARK  status: ('A' for Active; 'I' for Inactive)
REMARK    1  A    between atoms: C2_4  and  N2_5
REMARK    2  A    between atoms: C2_4  and  C8_16
REMARK    3  A    between atoms: N2_5  and  N3_7
REMARK       I    between atoms: N3_7  and  C3_9
REMARK    4  A    between atoms: C3_9  and  C4_11
REMARK    5  A    between atoms: C8_16  and  N4_17
REMARK    6  A    between atoms: C8_16  and  C13_26
REMARK       I    between atoms: N4_17  and  C9_19
REMARK       I    between atoms: C9_19  and  N5_21
REMARK    7  A    between atoms: N5_21  and  C10_23
REMARK    8  A    between atoms: N8_30  and  C14_31
REMARK    9  A    between atoms: C15_37  and  N11_38
ROOT
HETATM    1  C8  UNL     1      -7.156 -86.834  92.382  1.00  0.00     0.225 C
ENDROOT
BRANCH   1   2
HETATM    2  C2  UNL     1      -8.208 -85.879  91.863  1.00  0.00     0.122 C
HETATM    3  N1  UNL     1      -7.944 -85.320  90.749  1.00  0.00    -0.381 N
HETATM    4  C1  UNL     1      -8.831 -84.405  90.122  1.00  0.00     0.147 C
ATOM      5  H1  UNL     1      -7.059 -85.538  90.288  1.00  0.00     0.160 HD
BRANCH   2   6
HETATM    6  N2  UNL     1      -9.397 -85.660  92.599  1.00  0.00    -0.284 N
ATOM      7  H2  UNL     1      -9.377 -84.971  93.351  1.00  0.00     0.188 HD
BRANCH   6   8
HETATM    8  N3  UNL     1     -10.586 -86.328  92.357  1.00  0.00    -0.263 N
HETATM    9  C3  UNL     1     -11.538 -86.461  93.387  1.00  0.00     0.293 C
HETATM   10  O1  UNL     1     -11.300 -85.974  94.510  1.00  0.00    -0.264 OA
ATOM     11  H3  UNL     1     -10.772 -86.723  91.435  1.00  0.00     0.190 HD
BRANCH   9  12
HETATM   12  C4  UNL     1     -12.782 -87.169  93.121  1.00  0.00     0.144 A
HETATM   13  C5  UNL     1     -12.967 -88.531  92.947  1.00  0.00     0.045 A
HETATM   14  C6  UNL     1     -14.301 -88.769  92.716  1.00  0.00     0.027 A
HETATM   15  C7  UNL     1     -14.892 -87.497  92.762  1.00  0.00     0.143 A
HETATM   16  O2  UNL     1     -13.961 -86.609  92.999  1.00  0.00    -0.317 OA
ENDBRANCH   9  12
ENDBRANCH   6   8
ENDBRANCH   2   6
ENDBRANCH   1   2
BRANCH   1  17
HETATM   17  N4  UNL     1      -7.267 -88.015  91.549  1.00  0.00    -0.325 N
HETATM   18  C9  UNL     1      -8.220 -89.029  91.697  1.00  0.00     0.317 C
HETATM   19  O3  UNL     1      -9.064 -88.959  92.610  1.00  0.00    -0.247 OA
HETATM   20  N5  UNL     1      -8.243 -90.144  90.819  1.00  0.00    -0.339 N
ATOM     21  H5  UNL     1      -7.556 -90.198  90.067  1.00  0.00     0.164 HD
ATOM     22  H4  UNL     1      -6.593 -88.115  90.790  1.00  0.00     0.165 HD
BRANCH  20  23
HETATM   23  C10 UNL     1      -9.226 -91.217  90.962  1.00  0.00     0.078 C
HETATM   24  C11 UNL     1      -8.520 -92.506  90.711  1.00  0.00     0.032 C
HETATM   25  C12 UNL     1     -10.336 -91.041  89.949  1.00  0.00     0.032 C
ENDBRANCH  20  23
ENDBRANCH   1  17
BRANCH   1  26
HETATM   26  C13 UNL     1      -5.805 -86.234  92.208  1.00  0.00     0.141 A
HETATM   27  N6  UNL     1      -5.429 -84.963  92.465  1.00  0.00    -0.268 N
HETATM   28  N7  UNL     1      -4.138 -84.851  92.171  1.00  0.00     0.004 NA
ATOM     29  H6  UNL     1      -6.029 -84.220  92.823  1.00  0.00     0.185 HD
HETATM   30  N8  UNL     1      -3.670 -86.007  91.733  1.00  0.00    -0.156 N
HETATM   31  N12 UNL     1      -4.690 -86.834  91.760  1.00  0.00    -0.264 N
ATOM     32  H12 UNL     1      -4.641 -87.813  91.477  1.00  0.00     0.190 HD
BRANCH  30  33
HETATM   33  C14 UNL     1      -2.315 -86.275  91.314  1.00  0.00     0.210 A
HETATM   34  N9  UNL     1      -1.793 -86.094  90.089  1.00  0.00    -0.219 N
HETATM   35  O4  UNL     1      -0.537 -86.450  90.112  1.00  0.00    -0.153 OA
ATOM     36  H9  UNL     1      -2.294 -85.737  89.275  1.00  0.00     0.198 HD
HETATM   37  N10 UNL     1      -0.218 -86.858  91.306  1.00  0.00    -0.222 N
HETATM   38  C15 UNL     1      -1.295 -86.768  92.097  1.00  0.00     0.170 A
ATOM     39  H10 UNL     1       0.702 -87.193  91.593  1.00  0.00     0.198 HD
BRANCH  38  40
HETATM   40  N11 UNL     1      -1.371 -87.086  93.366  1.00  0.00    -0.381 N
ATOM     41 2H11 UNL     1      -1.630 -86.472  94.138  1.00  0.00     0.157 HD
ATOM     42 1H11 UNL     1      -1.178 -88.001  93.775  1.00  0.00     0.157 HD
ENDBRANCH  38  40
ENDBRANCH  30  33
ENDBRANCH   1  26
TORSDOF 9
ENDMDL