MODEL 3
REMARK VINA RESULT: -8.794877353      3.581      7.085
REMARK  9 active torsions:
REMARK  status: ('A' for Active; 'I' for Inactive)
REMARK    1  A    between atoms: C3_3  and  S1_4
REMARK    2  A    between atoms: S1_4  and  C4_5
REMARK    3  A    between atoms: C5_10  and  C6_11
REMARK    4  A    between atoms: C7_12  and  C8_13
REMARK    5  A    between atoms: C8_13  and  N3_14
REMARK    6  A    between atoms: N3_14  and  N4_15
REMARK    7  A    between atoms: N4_15  and  C9_17
REMARK    8  A    between atoms: C10_20  and  N6_21
REMARK    9  A    between atoms: C14_29  and  N9_30
ROOT
HETATM    1  C1  UNL     1      -0.364 -85.622  91.909  1.00  0.00     0.013 C
HETATM    2  C2  UNL     1      -1.400 -86.113  92.280  1.00  0.00    -0.107 C
HETATM    3  C3  UNL     1      -2.685 -86.707  92.710  1.00  0.00     0.175 C
ENDROOT
BRANCH   3   4
HETATM    4  S1  UNL     1      -3.999 -85.858  91.821  1.00  0.00    -0.073 SA
BRANCH   4   5
HETATM    5  C4  UNL     1      -5.534 -86.785  91.936  1.00  0.00     0.204 A
HETATM    6  N1  UNL     1      -5.883 -87.806  91.130  1.00  0.00    -0.272 N
HETATM    7  N2  UNL     1      -7.071 -88.221  91.532  1.00  0.00    -0.276 N
ATOM      8  H1  UNL     1      -5.336 -88.186  90.357  1.00  0.00     0.189 HD
HETATM    9  C5  UNL     1      -7.489 -87.479  92.585  1.00  0.00     0.181 A
ATOM     10  H2  UNL     1      -7.595 -88.988  91.112  1.00  0.00     0.189 HD
HETATM   11  O2  UNL     1      -6.512 -86.628  92.777  1.00  0.00    -0.267 OA
BRANCH   9  12
HETATM   12  C6  UNL     1      -8.751 -87.660  93.280  1.00  0.00     0.092 A
HETATM   13  C7  UNL     1      -8.983 -88.375  94.432  1.00  0.00     0.097 A
HETATM   14  N11 UNL     1     -10.312 -88.282  94.712  1.00  0.00    -0.296 N
HETATM   15  N12 UNL     1     -10.922 -87.545  93.797  1.00  0.00    -0.284 N
ATOM     16  H11 UNL     1     -10.771 -88.717  95.512  1.00  0.00     0.187 HD
HETATM   17  C15 UNL     1      -9.978 -87.153  92.907  1.00  0.00     0.130 A
ATOM     18  H12 UNL     1     -11.916 -87.316  93.768  1.00  0.00     0.188 HD
HETATM   19  N13 UNL     1     -10.162 -86.418  91.864  1.00  0.00    -0.384 N
ATOM     20 2H13 UNL     1      -9.452 -86.124  91.194  1.00  0.00     0.157 HD
ATOM     21 1H13 UNL     1     -11.070 -86.043  91.587  1.00  0.00     0.157 HD
BRANCH  13  22
HETATM   22  C8  UNL     1      -7.980 -89.097  95.221  1.00  0.00     0.241 C
BRANCH  22  23
HETATM   23  N3  UNL     1      -7.779 -90.294  95.222  1.00  0.00    -0.322 NA
BRANCH  23  24
HETATM   24  N4  UNL     1      -7.439 -91.451  94.834  1.00  0.00    -0.064 N
ATOM     25  H4  UNL     1      -7.837 -92.118  95.495  1.00  0.00     0.221 HD
BRANCH  24  26
HETATM   26  C9  UNL     1      -6.818 -92.114  93.974  1.00  0.00     0.736 A
HETATM   27  N5  UNL     1      -6.769 -91.685  92.703  1.00  0.00    -0.019 N
HETATM   28  C10 UNL     1      -6.116 -92.359  91.726  1.00  0.00     0.710 A
ATOM     29  H5  UNL     1      -7.243 -90.814  92.462  1.00  0.00     0.203 HD
HETATM   30  N8  UNL     1      -5.507 -93.489  92.057  1.00  0.00    -0.021 N
HETATM   31  C14 UNL     1      -5.524 -93.966  93.319  1.00  0.00     0.705 A
ATOM     32  H8  UNL     1      -5.011 -94.013  91.337  1.00  0.00     0.203 HD
HETATM   33  N10 UNL     1      -6.192 -93.256  94.271  1.00  0.00    -0.019 N
ATOM     34  H10 UNL     1      -6.213 -93.604  95.230  1.00  0.00     0.203 HD
BRANCH  28  35
HETATM   35  N6  UNL     1      -6.129 -91.787  90.430  1.00  0.00    -0.199 N
HETATM   36  C11 UNL     1      -4.936 -91.903  89.620  1.00  0.00     0.171 C
HETATM   37  C12 UNL     1      -4.975 -90.872  88.505  1.00  0.00     0.216 C
HETATM   38  O1  UNL     1      -5.725 -89.800  88.992  1.00  0.00    -0.283 OA
HETATM   39  N7  UNL     1      -7.035 -90.171  88.910  1.00  0.00    -0.081 NA
HETATM   40  C13 UNL     1      -7.320 -91.105  89.985  1.00  0.00     0.284 C
ENDBRANCH  28  35
BRANCH  31  41
HETATM   41  N9  UNL     1      -4.919 -95.054  93.578  1.00  0.00    -0.234 N
ATOM     42  H92 UNL     1      -3.994 -95.078  94.009  1.00  0.00     0.174 HD
ATOM     43  H91 UNL     1      -5.369 -95.939  93.346  1.00  0.00     0.174 HD
ENDBRANCH  31  41
ENDBRANCH  24  26
ENDBRANCH  23  24
ENDBRANCH  22  23
ENDBRANCH  13  22
ENDBRANCH   9  12
ENDBRANCH   4   5
ENDBRANCH   3   4
TORSDOF 9
ENDMDL