MODEL 2
REMARK VINA RESULT: -9.727592785      1.037      1.296
REMARK  7 active torsions:
REMARK  status: ('A' for Active; 'I' for Inactive)
REMARK    1  A    between atoms: N1_3  and  C3_5
REMARK    2  A    between atoms: N3_9  and  N4_11
REMARK       I    between atoms: N4_11  and  C5_13
REMARK    3  A    between atoms: C5_13  and  C6_15
REMARK    4  A    between atoms: C7_24  and  N10_25
REMARK    5  A    between atoms: N10_25  and  C8_27
REMARK    6  A    between atoms: C9_30  and  N12_31
REMARK    7  A    between atoms: N12_31  and  C10_33
ROOT
HETATM    1  C3  UNL     1      -6.406 -88.232  92.502  1.00  0.00     0.711 A
HETATM    2  N2  UNL     1      -7.647 -87.752  92.380  1.00  0.00    -0.020 N
ATOM      3  H2  UNL     1      -8.418 -88.350  92.675  1.00  0.00     0.203 HD
HETATM    4  C4  UNL     1      -7.947 -86.540  91.896  1.00  0.00     0.726 A
HETATM    5  N3  UNL     1      -9.092 -86.069  91.774  1.00  0.00    -0.128 N
ATOM      6  H3  UNL     1      -9.048 -85.128  91.382  1.00  0.00     0.205 HD
HETATM    7  N9  UNL     1      -6.841 -85.794  91.521  1.00  0.00    -0.019 N
ATOM      8  H9  UNL     1      -6.987 -84.858  91.144  1.00  0.00     0.203 HD
HETATM    9  C7  UNL     1      -5.593 -86.251  91.634  1.00  0.00     0.726 A
HETATM   10  N15 UNL     1      -5.353 -87.483  92.128  1.00  0.00    -0.021 N
ATOM     11  H15 UNL     1      -4.400 -87.837  92.215  1.00  0.00     0.203 HD
ENDROOT
BRANCH   9  12
HETATM   12  N10 UNL     1      -4.459 -85.458  91.238  1.00  0.00    -0.021 N
ATOM     13  H10 UNL     1      -4.539 -84.441  91.218  1.00  0.00     0.203 HD
BRANCH  12  14
HETATM   14  C8  UNL     1      -3.326 -86.022  90.902  1.00  0.00     0.698 A
HETATM   15  N11 UNL     1      -3.258 -86.935  89.943  1.00  0.00    -0.176 N
HETATM   16  C9  UNL     1      -2.091 -87.548  89.567  1.00  0.00     0.119 A
ATOM     17  H11 UNL     1      -4.119 -87.195  89.460  1.00  0.00     0.186 HD
HETATM   18  C14 UNL     1      -0.977 -87.146  90.260  1.00  0.00     0.073 A
HETATM   19  C15 UNL     1      -1.052 -86.197  91.256  1.00  0.00     0.026 A
HETATM   20  C16 UNL     1       0.169 -85.761  92.011  1.00  0.00     0.069 C
HETATM   21  N14 UNL     1      -2.229 -85.640  91.573  1.00  0.00    -0.195 N
ATOM     22  H14 UNL     1      -2.290 -84.937  92.310  1.00  0.00     0.184 HD
BRANCH  16  23
HETATM   23  N12 UNL     1      -2.115 -88.513  88.534  1.00  0.00    -0.369 N
ATOM     24  H12 UNL     1      -2.622 -89.367  88.768  1.00  0.00     0.161 HD
BRANCH  23  25
HETATM   25  C10 UNL     1      -1.564 -88.505  87.243  1.00  0.00     0.110 C
HETATM   26  C11 UNL     1      -0.126 -88.889  87.093  1.00  0.00     0.054 C
HETATM   27  C12 UNL     1      -0.044 -89.359  85.658  1.00  0.00     0.234 C
HETATM   28  N13 UNL     1      -1.348 -89.069  85.054  1.00  0.00    -0.073 N
HETATM   29  C13 UNL     1      -2.248 -89.345  86.195  1.00  0.00     0.257 C
ATOM     30 2H13 UNL     1      -1.442 -88.145  84.632  1.00  0.00     0.277 HD
ATOM     31 1H13 UNL     1      -1.557 -89.578  84.195  1.00  0.00     0.277 HD
ENDBRANCH  23  25
ENDBRANCH  16  23
ENDBRANCH  12  14
ENDBRANCH   9  12
BRANCH   1  32
HETATM   32  N1  UNL     1      -6.118 -89.524  93.019  1.00  0.00    -0.205 N
HETATM   33  C2  UNL     1      -6.470 -90.603  92.422  1.00  0.00     0.074 C
HETATM   34  C1  UNL     1      -6.128 -91.915  93.034  1.00  0.00     0.055 C
ATOM     35  H1  UNL     1      -5.610 -89.597  93.900  1.00  0.00     0.183 HD
ENDBRANCH   1  32
BRANCH   5  36
HETATM   36  N4  UNL     1     -10.350 -86.415  91.996  1.00  0.00    -0.249 N
HETATM   37  C5  UNL     1     -11.187 -86.207  93.105  1.00  0.00     0.306 C
HETATM   38  O1  UNL     1     -10.895 -85.614  94.169  1.00  0.00    -0.262 OA
ATOM     39  H4  UNL     1     -10.789 -86.922  91.228  1.00  0.00     0.191 HD
BRANCH  37  40
HETATM   40  C6  UNL     1     -12.565 -86.729  93.046  1.00  0.00     0.202 A
HETATM   41  N5  UNL     1     -12.966 -88.014  93.062  1.00  0.00    -0.266 N
HETATM   42  N6  UNL     1     -14.287 -88.005  92.988  1.00  0.00    -0.007 NA
ATOM     43  H5  UNL     1     -12.367 -88.837  93.121  1.00  0.00     0.185 HD
HETATM   44  N7  UNL     1     -14.744 -86.765  92.925  1.00  0.00    -0.007 NA
HETATM   45  N8  UNL     1     -13.660 -85.979  92.962  1.00  0.00    -0.266 N
ATOM     46  H8  UNL     1     -13.674 -84.960  92.930  1.00  0.00     0.185 HD
ENDBRANCH  37  40
ENDBRANCH   5  36
TORSDOF 7
ENDMDL