MODEL 1
REMARK VINA RESULT: -6.944271047      0.000      0.000
REMARK  11 active torsions:
REMARK  status: ('A' for Active; 'I' for Inactive)
REMARK    1  A    between atoms: C3_4  and  S1_5
REMARK    2  A    between atoms: S1_5  and  C4_6
REMARK    3  A    between atoms: C4_6  and  C5_7
REMARK    4  A    between atoms: C6_8  and  N2_9
REMARK    5  A    between atoms: N2_9  and  O1_11
REMARK    6  A    between atoms: C7_17  and  C8_18
REMARK    7  A    between atoms: C9_21  and  O4_22
REMARK    8  A    between atoms: C11_26  and  C12_27
REMARK    9  A    between atoms: C12_27  and  O5_28
REMARK   10  A    between atoms: C12_27  and  N6_30
REMARK   11  A    between atoms: N6_30  and  N7_32
ROOT
HETATM    1  N1  UNL     1      -4.718 -86.702  90.791  1.00  0.00    -0.191 NA
HETATM    2  C1  UNL     1      -5.707 -86.790  91.372  1.00  0.00     0.103 C
HETATM    3  C2  UNL     1      -6.979 -86.935  92.049  1.00  0.00     0.091 C
HETATM    4  C3  UNL     1      -7.283 -87.853  92.898  1.00  0.00     0.051 C
HETATM    5  C9  UNL     1      -8.658 -88.008  93.379  1.00  0.00     0.200 C
HETATM    6  C10 UNL     1      -8.670 -88.728  94.662  1.00  0.00     0.105 C
HETATM    7  N5  UNL     1      -8.687 -89.277  95.653  1.00  0.00    -0.194 NA
HETATM    8  C11 UNL     1      -9.404 -86.703  93.620  1.00  0.00     0.192 C
HETATM    9  C13 UNL     1      -9.260 -85.867  92.447  1.00  0.00     0.193 C
HETATM   10  O6  UNL     1     -10.145 -85.144  91.938  1.00  0.00    -0.290 OA
HETATM   11  C14 UNL     1      -7.972 -85.859  91.761  1.00  0.00     0.095 C
HETATM   12  N8  UNL     1      -7.697 -84.905  90.883  1.00  0.00    -0.395 N
ATOM     13  H81 UNL     1      -8.376 -84.169  90.687  1.00  0.00     0.156 HD
ATOM     14  H82 UNL     1      -6.797 -84.899  90.404  1.00  0.00     0.156 HD
ENDROOT
BRANCH   4  15
HETATM   15  S1  UNL     1      -6.130 -89.126  93.411  1.00  0.00    -0.124 SA
BRANCH  15  16
HETATM   16  C4  UNL     1      -6.060 -90.454  92.218  1.00  0.00     0.124 C
BRANCH  16  17
HETATM   17  C5  UNL     1      -7.215 -91.380  92.102  1.00  0.00     0.034 A
HETATM   18  C6  UNL     1      -7.592 -92.113  93.245  1.00  0.00     0.149 A
HETATM   19  N3  UNL     1      -8.763 -92.666  92.948  1.00  0.00    -0.283 N
HETATM   20  N4  UNL     1      -9.174 -92.381  91.768  1.00  0.00    -0.292 N
ATOM     21  H3  UNL     1      -9.283 -93.259  93.594  1.00  0.00     0.188 HD
HETATM   22  C7  UNL     1      -8.212 -91.558  91.188  1.00  0.00     0.136 A
ATOM     23  H4  UNL     1     -10.043 -92.697  91.336  1.00  0.00     0.187 HD
BRANCH  18  24
HETATM   24  N2  UNL     1      -6.861 -92.272  94.422  1.00  0.00    -0.251 N
ATOM     25  H2  UNL     1      -6.079 -92.922  94.348  1.00  0.00     0.196 HD
BRANCH  24  26
HETATM   26  O1  UNL     1      -6.994 -91.774  95.513  1.00  0.00    -0.288 OA
ATOM     27  H1  UNL     1      -7.084 -92.167  96.373  1.00  0.00     0.244 HD
ENDBRANCH  24  26
ENDBRANCH  18  24
BRANCH  22  28
HETATM   28  C8  UNL     1      -8.400 -90.954  89.901  1.00  0.00     0.229 C
HETATM   29  O2  UNL     1      -8.606 -91.582  88.812  1.00  0.00    -0.643 OA
HETATM   30  O3  UNL     1      -8.341 -89.544  89.818  1.00  0.00    -0.643 OA
ENDBRANCH  22  28
ENDBRANCH  16  17
ENDBRANCH  15  16
ENDBRANCH   4  15
BRANCH   5  31
HETATM   31  O4  UNL     1      -9.417 -88.780  92.485  1.00  0.00    -0.370 OA
ATOM     32  H4  UNL     1     -10.197 -88.312  92.211  1.00  0.00     0.212 HD
ENDBRANCH   5  31
BRANCH   8  33
HETATM   33  C12 UNL     1     -10.741 -87.160  93.966  1.00  0.00     0.146 C
BRANCH  33  34
HETATM   34  O5  UNL     1     -11.024 -87.359  95.241  1.00  0.00    -0.348 OA
ATOM     35  H5  UNL     1     -10.448 -87.919  95.748  1.00  0.00     0.219 HD
ENDBRANCH  33  34
BRANCH  33  36
HETATM   36  N6  UNL     1     -11.790 -87.380  93.116  1.00  0.00    -0.289 N
ATOM     37  H6  UNL     1     -12.117 -86.608  92.535  1.00  0.00     0.188 HD
BRANCH  36  38
HETATM   38  N7  UNL     1     -12.439 -88.628  93.006  1.00  0.00    -0.343 N
ATOM     39  H72 UNL     1     -11.925 -89.455  93.311  1.00  0.00     0.176 HD
ATOM     40  H71 UNL     1     -13.385 -88.730  92.638  1.00  0.00     0.176 HD
ENDBRANCH  36  38
ENDBRANCH  33  36
ENDBRANCH   8  33
TORSDOF 11
ENDMDL