MODEL 3
REMARK VINA RESULT: -8.440682037      2.450      7.647
REMARK  9 active torsions:
REMARK  status: ('A' for Active; 'I' for Inactive)
REMARK    1  A    between atoms: N1_1  and  C1_4
REMARK    2  A    between atoms: C2_7  and  N3_8
REMARK    3  A    between atoms: N5_15  and  O3_16
REMARK    4  A    between atoms: C7_23  and  C8_24
REMARK    5  A    between atoms: C8_24  and  O5_25
REMARK    6  A    between atoms: C8_24  and  C9_27
REMARK    7  A    between atoms: C9_27  and  C10_28
REMARK    8  A    between atoms: C10_28  and  N7_29
REMARK    9  A    between atoms: N7_29  and  C11_31
ROOT
HETATM    1  C1  UNL     1      -7.626 -86.330  91.916  1.00  0.00     0.144 A
HETATM    2  N2  UNL     1      -7.638 -87.647  92.107  1.00  0.00    -0.173 N
ATOM      3  H2  UNL     1      -8.537 -88.126  92.062  1.00  0.00     0.186 HD
HETATM    4  C2  UNL     1      -6.547 -88.383  92.353  1.00  0.00     0.710 A
HETATM    5  N6  UNL     1      -5.344 -87.804  92.422  1.00  0.00    -0.186 N
ATOM      6  H6  UNL     1      -4.508 -88.357  92.609  1.00  0.00     0.184 HD
HETATM    7  C6  UNL     1      -5.263 -86.462  92.236  1.00  0.00     0.093 A
HETATM    8  C7  UNL     1      -4.131 -85.610  92.256  1.00  0.00     0.038 A
HETATM    9  C16 UNL     1      -4.651 -84.363  92.008  1.00  0.00     0.104 A
HETATM   10  N9  UNL     1      -6.007 -84.427  91.845  1.00  0.00    -0.360 N
ATOM     11  H9  UNL     1      -6.628 -83.641  91.651  1.00  0.00     0.165 HD
HETATM   12  C17 UNL     1      -6.371 -85.700  91.984  1.00  0.00     0.105 A
ENDROOT
BRANCH   8  13
HETATM   13  C8  UNL     1      -2.768 -86.061  92.497  1.00  0.00     0.058 C
BRANCH  13  14
HETATM   14  O5  UNL     1      -2.666 -87.091  93.301  1.00  0.00    -0.364 OA
ATOM     15  H5  UNL     1      -2.232 -86.909  94.126  1.00  0.00     0.217 HD
ENDBRANCH  13  14
BRANCH  13  16
HETATM   16  C9  UNL     1      -1.505 -85.574  92.005  1.00  0.00     0.084 C
BRANCH  16  17
HETATM   17  C10 UNL     1      -0.397 -86.528  91.766  1.00  0.00     0.126 C
BRANCH  17  18
HETATM   18  N7  UNL     1       0.326 -86.240  90.534  1.00  0.00    -0.389 N
ATOM     19  H7  UNL     1       1.096 -85.571  90.548  1.00  0.00     0.159 HD
BRANCH  18  20
HETATM   20  C11 UNL     1      -0.024 -86.874  89.324  1.00  0.00     0.030 A
HETATM   21  C12 UNL     1       0.780 -87.922  88.885  1.00  0.00     0.046 A
HETATM   22  C13 UNL     1       0.518 -88.612  87.728  1.00  0.00     0.089 A
HETATM   23  N8  UNL     1      -0.557 -88.250  87.010  1.00  0.00    -0.375 N
HETATM   24  C14 UNL     1      -1.372 -87.251  87.378  1.00  0.00     0.089 A
ATOM     25  H8  UNL     1      -0.762 -88.756  86.148  1.00  0.00     0.164 HD
HETATM   26  C15 UNL     1      -1.104 -86.560  88.541  1.00  0.00     0.046 A
ENDBRANCH  18  20
ENDBRANCH  17  18
ENDBRANCH  16  17
ENDBRANCH  13  16
ENDBRANCH   8  13
BRANCH   4  27
HETATM   27  N3  UNL     1      -6.713 -89.806  92.540  1.00  0.00    -0.026 N
HETATM   28  N4  UNL     1      -6.563 -90.646  91.529  1.00  0.00    -0.236 N
HETATM   29  C3  UNL     1      -6.715 -91.988  91.684  1.00  0.00     0.331 A
ATOM     30  H4  UNL     1      -6.328 -90.276  90.608  1.00  0.00     0.191 HD
HETATM   31  O1  UNL     1      -6.579 -92.802  90.747  1.00  0.00    -0.260 OA
HETATM   32  C4  UNL     1      -7.035 -92.486  92.929  1.00  0.00     0.345 A
HETATM   33  O2  UNL     1      -7.192 -93.721  93.151  1.00  0.00    -0.259 OA
HETATM   34  N5  UNL     1      -7.186 -91.633  93.957  1.00  0.00    -0.127 N
HETATM   35  C5  UNL     1      -7.024 -90.317  93.746  1.00  0.00     0.390 A
HETATM   36  O4  UNL     1      -7.155 -89.457  94.683  1.00  0.00    -0.241 OA
BRANCH  34  37
HETATM   37  O3  UNL     1      -7.503 -92.042  95.227  1.00  0.00    -0.276 OA
ATOM     38  H3  UNL     1      -8.319 -91.814  95.656  1.00  0.00     0.245 HD
ENDBRANCH  34  37
ENDBRANCH   4  27
BRANCH   1  39
HETATM   39  N1  UNL     1      -8.657 -85.618  91.680  1.00  0.00    -0.383 N
ATOM     40  H12 UNL     1      -9.320 -85.935  90.973  1.00  0.00     0.157 HD
ATOM     41  H11 UNL     1      -8.878 -84.740  92.149  1.00  0.00     0.157 HD
ENDBRANCH   1  39
TORSDOF 9
ENDMDL