MODEL 4
REMARK VINA RESULT: -9.023779375      3.440      4.865
REMARK  7 active torsions:
REMARK  status: ('A' for Active; 'I' for Inactive)
REMARK    1  A    between atoms: N1_1  and  C1_4
REMARK    2  A    between atoms: C2_7  and  N3_8
REMARK    3  A    between atoms: N4_11  and  C5_12
REMARK    4  A    between atoms: C8_15  and  C9_16
REMARK    5  A    between atoms: N6_18  and  O1_20
REMARK    6  A    between atoms: C13_28  and  N9_29
REMARK    7  A    between atoms: C15_33  and  C16_34
ROOT
HETATM    1  C1  UNL     1     -10.958 -88.400  92.330  1.00  0.00     0.705 A
HETATM    2  N2  UNL     1      -9.937 -87.651  92.770  1.00  0.00    -0.021 N
ATOM      3  H2  UNL     1     -10.028 -87.165  93.661  1.00  0.00     0.203 HD
HETATM    4  C2  UNL     1      -8.779 -87.521  92.058  1.00  0.00     0.710 A
HETATM    5  N8  UNL     1      -8.720 -88.179  90.907  1.00  0.00    -0.018 N
ATOM      6  H8  UNL     1      -7.864 -88.098  90.358  1.00  0.00     0.203 HD
HETATM    7  C13 UNL     1      -9.720 -88.952  90.411  1.00  0.00     0.748 A
HETATM    8  N13 UNL     1     -10.835 -89.042  91.155  1.00  0.00    -0.018 N
ATOM      9  H13 UNL     1     -11.609 -89.613  90.819  1.00  0.00     0.203 HD
ENDROOT
BRANCH   4  10
HETATM   10  N3  UNL     1      -7.776 -86.710  92.619  1.00  0.00    -0.200 N
HETATM   11  C3  UNL     1      -7.632 -85.304  92.331  1.00  0.00     0.164 C
HETATM   12  C4  UNL     1      -6.259 -85.031  91.750  1.00  0.00     0.165 C
HETATM   13  N4  UNL     1      -5.283 -85.915  92.380  1.00  0.00    -0.293 N
HETATM   14  N7  UNL     1      -5.619 -86.426  93.611  1.00  0.00    -0.118 NA
HETATM   15  C12 UNL     1      -6.787 -87.263  93.555  1.00  0.00     0.277 C
BRANCH  13  16
HETATM   16  C5  UNL     1      -4.067 -86.164  91.672  1.00  0.00     0.047 A
HETATM   17  C6  UNL     1      -2.839 -85.720  92.109  1.00  0.00     0.031 A
HETATM   18  C7  UNL     1      -1.671 -85.955  91.422  1.00  0.00     0.017 A
HETATM   19  C8  UNL     1      -1.659 -86.674  90.214  1.00  0.00     0.007 A
HETATM   20  C10 UNL     1      -2.878 -87.114  89.784  1.00  0.00     0.017 A
HETATM   21  C11 UNL     1      -4.066 -86.869  90.491  1.00  0.00     0.031 A
BRANCH  19  22
HETATM   22  C9  UNL     1      -0.389 -86.892  89.532  1.00  0.00     0.146 C
HETATM   23  N5  UNL     1       0.729 -87.417  90.323  1.00  0.00    -0.080 NA
HETATM   24  N6  UNL     1      -0.164 -86.673  88.338  1.00  0.00    -0.255 N
ATOM     25  H6  UNL     1       0.792 -86.892  88.060  1.00  0.00     0.195 HD
BRANCH  24  26
HETATM   26  O1  UNL     1      -0.905 -86.212  87.344  1.00  0.00    -0.288 OA
ATOM     27  H1  UNL     1      -1.764 -86.442  87.009  1.00  0.00     0.244 HD
ENDBRANCH  24  26
ENDBRANCH  19  22
ENDBRANCH  13  16
ENDBRANCH   4  10
BRANCH   1  28
HETATM   28  N1  UNL     1     -12.044 -88.493  93.044  1.00  0.00    -0.234 N
ATOM     29  H12 UNL     1     -12.053 -88.244  94.034  1.00  0.00     0.174 HD
ATOM     30  H11 UNL     1     -12.907 -88.820  92.611  1.00  0.00     0.174 HD
ENDBRANCH   1  28
BRANCH   7  31
HETATM   31  N9  UNL     1      -9.539 -89.608  89.164  1.00  0.00    -0.019 N
HETATM   32  N10 UNL     1     -10.475 -90.254  88.492  1.00  0.00    -0.274 N
HETATM   33  C14 UNL     1      -9.982 -90.762  87.353  1.00  0.00     0.146 A
ATOM     34  H10 UNL     1     -11.443 -90.352  88.798  1.00  0.00     0.188 HD
HETATM   35  C15 UNL     1      -8.651 -90.410  87.313  1.00  0.00     0.132 A
HETATM   36  N12 UNL     1      -8.432 -89.704  88.448  1.00  0.00    -0.258 N
ATOM     37  H12 UNL     1      -7.534 -89.301  88.714  1.00  0.00     0.190 HD
BRANCH  35  38
HETATM   38  C16 UNL     1      -7.673 -90.729  86.265  1.00  0.00     0.284 C
HETATM   39  N11 UNL     1      -7.433 -89.804  85.241  1.00  0.00    -0.056 NA
HETATM   40  O2  UNL     1      -7.083 -91.828  86.324  1.00  0.00    -0.269 OA
ENDBRANCH  35  38
ENDBRANCH   7  31
TORSDOF 7
ENDMDL