MODEL 3
REMARK VINA RESULT: -8.316580185      0.645      1.212
REMARK  7 active torsions:
REMARK  status: ('A' for Active; 'I' for Inactive)
REMARK    1  A    between atoms: C4_6  and  C5_7
REMARK    2  A    between atoms: C5_7  and  O2_8
REMARK    3  A    between atoms: C6_10  and  C7_11
REMARK    4  A    between atoms: C6_10  and  O3_23
REMARK    5  A    between atoms: C7_11  and  S1_12
REMARK    6  A    between atoms: S1_12  and  C8_13
REMARK    7  A    between atoms: O3_23  and  N5_24
ROOT
HETATM    1  C5  UNL     1      -4.987 -85.570  92.240  1.00  0.00     0.125 C
HETATM    2  C6  UNL     1      -5.879 -86.268  92.874  1.00  0.00     0.121 C
ENDROOT
BRANCH   2   3
HETATM    3  C7  UNL     1      -5.759 -87.669  93.278  1.00  0.00     0.150 C
BRANCH   3   4
HETATM    4  S1  UNL     1      -6.722 -88.819  92.260  1.00  0.00    -0.112 SA
BRANCH   4   5
HETATM    5  C8  UNL     1      -6.903 -90.359  93.158  1.00  0.00     0.086 A
HETATM    6  S2  UNL     1      -6.547 -91.968  92.655  1.00  0.00    -0.044 SA
HETATM    7  C9  UNL     1      -6.997 -92.780  94.079  1.00  0.00     0.144 A
HETATM    8  N2  UNL     1      -6.963 -94.064  94.351  1.00  0.00    -0.380 N
HETATM    9  N3  UNL     1      -7.401 -91.794  94.885  1.00  0.00    -0.324 N
ATOM     10  H22 UNL     1      -6.655 -94.816  93.737  1.00  0.00     0.158 HD
ATOM     11  H21 UNL     1      -7.233 -94.551  95.205  1.00  0.00     0.158 HD
HETATM   12  C10 UNL     1      -7.358 -90.569  94.431  1.00  0.00     0.142 A
ATOM     13  H3  UNL     1      -7.735 -91.992  95.828  1.00  0.00     0.169 HD
HETATM   14  N4  UNL     1      -7.774 -89.421  95.230  1.00  0.00    -0.081 NA
ENDBRANCH   4   5
ENDBRANCH   3   4
ENDBRANCH   2   3
BRANCH   2  15
HETATM   15  O3  UNL     1      -7.086 -85.648  93.231  1.00  0.00    -0.234 OA
BRANCH  15  16
HETATM   16  N5  UNL     1      -8.246 -85.862  92.554  1.00  0.00    -0.223 N
HETATM   17  C11 UNL     1      -8.433 -85.693  91.117  1.00  0.00     0.179 C
HETATM   18  C12 UNL     1      -9.931 -85.366  91.099  1.00  0.00     0.144 C
HETATM   19  N6  UNL     1     -10.441 -86.001  92.285  1.00  0.00    -0.361 N
HETATM   20  C13 UNL     1      -9.476 -86.278  93.102  1.00  0.00     0.210 C
ATOM     21  H6  UNL     1     -11.425 -86.206  92.458  1.00  0.00     0.162 HD
HETATM   22  N7  UNL     1      -9.693 -86.927  94.384  1.00  0.00    -0.062 NA
ENDBRANCH  15  16
ENDBRANCH   2  15
BRANCH   1  23
HETATM   23  C4  UNL     1      -3.701 -86.093  91.831  1.00  0.00     0.077 A
HETATM   24  C3  UNL     1      -3.549 -86.392  90.475  1.00  0.00     0.107 A
HETATM   25  C2  UNL     1      -2.337 -86.853  90.030  1.00  0.00     0.253 A
HETATM   26  N1  UNL     1      -1.314 -87.014  90.884  1.00  0.00    -0.271 N
HETATM   27  O1  UNL     1      -2.233 -87.115  88.800  1.00  0.00    -0.268 OA
HETATM   28  C1  UNL     1      -0.029 -87.506  90.404  1.00  0.00     0.164 C
HETATM   29  C14 UNL     1      -1.438 -86.730  92.193  1.00  0.00     0.329 A
HETATM   30  N8  UNL     1      -2.648 -86.276  92.611  1.00  0.00    -0.306 N
HETATM   31  O4  UNL     1      -0.471 -86.884  92.986  1.00  0.00    -0.246 OA
ATOM     32  H8  UNL     1      -2.754 -86.060  93.603  1.00  0.00     0.171 HD
ENDBRANCH   1  23
BRANCH   1  33
HETATM   33  O2  UNL     1      -5.319 -84.220  91.944  1.00  0.00    -0.356 OA
ATOM     34  H2  UNL     1      -5.028 -83.528  92.526  1.00  0.00     0.218 HD
ENDBRANCH   1  33
TORSDOF 7
ENDMDL