MODEL 3
REMARK VINA RESULT: -8.250696712      1.135      1.183
REMARK  9 active torsions:
REMARK  status: ('A' for Active; 'I' for Inactive)
REMARK    1  A    between atoms: N1_2  and  C2_4
REMARK    2  A    between atoms: C3_7  and  N3_8
REMARK    3  A    between atoms: N3_8  and  C4_10
REMARK    4  A    between atoms: C5_13  and  N5_14
REMARK    5  A    between atoms: C6_17  and  C7_18
REMARK    6  A    between atoms: C7_18  and  C8_19
REMARK    7  A    between atoms: C7_18  and  C10_23
REMARK    8  A    between atoms: C8_19  and  S1_20
REMARK       I    between atoms: C10_23  and  N7_25
REMARK    9  A    between atoms: C14_36  and  N11_37
ROOT
HETATM    1  S1  UNL     1     -10.138 -87.798  92.427  1.00  0.00    -0.046 SA
HETATM    2  C9  UNL     1      -9.993 -89.110  91.234  1.00  0.00     0.133 C
HETATM    3  N6  UNL     1      -9.865 -89.936  90.460  1.00  0.00    -0.184 NA
ENDROOT
BRANCH   1   4
HETATM    4  C8  UNL     1      -9.057 -88.209  93.790  1.00  0.00     0.135 C
BRANCH   4   5
HETATM    5  C7  UNL     1      -7.886 -89.146  93.349  1.00  0.00     0.038 C
BRANCH   5   6
HETATM    6  C6  UNL     1      -6.842 -88.240  92.808  1.00  0.00     0.027 A
HETATM    7  C5  UNL     1      -6.292 -88.368  91.534  1.00  0.00     0.112 A
HETATM    8  N4  UNL     1      -5.387 -87.554  90.989  1.00  0.00    -0.322 N
HETATM    9  C4  UNL     1      -4.786 -86.462  91.477  1.00  0.00     0.165 A
ATOM     10  H4  UNL     1      -5.105 -87.807  90.042  1.00  0.00     0.169 HD
HETATM   11  S2  UNL     1      -5.325 -86.091  93.072  1.00  0.00    -0.064 SA
HETATM   12  C13 UNL     1      -6.468 -87.182  93.650  1.00  0.00     0.069 A
BRANCH   7  13
HETATM   13  N5  UNL     1      -6.597 -89.420  90.870  1.00  0.00    -0.385 N
ATOM     14  H52 UNL     1      -5.984 -89.675  90.096  1.00  0.00     0.157 HD
ATOM     15  H51 UNL     1      -7.478 -89.874  91.108  1.00  0.00     0.157 HD
ENDBRANCH   7  13
BRANCH   9  16
HETATM   16  N3  UNL     1      -3.912 -85.863  90.812  1.00  0.00    -0.169 N
ATOM     17  H3  UNL     1      -4.276 -84.976  90.465  1.00  0.00     0.186 HD
BRANCH  16  18
HETATM   18  C3  UNL     1      -2.637 -86.035  90.415  1.00  0.00     0.713 A
HETATM   19  N2  UNL     1      -1.642 -86.236  91.306  1.00  0.00    -0.021 N
HETATM   20  C2  UNL     1      -0.386 -86.466  90.971  1.00  0.00     0.706 A
ATOM     21  H2  UNL     1      -1.875 -86.210  92.298  1.00  0.00     0.203 HD
HETATM   22  N12 UNL     1      -0.110 -86.493  89.637  1.00  0.00    -0.022 N
HETATM   23  C14 UNL     1      -1.048 -86.302  88.704  1.00  0.00     0.705 A
ATOM     24  H12 UNL     1       0.849 -86.666  89.339  1.00  0.00     0.203 HD
HETATM   25  N10 UNL     1      -2.294 -86.077  89.114  1.00  0.00    -0.021 N
ATOM     26  H10 UNL     1      -3.020 -85.932  88.413  1.00  0.00     0.203 HD
BRANCH  20  27
HETATM   27  N1  UNL     1       0.604 -86.680  91.775  1.00  0.00    -0.229 N
HETATM   28  C1  UNL     1       0.732 -86.051  93.058  1.00  0.00     0.165 C
ATOM     29  H1  UNL     1       1.333 -87.330  91.481  1.00  0.00     0.177 HD
ENDBRANCH  20  27
BRANCH  23  30
HETATM   30  N11 UNL     1      -0.800 -86.304  87.429  1.00  0.00    -0.234 N
ATOM     31 2H11 UNL     1      -1.503 -86.509  86.720  1.00  0.00     0.174 HD
ATOM     32 1H11 UNL     1       0.150 -86.107  87.113  1.00  0.00     0.174 HD
ENDBRANCH  23  30
ENDBRANCH  16  18
ENDBRANCH   9  16
ENDBRANCH   5   6
BRANCH   5  33
HETATM   33  C10 UNL     1      -7.688 -90.291  94.169  1.00  0.00     0.289 C
HETATM   34  O1  UNL     1      -7.253 -90.305  95.367  1.00  0.00    -0.264 OA
HETATM   35  N7  UNL     1      -7.979 -91.631  93.710  1.00  0.00    -0.157 N
HETATM   36  N8  UNL     1      -8.453 -91.975  92.543  1.00  0.00    -0.286 N
HETATM   37  N9  UNL     1      -7.768 -92.755  94.405  1.00  0.00    -0.286 N
HETATM   38  C11 UNL     1      -8.556 -93.303  92.449  1.00  0.00     0.128 A
ATOM     39  H8  UNL     1      -8.709 -91.319  91.805  1.00  0.00     0.188 HD
HETATM   40  C12 UNL     1      -8.114 -93.797  93.654  1.00  0.00     0.128 A
ATOM     41  H9  UNL     1      -7.402 -92.804  95.355  1.00  0.00     0.188 HD
ENDBRANCH   5  33
ENDBRANCH   4   5
ENDBRANCH   1   4
TORSDOF 9
ENDMDL