MODEL 4
REMARK VINA RESULT: -8.341693640      0.643      1.414
REMARK  8 active torsions:
REMARK  status: ('A' for Active; 'I' for Inactive)
REMARK    1  A    between atoms: N1_1  and  C1_4
REMARK    2  A    between atoms: C2_9  and  C3_10
REMARK       I    between atoms: C3_10  and  N4_12
REMARK    3  A    between atoms: N4_12  and  N5_14
REMARK    4  A    between atoms: C4_16  and  C5_17
REMARK    5  A    between atoms: C5_17  and  C6_19
REMARK       I    between atoms: C6_19  and  N6_21
REMARK    6  A    between atoms: N6_21  and  C7_23
REMARK    7  A    between atoms: C11_27  and  N7_28
REMARK    8  A    between atoms: C12_31  and  N8_32
ROOT
HETATM    1  N5  UNL     1      -8.286 -85.797  92.492  1.00  0.00    -0.305 N
ATOM      2  H5  UNL     1      -8.249 -85.022  93.154  1.00  0.00     0.186 HD
HETATM    3  C4  UNL     1      -7.177 -86.147  91.968  1.00  0.00     0.167 C
ENDROOT
BRANCH   1   4
HETATM    4  N4  UNL     1      -9.532 -86.351  92.262  1.00  0.00    -0.265 N
HETATM    5  C3  UNL     1     -10.206 -87.008  93.310  1.00  0.00     0.291 C
HETATM    6  O1  UNL     1      -9.697 -87.098  94.450  1.00  0.00    -0.264 OA
ATOM      7  H4  UNL     1      -9.961 -86.284  91.339  1.00  0.00     0.190 HD
BRANCH   5   8
HETATM    8  C2  UNL     1     -11.524 -87.592  93.056  1.00  0.00     0.160 A
HETATM    9  N3  UNL     1     -11.654 -88.920  92.808  1.00  0.00    -0.278 N
HETATM   10  N2  UNL     1     -12.833 -89.468  92.580  1.00  0.00    -0.132 N
ATOM     11  H3  UNL     1     -10.821 -89.509  92.799  1.00  0.00     0.188 HD
HETATM   12  C1  UNL     1     -13.962 -88.719  92.585  1.00  0.00     0.691 A
ATOM     13  H2  UNL     1     -12.895 -90.469  92.398  1.00  0.00     0.205 HD
HETATM   14  N10 UNL     1     -13.904 -87.397  92.823  1.00  0.00    -0.175 N
HETATM   15  C13 UNL     1     -12.687 -86.849  93.057  1.00  0.00     0.165 A
ATOM     16  H10 UNL     1     -14.749 -86.826  92.828  1.00  0.00     0.185 HD
HETATM   17  N9  UNL     1     -12.579 -85.458  93.310  1.00  0.00    -0.079 NA
BRANCH  12  18
HETATM   18  N1  UNL     1     -15.117 -89.287  92.357  1.00  0.00    -0.233 N
ATOM     19  H12 UNL     1     -15.654 -89.671  93.135  1.00  0.00     0.174 HD
ATOM     20  H11 UNL     1     -15.475 -89.342  91.404  1.00  0.00     0.174 HD
ENDBRANCH  12  18
ENDBRANCH   5   8
ENDBRANCH   1   4
BRANCH   3  21
HETATM   21  C5  UNL     1      -5.959 -85.464  92.315  1.00  0.00     0.256 C
HETATM   22  O2  UNL     1      -5.990 -84.225  92.562  1.00  0.00    -0.281 OA
BRANCH  21  23
HETATM   23  C6  UNL     1      -4.710 -86.205  92.377  1.00  0.00     0.297 C
HETATM   24  O3  UNL     1      -4.753 -87.394  92.718  1.00  0.00    -0.264 OA
HETATM   25  N6  UNL     1      -3.510 -85.562  92.053  1.00  0.00    -0.318 N
ATOM     26  H6  UNL     1      -3.598 -84.581  91.785  1.00  0.00     0.169 HD
BRANCH  25  27
HETATM   27  C7  UNL     1      -2.208 -86.070  92.044  1.00  0.00     0.070 A
HETATM   28  C8  UNL     1      -1.453 -86.290  93.154  1.00  0.00     0.032 A
HETATM   29  C9  UNL     1      -0.150 -86.801  93.038  1.00  0.00     0.005 A
HETATM   30  C10 UNL     1       0.418 -87.098  91.832  1.00  0.00     0.039 A
HETATM   31  C11 UNL     1      -0.372 -86.865  90.698  1.00  0.00     0.138 A
HETATM   32  C12 UNL     1      -1.644 -86.368  90.795  1.00  0.00     0.162 A
BRANCH  31  33
HETATM   33  N7  UNL     1       0.212 -87.173  89.425  1.00  0.00    -0.113 N
HETATM   34  O4  UNL     1       1.052 -86.380  88.907  1.00  0.00    -0.532 OA
HETATM   35  O5  UNL     1      -0.169 -88.335  88.811  1.00  0.00    -0.532 OA
ENDBRANCH  31  33
BRANCH  32  36
HETATM   36  N8  UNL     1      -2.384 -86.178  89.599  1.00  0.00    -0.111 N
HETATM   37  O6  UNL     1      -2.259 -85.184  88.864  1.00  0.00    -0.532 OA
HETATM   38  O7  UNL     1      -3.291 -87.148  89.244  1.00  0.00    -0.532 OA
ENDBRANCH  32  36
ENDBRANCH  25  27
ENDBRANCH  21  23
ENDBRANCH   3  21
TORSDOF 8
ENDMDL