MODEL 1
REMARK VINA RESULT: -7.948568370      0.000      0.000
REMARK  5 active torsions:
REMARK  status: ('A' for Active; 'I' for Inactive)
REMARK    1  A    between atoms: N1_1  and  N2_4
REMARK       I    between atoms: N2_4  and  C1_6
REMARK    2  A    between atoms: C1_6  and  C2_8
REMARK    3  A    between atoms: C3_11  and  N4_12
REMARK       I    between atoms: N4_12  and  C4_14
REMARK       I    between atoms: C4_14  and  N5_15
REMARK       I    between atoms: C4_14  and  N6_19
REMARK    4  A    between atoms: C6_27  and  N8_28
REMARK    5  A    between atoms: N9_30  and  N10_32
ROOT
HETATM    1  C2  UNL     1     -40.861  -6.434  23.490  1.00  0.00     0.152 A
HETATM    2  N3  UNL     1     -41.491  -7.301  22.679  1.00  0.00    -0.184 N
ATOM      3  H3  UNL     1     -41.384  -7.178  21.671  1.00  0.00     0.184 HD
HETATM    4  C3  UNL     1     -42.246  -8.311  23.109  1.00  0.00     0.684 A
HETATM    5  N7  UNL     1     -42.401  -8.491  24.427  1.00  0.00    -0.154 N
ATOM      6  H7  UNL     1     -42.978  -9.263  24.761  1.00  0.00     0.187 HD
HETATM    7  C5  UNL     1     -41.804  -7.664  25.332  1.00  0.00     0.290 A
HETATM    8  O2  UNL     1     -41.981  -7.875  26.564  1.00  0.00    -0.265 OA
HETATM    9  C6  UNL     1     -41.036  -6.639  24.846  1.00  0.00     0.151 A
ENDROOT
BRANCH   4  10
HETATM   10  N4  UNL     1     -42.830  -9.119  22.303  1.00  0.00    -0.173 N
HETATM   11  C4  UNL     1     -44.227  -9.172  22.044  1.00  0.00     0.494 C
HETATM   12  N5  UNL     1     -44.541 -10.435  21.403  1.00  0.00    -0.032 N
HETATM   13  N6  UNL     1     -44.739  -8.077  21.264  1.00  0.00    -0.032 N
ATOM     14  H53 UNL     1     -43.985 -10.593  20.564  1.00  0.00     0.278 HD
ATOM     15  H52 UNL     1     -44.216 -11.237  21.944  1.00  0.00     0.278 HD
ATOM     16  H51 UNL     1     -45.543 -10.473  21.218  1.00  0.00     0.278 HD
ATOM     17  H63 UNL     1     -44.495  -7.189  21.700  1.00  0.00     0.278 HD
ATOM     18  H62 UNL     1     -44.221  -7.994  20.389  1.00  0.00     0.278 HD
ATOM     19  H61 UNL     1     -45.741  -8.115  21.078  1.00  0.00     0.278 HD
ATOM     20  H4  UNL     1     -42.240  -9.783  21.802  1.00  0.00     0.181 HD
ENDBRANCH   4  10
BRANCH   1  21
HETATM   21  C1  UNL     1     -40.035  -5.329  23.010  1.00  0.00     0.289 C
HETATM   22  N2  UNL     1     -40.415  -4.521  21.908  1.00  0.00    -0.271 N
ATOM     23  H2  UNL     1     -41.293  -4.707  21.423  1.00  0.00     0.189 HD
HETATM   24  O1  UNL     1     -38.946  -5.102  23.612  1.00  0.00    -0.264 OA
BRANCH  22  25
HETATM   25  N1  UNL     1     -39.605  -3.486  21.485  1.00  0.00    -0.342 N
ATOM     26  H12 UNL     1     -39.709  -2.571  21.923  1.00  0.00     0.176 HD
ATOM     27  H11 UNL     1     -38.915  -3.636  20.748  1.00  0.00     0.176 HD
ENDBRANCH  22  25
ENDBRANCH   1  21
BRANCH   9  28
HETATM   28  N8  UNL     1     -40.390  -5.747  25.780  1.00  0.00    -0.279 N
HETATM   29  N9  UNL     1     -39.439  -6.251  26.452  1.00  0.00    -0.243 N
ATOM     30  H9  UNL     1     -39.170  -7.226  26.322  1.00  0.00     0.208 HD
ATOM     31  H8  UNL     1     -40.679  -4.775  25.892  1.00  0.00     0.189 HD
BRANCH  29  32
HETATM   32  N10 UNL     1     -38.771  -5.446  27.373  1.00  0.00    -0.286 N
HETATM   33  C7  UNL     1     -37.528  -5.811  28.026  1.00  0.00     0.173 C
HETATM   34  C8  UNL     1     -37.114  -4.502  28.666  1.00  0.00     0.255 C
HETATM   35  N11 UNL     1     -38.398  -3.962  29.090  1.00  0.00    -0.056 N
HETATM   36  C9  UNL     1     -39.172  -4.118  27.848  1.00  0.00     0.375 C
ATOM     37 2H11 UNL     1     -38.805  -4.390  29.922  1.00  0.00     0.279 HD
ATOM     38 1H11 UNL     1     -38.375  -3.021  29.482  1.00  0.00     0.279 HD
ENDBRANCH  29  32
ENDBRANCH   9  28
TORSDOF 5
ENDMDL