MODEL 1
REMARK VINA RESULT: -9.394605628      0.000      0.000
REMARK  8 active torsions:
REMARK  status: ('A' for Active; 'I' for Inactive)
REMARK    1  A    between atoms: N2_4  and  O1_5
REMARK    2  A    between atoms: N2_4  and  C1_7
REMARK    3  A    between atoms: C2_8  and  C3_9
REMARK    4  A    between atoms: C3_9  and  N3_10
REMARK    5  A    between atoms: N3_10  and  C4_13
REMARK    6  A    between atoms: C7_21  and  N7_22
REMARK    7  A    between atoms: C8_27  and  N9_28
REMARK    8  A    between atoms: N9_28  and  N10_30
ROOT
HETATM    1  C1  UNL     1     -40.943  -7.055  25.121  1.00  0.00     0.160 C
HETATM    2  C2  UNL     1     -41.305  -7.534  23.866  1.00  0.00     0.048 C
HETATM    3  C7  UNL     1     -40.796  -7.093  22.639  1.00  0.00     0.125 C
HETATM    4  N8  UNL     1     -40.403  -5.830  22.345  1.00  0.00    -0.175 N
ATOM      5  H8  UNL     1     -40.464  -5.549  21.367  1.00  0.00     0.186 HD
HETATM    6  C8  UNL     1     -39.936  -4.903  23.215  1.00  0.00     0.700 C
HETATM    7  N11 UNL     1     -39.915  -4.921  24.564  1.00  0.00    -0.153 N
ATOM      8  H11 UNL     1     -39.569  -4.064  24.998  1.00  0.00     0.187 HD
HETATM    9  C9  UNL     1     -40.276  -5.888  25.428  1.00  0.00     0.291 C
HETATM   10  O2  UNL     1     -39.994  -5.751  26.643  1.00  0.00    -0.265 OA
ENDROOT
BRANCH   2  11
HETATM   11  C3  UNL     1     -42.307  -8.614  23.878  1.00  0.00     0.279 C
BRANCH  11  12
HETATM   12  N3  UNL     1     -43.563  -8.124  23.392  1.00  0.00    -0.049 N
ATOM     13  H32 UNL     1     -44.336  -8.446  23.973  1.00  0.00     0.280 HD
ATOM     14  H31 UNL     1     -43.654  -7.120  23.547  1.00  0.00     0.280 HD
BRANCH  12  15
HETATM   15  C4  UNL     1     -43.774  -8.467  21.988  1.00  0.00     0.304 C
HETATM   16  C5  UNL     1     -44.280  -9.900  21.832  1.00  0.00     0.176 C
HETATM   17  N4  UNL     1     -45.272  -9.713  20.792  1.00  0.00    -0.361 N
HETATM   18  C6  UNL     1     -45.740  -8.382  20.852  1.00  0.00     0.185 C
ATOM     19  H4  UNL     1     -45.581 -10.423  20.128  1.00  0.00     0.162 HD
HETATM   20  N5  UNL     1     -46.970  -7.896  20.250  1.00  0.00    -0.064 NA
HETATM   21  N6  UNL     1     -44.897  -7.694  21.522  1.00  0.00    -0.336 N
ATOM     22  H6  UNL     1     -45.007  -6.697  21.708  1.00  0.00     0.164 HD
ENDBRANCH  12  15
ENDBRANCH  11  12
ENDBRANCH   2  11
BRANCH   1  23
HETATM   23  N2  UNL     1     -41.330  -7.896  26.190  1.00  0.00    -0.164 N
HETATM   24  N1  UNL     1     -42.443  -7.772  26.803  1.00  0.00    -0.319 N
ATOM     25  H12 UNL     1     -42.722  -8.379  27.573  1.00  0.00     0.179 HD
ATOM     26  H11 UNL     1     -43.101  -7.042  26.530  1.00  0.00     0.179 HD
BRANCH  23  27
HETATM   27  O1  UNL     1     -40.434  -8.891  26.561  1.00  0.00    -0.268 OA
ATOM     28  H1  UNL     1     -40.196  -9.575  25.946  1.00  0.00     0.247 HD
ENDBRANCH  23  27
ENDBRANCH   1  23
BRANCH   3  29
HETATM   29  N7  UNL     1     -40.709  -8.011  21.748  1.00  0.00    -0.385 N
ATOM     30  H72 UNL     1     -40.805  -8.990  22.018  1.00  0.00     0.157 HD
ATOM     31  H71 UNL     1     -40.549  -7.660  20.804  1.00  0.00     0.157 HD
ENDBRANCH   3  29
BRANCH   6  32
HETATM   32  N9  UNL     1     -39.448  -3.866  22.622  1.00  0.00    -0.138 N
ATOM     33  H9  UNL     1     -38.758  -3.298  23.113  1.00  0.00     0.205 HD
BRANCH  32  34
HETATM   34  N10 UNL     1     -39.826  -3.495  21.339  1.00  0.00    -0.331 N
ATOM     35 2H10 UNL     1     -39.933  -4.232  20.643  1.00  0.00     0.177 HD
ATOM     36 1H10 UNL     1     -39.997  -2.524  21.078  1.00  0.00     0.177 HD
ENDBRANCH  32  34
ENDBRANCH   6  32
TORSDOF 8
ENDMDL