MODEL 4
REMARK VINA RESULT: -6.255804482      3.412      7.369
REMARK  9 active torsions:
REMARK  status: ('A' for Active; 'I' for Inactive)
REMARK    1  A    between atoms: C2_2  and  N1_3
REMARK    2  A    between atoms: N1_3  and  N2_4
REMARK    3  A    between atoms: N3_8  and  C4_9
REMARK    4  A    between atoms: N4_10  and  N5_12
REMARK    5  A    between atoms: N5_12  and  C5_14
REMARK    6  A    between atoms: C7_18  and  C8_19
REMARK    7  A    between atoms: C7_18  and  C9_22
REMARK    8  A    between atoms: C8_19  and  O1_20
REMARK    9  A    between atoms: C9_22  and  O2_23
ROOT
HETATM    1  C4  UNL     1     -40.924  -8.155  26.101  1.00  0.00     0.195 C
HETATM    2  N4  UNL     1     -41.649  -8.425  25.092  1.00  0.00    -0.294 N
ATOM      3  H4  UNL     1     -42.012  -7.674  24.505  1.00  0.00     0.187 HD
ENDROOT
BRANCH   2   4
HETATM    4  N5  UNL     1     -41.943  -9.756  24.791  1.00  0.00    -0.271 N
ATOM      5  H5  UNL     1     -41.416 -10.512  25.229  1.00  0.00     0.190 HD
BRANCH   4   6
HETATM    6  C5  UNL     1     -42.996 -10.050  23.857  1.00  0.00     0.191 C
HETATM    7  N6  UNL     1     -44.140 -10.542  24.222  1.00  0.00    -0.359 N
HETATM    8  C6  UNL     1     -44.993 -10.729  23.063  1.00  0.00     0.158 C
ATOM      9  H6  UNL     1     -44.401 -10.764  25.183  1.00  0.00     0.162 HD
HETATM   10  C7  UNL     1     -44.361  -9.840  22.040  1.00  0.00     0.091 C
HETATM   11  N7  UNL     1     -42.969  -9.863  22.444  1.00  0.00    -0.346 N
ATOM     12  H7  UNL     1     -42.148  -9.766  21.847  1.00  0.00     0.163 HD
BRANCH  10  13
HETATM   13  C8  UNL     1     -44.548 -10.331  20.627  1.00  0.00     0.199 C
BRANCH  13  14
HETATM   14  O1  UNL     1     -45.727  -9.792  20.129  1.00  0.00    -0.398 OA
ATOM     15  H1  UNL     1     -46.329  -9.668  20.854  1.00  0.00     0.209 HD
ENDBRANCH  13  14
ENDBRANCH  10  13
BRANCH  10  16
HETATM   16  C9  UNL     1     -44.862  -8.433  22.231  1.00  0.00     0.199 C
BRANCH  16  17
HETATM   17  O2  UNL     1     -44.249  -7.529  21.372  1.00  0.00    -0.398 OA
ATOM     18  H2  UNL     1     -44.624  -6.659  21.432  1.00  0.00     0.209 HD
ENDBRANCH  16  17
ENDBRANCH  10  16
ENDBRANCH   4   6
ENDBRANCH   2   4
BRANCH   1  19
HETATM   19  N3  UNL     1     -40.620  -6.802  26.414  1.00  0.00    -0.368 N
HETATM   20  C3  UNL     1     -40.166  -6.418  27.735  1.00  0.00     0.174 C
HETATM   21  C2  UNL     1     -38.968  -5.510  27.681  1.00  0.00     0.133 C
HETATM   22  C1  UNL     1     -39.192  -4.400  28.708  1.00  0.00     0.061 C
HETATM   23  N8  UNL     1     -38.701  -4.975  26.403  1.00  0.00    -0.376 N
HETATM   24  C11 UNL     1     -39.431  -5.039  25.378  1.00  0.00     0.077 C
ATOM     25  H8  UNL     1     -37.815  -4.481  26.297  1.00  0.00     0.160 HD
HETATM   26  C10 UNL     1     -40.748  -5.739  25.431  1.00  0.00     0.167 C
BRANCH  21  27
HETATM   27  N1  UNL     1     -37.791  -6.296  28.077  1.00  0.00    -0.115 NA
BRANCH  27  28
HETATM   28  N2  UNL     1     -36.715  -5.489  28.397  1.00  0.00    -0.346 N
ATOM     29  H22 UNL     1     -35.746  -5.753  28.219  1.00  0.00     0.172 HD
ATOM     30  H21 UNL     1     -37.010  -4.613  28.828  1.00  0.00     0.172 HD
ENDBRANCH  27  28
ENDBRANCH  21  27
ENDBRANCH   1  19
TORSDOF 9
ENDMDL