MODEL 3
REMARK VINA RESULT: -8.314529037      2.060      6.096
REMARK  9 active torsions:
REMARK  status: ('A' for Active; 'I' for Inactive)
REMARK    1  A    between atoms: N1_1  and  C1_4
REMARK    2  A    between atoms: C3_8  and  N3_9
REMARK    3  A    between atoms: N3_9  and  N4_11
REMARK    4  A    between atoms: N7_23  and  C7_24
REMARK    5  A    between atoms: C7_24  and  O3_25
REMARK    6  A    between atoms: O3_25  and  C8_26
REMARK    7  A    between atoms: C8_26  and  O4_27
REMARK    8  A    between atoms: C8_26  and  C9_29
REMARK    9  A    between atoms: C9_29  and  O5_30
ROOT
HETATM    1  C1  UNL     1     -42.912  -8.951  22.436  1.00  0.00     0.681 A
HETATM    2  N2  UNL     1     -42.355  -7.778  22.079  1.00  0.00    -0.186 N
ATOM      3  H2  UNL     1     -42.319  -7.372  21.144  1.00  0.00     0.184 HD
HETATM    4  C2  UNL     1     -41.860  -7.258  23.209  1.00  0.00     0.127 A
HETATM    5  C3  UNL     1     -41.190  -6.037  23.289  1.00  0.00     0.153 C
HETATM    6  N5  UNL     1     -40.512  -5.552  24.339  1.00  0.00    -0.291 N
ATOM      7  H5  UNL     1     -40.151  -4.608  24.204  1.00  0.00     0.172 HD
HETATM    8  C4  UNL     1     -40.220  -6.093  25.553  1.00  0.00     0.328 C
HETATM    9  O1  UNL     1     -39.267  -5.623  26.205  1.00  0.00    -0.247 OA
HETATM   10  N6  UNL     1     -40.857  -7.117  26.164  1.00  0.00    -0.273 N
ATOM     11  H6  UNL     1     -40.627  -7.289  27.143  1.00  0.00     0.173 HD
HETATM   12  C5  UNL     1     -41.764  -7.927  25.598  1.00  0.00     0.279 C
HETATM   13  O2  UNL     1     -42.399  -8.632  26.418  1.00  0.00    -0.265 OA
HETATM   14  C6  UNL     1     -42.109  -8.107  24.277  1.00  0.00     0.153 A
HETATM   15  N7  UNL     1     -42.771  -9.165  23.765  1.00  0.00    -0.154 N
ENDROOT
BRANCH  15  16
HETATM   16  C7  UNL     1     -43.229 -10.292  24.528  1.00  0.00     0.321 C
BRANCH  16  17
HETATM   17  O3  UNL     1     -44.611 -10.406  24.582  1.00  0.00    -0.339 OA
BRANCH  17  18
HETATM   18  C8  UNL     1     -44.971 -11.602  23.981  1.00  0.00     0.282 C
BRANCH  18  19
HETATM   19  O4  UNL     1     -45.562 -11.263  22.752  1.00  0.00    -0.369 OA
ATOM     20  H4  UNL     1     -46.485 -11.128  22.930  1.00  0.00     0.212 HD
ENDBRANCH  18  19
BRANCH  18  21
HETATM   21  C9  UNL     1     -45.933 -12.394  24.843  1.00  0.00     0.224 C
BRANCH  21  22
HETATM   22  O5  UNL     1     -46.054 -11.672  26.050  1.00  0.00    -0.396 OA
ATOM     23  H5  UNL     1     -46.830 -11.132  25.952  1.00  0.00     0.209 HD
ENDBRANCH  21  22
ENDBRANCH  18  21
ENDBRANCH  17  18
ENDBRANCH  16  17
ENDBRANCH  15  16
BRANCH   1  24
HETATM   24  N1  UNL     1     -43.501  -9.752  21.600  1.00  0.00    -0.234 N
ATOM     25  H12 UNL     1     -43.070 -10.557  21.144  1.00  0.00     0.174 HD
ATOM     26  H11 UNL     1     -44.474  -9.650  21.311  1.00  0.00     0.174 HD
ENDBRANCH   1  24
BRANCH   5  27
HETATM   27  N3  UNL     1     -41.238  -5.310  22.231  1.00  0.00    -0.290 N
ATOM     28  H3  UNL     1     -42.057  -5.334  21.622  1.00  0.00     0.188 HD
BRANCH  27  29
HETATM   29  N4  UNL     1     -40.161  -4.496  21.931  1.00  0.00    -0.344 N
ATOM     30  H42 UNL     1     -40.164  -3.523  22.237  1.00  0.00     0.176 HD
ATOM     31  H41 UNL     1     -39.380  -4.887  21.405  1.00  0.00     0.176 HD
ENDBRANCH  27  29
ENDBRANCH   5  27
TORSDOF 9
ENDMDL