MODEL 4
REMARK VINA RESULT: -7.496241060      2.185      2.910
REMARK  8 active torsions:
REMARK  status: ('A' for Active; 'I' for Inactive)
REMARK    1  A    between atoms: C2_7  and  N4_8
REMARK    2  A    between atoms: N4_8  and  C3_10
REMARK    3  A    between atoms: C6_19  and  S1_20
REMARK    4  A    between atoms: S1_20  and  C7_21
REMARK    5  A    between atoms: C7_21  and  C8_22
REMARK    6  A    between atoms: C8_22  and  O2_23
REMARK    7  A    between atoms: C8_22  and  C9_25
REMARK    8  A    between atoms: C9_25  and  O3_26
ROOT
HETATM    1  N1  UNL     1     -43.877  -5.934  20.607  1.00  0.00    -0.080 NA
HETATM    2  C1  UNL     1     -43.666  -7.073  21.466  1.00  0.00     0.151 A
HETATM    3  N2  UNL     1     -44.671  -7.937  21.693  1.00  0.00    -0.285 N
ATOM      4  H2  UNL     1     -45.567  -7.752  21.240  1.00  0.00     0.188 HD
HETATM    5  N3  UNL     1     -44.583  -9.007  22.462  1.00  0.00    -0.281 N
ATOM      6  H3  UNL     1     -45.383  -9.626  22.595  1.00  0.00     0.188 HD
HETATM    7  C2  UNL     1     -43.407  -9.256  23.062  1.00  0.00     0.175 A
HETATM    8  C5  UNL     1     -42.316  -8.397  22.870  1.00  0.00     0.237 A
HETATM    9  O1  UNL     1     -41.227  -8.666  23.456  1.00  0.00    -0.283 OA
HETATM   10  C6  UNL     1     -42.447  -7.297  22.065  1.00  0.00     0.097 A
ENDROOT
BRANCH   7  11
HETATM   11  N4  UNL     1     -43.280 -10.289  23.819  1.00  0.00    -0.309 N
ATOM     12  H4  UNL     1     -42.361 -10.486  24.213  1.00  0.00     0.170 HD
BRANCH  11  13
HETATM   13  C3  UNL     1     -44.340 -11.166  24.133  1.00  0.00     0.194 A
HETATM   14  N5  UNL     1     -45.057 -11.142  25.193  1.00  0.00    -0.346 N
HETATM   15  C4  UNL     1     -46.040 -12.168  25.191  1.00  0.00     0.259 A
ATOM     16  H5  UNL     1     -44.938 -10.467  25.948  1.00  0.00     0.163 HD
HETATM   17  N6  UNL     1     -45.812 -12.924  23.995  1.00  0.00    -0.119 NA
HETATM   18  N7  UNL     1     -44.807 -12.238  23.335  1.00  0.00    -0.274 N
ATOM     19  H7  UNL     1     -44.453 -12.471  22.407  1.00  0.00     0.185 HD
ENDBRANCH  11  13
ENDBRANCH   7  11
BRANCH  10  20
HETATM   20  S1  UNL     1     -41.100  -6.192  21.839  1.00  0.00    -0.120 SA
BRANCH  20  21
HETATM   21  C7  UNL     1     -40.119  -5.824  23.261  1.00  0.00     0.113 C
BRANCH  21  22
HETATM   22  C8  UNL     1     -40.822  -5.296  24.469  1.00  0.00     0.151 C
BRANCH  22  23
HETATM   23  O2  UNL     1     -41.254  -6.298  25.330  1.00  0.00    -0.393 OA
ATOM     24  H2  UNL     1     -40.701  -7.071  25.312  1.00  0.00     0.210 HD
ENDBRANCH  22  23
BRANCH  22  25
HETATM   25  C9  UNL     1     -39.783  -4.491  25.263  1.00  0.00     0.196 C
BRANCH  25  26
HETATM   26  O3  UNL     1     -39.111  -5.418  26.079  1.00  0.00    -0.398 OA
ATOM     27  H3  UNL     1     -38.320  -4.983  26.377  1.00  0.00     0.209 HD
ENDBRANCH  25  26
ENDBRANCH  22  25
ENDBRANCH  21  22
ENDBRANCH  20  21
ENDBRANCH  10  20
TORSDOF 8
ENDMDL