MODEL 3
REMARK VINA RESULT: -7.914715228      1.655      2.648
REMARK  6 active torsions:
REMARK  status: ('A' for Active; 'I' for Inactive)
REMARK    1  A    between atoms: N1_1  and  C1_4
REMARK    2  A    between atoms: C3_9  and  C4_10
REMARK    3  A    between atoms: C4_10  and  N4_11
REMARK    4  A    between atoms: C5_14  and  C6_15
REMARK    5  A    between atoms: C6_15  and  C7_16
REMARK    6  A    between atoms: N7_19  and  N8_20
ROOT
HETATM    1  C1  UNL     1     -40.504  -5.209  24.089  1.00  0.00     0.678 A
HETATM    2  N2  UNL     1     -40.897  -5.764  25.252  1.00  0.00    -0.178 N
ATOM      3  H2  UNL     1     -40.940  -5.193  26.097  1.00  0.00     0.185 HD
HETATM    4  C2  UNL     1     -41.229  -7.054  25.308  1.00  0.00     0.147 A
HETATM    5  N3  UNL     1     -41.635  -7.603  26.541  1.00  0.00    -0.081 NA
HETATM    6  C3  UNL     1     -41.167  -7.833  24.129  1.00  0.00     0.067 A
HETATM    7  C9  UNL     1     -40.769  -7.269  22.945  1.00  0.00     0.129 A
HETATM    8  N9  UNL     1     -40.690  -7.918  21.850  1.00  0.00    -0.384 N
ATOM      9  H91 UNL     1     -40.394  -7.499  20.969  1.00  0.00     0.157 HD
ATOM     10  H92 UNL     1     -40.934  -8.908  21.838  1.00  0.00     0.157 HD
HETATM   11  N10 UNL     1     -40.440  -5.939  22.961  1.00  0.00    -0.176 N
ATOM     12  H10 UNL     1     -40.140  -5.491  22.095  1.00  0.00     0.186 HD
ENDROOT
BRANCH   6  13
HETATM   13  C4  UNL     1     -41.548  -9.228  24.295  1.00  0.00     0.140 C
BRANCH  13  14
HETATM   14  N4  UNL     1     -42.744  -9.720  23.747  1.00  0.00    -0.213 N
HETATM   15  N5  UNL     1     -43.335 -10.868  24.031  1.00  0.00    -0.277 N
HETATM   16  C5  UNL     1     -44.486 -11.028  23.361  1.00  0.00     0.131 A
ATOM     17  H5  UNL     1     -42.959 -11.555  24.684  1.00  0.00     0.189 HD
HETATM   18  N7  UNL     1     -44.602  -9.892  22.615  1.00  0.00    -0.196 N
HETATM   19  C8  UNL     1     -43.542  -9.087  22.843  1.00  0.00     0.367 A
HETATM   20  O2  UNL     1     -43.363  -7.967  22.301  1.00  0.00    -0.243 OA
BRANCH  16  21
HETATM   21  C6  UNL     1     -45.456 -12.151  23.379  1.00  0.00     0.179 C
BRANCH  21  22
HETATM   22  C7  UNL     1     -46.434 -12.015  24.469  1.00  0.00     0.238 C
HETATM   23  N6  UNL     1     -46.008 -11.889  25.812  1.00  0.00    -0.062 NA
HETATM   24  O1  UNL     1     -47.668 -12.009  24.223  1.00  0.00    -0.276 OA
ENDBRANCH  21  22
ENDBRANCH  16  21
BRANCH  18  25
HETATM   25  N8  UNL     1     -45.666  -9.628  21.752  1.00  0.00    -0.333 N
ATOM     26  H82 UNL     1     -46.369  -8.898  21.869  1.00  0.00     0.177 HD
ATOM     27  H81 UNL     1     -45.852 -10.150  20.897  1.00  0.00     0.177 HD
ENDBRANCH  18  25
ENDBRANCH  13  14
ENDBRANCH   6  13
BRANCH   1  28
HETATM   28  N1  UNL     1     -40.187  -3.950  24.071  1.00  0.00    -0.234 N
ATOM     29  H12 UNL     1     -39.210  -3.665  24.136  1.00  0.00     0.174 HD
ATOM     30  H11 UNL     1     -40.931  -3.256  23.990  1.00  0.00     0.174 HD
ENDBRANCH   1  28
TORSDOF 6
ENDMDL