MODEL 2
REMARK VINA RESULT: -9.530066862      0.146      1.739
REMARK  6 active torsions:
REMARK  status: ('A' for Active; 'I' for Inactive)
REMARK    1  A    between atoms: C4_12  and  C5_13
REMARK    2  A    between atoms: C5_13  and  O2_14
REMARK    3  A    between atoms: C5_13  and  N5_16
REMARK    4  A    between atoms: N5_16  and  N6_18
REMARK    5  A    between atoms: N6_18  and  C6_20
REMARK    6  A    between atoms: C7_21  and  O3_22
ROOT
HETATM    1  N1  UNL     1     -39.494  -3.841  21.759  1.00  0.00    -0.172 NA
HETATM    2  C1  UNL     1     -39.529  -4.249  22.839  1.00  0.00     0.183 C
HETATM    3  N2  UNL     1     -39.558  -4.691  24.098  1.00  0.00    -0.277 N
ATOM      4  H2  UNL     1     -38.925  -4.144  24.680  1.00  0.00     0.179 HD
HETATM    5  C2  UNL     1     -40.125  -5.572  24.780  1.00  0.00     0.145 A
HETATM    6  N3  UNL     1     -39.863  -5.728  26.212  1.00  0.00    -0.292 N
ATOM      7  H3  UNL     1     -39.227  -5.180  26.791  1.00  0.00     0.172 HD
HETATM    8  C3  UNL     1     -40.681  -6.802  26.614  1.00  0.00     0.326 A
HETATM    9  O1  UNL     1     -40.703  -7.214  27.816  1.00  0.00    -0.247 OA
HETATM   10  N4  UNL     1     -41.375  -7.243  25.494  1.00  0.00    -0.305 N
ATOM     11  H4  UNL     1     -42.039  -8.017  25.519  1.00  0.00     0.170 HD
HETATM   12  C4  UNL     1     -41.101  -6.583  24.417  1.00  0.00     0.108 A
ENDROOT
BRANCH  12  13
HETATM   13  C5  UNL     1     -41.675  -6.874  23.065  1.00  0.00     0.287 C
BRANCH  13  14
HETATM   14  O2  UNL     1     -40.642  -7.378  22.224  1.00  0.00    -0.370 OA
ATOM     15  H2  UNL     1     -40.664  -8.328  22.244  1.00  0.00     0.212 HD
ENDBRANCH  13  14
BRANCH  13  16
HETATM   16  N5  UNL     1     -42.852  -7.654  23.063  1.00  0.00    -0.301 N
ATOM     17  H5  UNL     1     -43.647  -7.386  23.643  1.00  0.00     0.183 HD
BRANCH  16  18
HETATM   18  N6  UNL     1     -42.920  -8.764  22.286  1.00  0.00    -0.294 N
ATOM     19  H6  UNL     1     -42.414  -8.793  21.400  1.00  0.00     0.187 HD
BRANCH  18  20
HETATM   20  C6  UNL     1     -43.703  -9.904  22.704  1.00  0.00     0.167 A
HETATM   21  C7  UNL     1     -43.408 -10.423  23.937  1.00  0.00     0.178 A
HETATM   22  N7  UNL     1     -44.122 -11.480  24.378  1.00  0.00    -0.287 N
HETATM   23  C8  UNL     1     -45.097 -12.008  23.627  1.00  0.00     0.329 A
ATOM     24  H7  UNL     1     -43.916 -11.880  25.294  1.00  0.00     0.172 HD
HETATM   25  O4  UNL     1     -45.724 -12.986  24.091  1.00  0.00    -0.247 OA
HETATM   26  N8  UNL     1     -45.386 -11.490  22.405  1.00  0.00    -0.273 N
HETATM   27  C9  UNL     1     -44.697 -10.431  21.922  1.00  0.00     0.281 A
ATOM     28  H8  UNL     1     -46.131 -11.904  21.845  1.00  0.00     0.173 HD
HETATM   29  O5  UNL     1     -44.932  -9.916  20.786  1.00  0.00    -0.265 OA
BRANCH  21  30
HETATM   30  O3  UNL     1     -42.393  -9.871  24.715  1.00  0.00    -0.344 OA
ATOM     31  H3  UNL     1     -41.515 -10.231  24.692  1.00  0.00     0.219 HD
ENDBRANCH  21  30
ENDBRANCH  18  20
ENDBRANCH  16  18
ENDBRANCH  13  16
ENDBRANCH  12  13
TORSDOF 6
ENDMDL