MODEL 5
REMARK VINA RESULT: -7.349849944      2.709      4.988
REMARK  9 active torsions:
REMARK  status: ('A' for Active; 'I' for Inactive)
REMARK    1  A    between atoms: N1_1  and  C1_4
REMARK    2  A    between atoms: C3_10  and  N4_11
REMARK    3  A    between atoms: N4_11  and  C4_13
REMARK    4  A    between atoms: C5_16  and  N6_17
REMARK    5  A    between atoms: N6_17  and  C6_19
REMARK    6  A    between atoms: C6_19  and  C7_20
REMARK    7  A    between atoms: C7_20  and  O1_21
REMARK    8  A    between atoms: C8_25  and  N8_26
REMARK    9  A    between atoms: C9_29  and  N9_30
ROOT
HETATM    1  C4  UNL     1     -41.907  -8.130  24.570  1.00  0.00     0.173 A
HETATM    2  N5  UNL     1     -41.316  -7.036  24.041  1.00  0.00    -0.173 N
ATOM      3  H5  UNL     1     -40.632  -6.529  24.603  1.00  0.00     0.186 HD
HETATM    4  C5  UNL     1     -41.590  -6.591  22.812  1.00  0.00     0.681 A
HETATM    5  N7  UNL     1     -42.474  -7.202  22.013  1.00  0.00    -0.175 N
ATOM      6  H7  UNL     1     -42.671  -6.848  21.077  1.00  0.00     0.186 HD
HETATM    7  C8  UNL     1     -43.093  -8.296  22.486  1.00  0.00     0.151 A
HETATM    8  C9  UNL     1     -42.822  -8.781  23.771  1.00  0.00     0.191 A
ENDROOT
BRANCH   1   9
HETATM    9  N4  UNL     1     -41.605  -8.593  25.878  1.00  0.00    -0.173 N
ATOM     10  H4  UNL     1     -41.623  -9.604  26.016  1.00  0.00     0.186 HD
BRANCH   9  11
HETATM   11  C3  UNL     1     -41.316  -7.893  26.891  1.00  0.00     0.699 A
HETATM   12  N3  UNL     1     -42.173  -7.889  27.925  1.00  0.00    -0.186 N
HETATM   13  C2  UNL     1     -41.947  -7.174  29.042  1.00  0.00     0.215 A
ATOM     14  H3  UNL     1     -43.025  -8.446  27.861  1.00  0.00     0.185 HD
HETATM   15  N2  UNL     1     -40.810  -6.435  29.119  1.00  0.00    -0.187 N
HETATM   16  C1  UNL     1     -39.946  -6.430  28.101  1.00  0.00     0.691 A
ATOM     17  H2  UNL     1     -40.616  -5.885  29.956  1.00  0.00     0.185 HD
HETATM   18  N10 UNL     1     -40.206  -7.153  27.006  1.00  0.00    -0.022 N
ATOM     19  H10 UNL     1     -39.538  -7.140  26.235  1.00  0.00     0.203 HD
BRANCH  16  20
HETATM   20  N1  UNL     1     -38.877  -5.726  28.189  1.00  0.00    -0.234 N
ATOM     21  H12 UNL     1     -38.470  -5.500  29.098  1.00  0.00     0.174 HD
ATOM     22  H11 UNL     1     -38.429  -5.390  27.336  1.00  0.00     0.174 HD
ENDBRANCH  16  20
ENDBRANCH   9  11
ENDBRANCH   1   9
BRANCH   8  23
HETATM   23  N9  UNL     1     -43.477  -9.929  24.257  1.00  0.00    -0.108 N
HETATM   24  O2  UNL     1     -43.224 -11.079  23.860  1.00  0.00    -0.531 OA
HETATM   25  O3  UNL     1     -44.444  -9.769  25.219  1.00  0.00    -0.531 OA
ENDBRANCH   8  23
BRANCH   4  26
HETATM   26  N6  UNL     1     -40.979  -5.536  22.386  1.00  0.00    -0.224 N
ATOM     27  H6  UNL     1     -41.415  -5.028  21.618  1.00  0.00     0.177 HD
BRANCH  26  28
HETATM   28  C6  UNL     1     -39.754  -5.016  22.889  1.00  0.00     0.164 C
BRANCH  28  29
HETATM   29  C7  UNL     1     -39.870  -4.357  24.232  1.00  0.00     0.184 C
BRANCH  29  30
HETATM   30  O1  UNL     1     -39.188  -5.106  25.182  1.00  0.00    -0.399 OA
ATOM     31  H1  UNL     1     -38.511  -5.620  24.757  1.00  0.00     0.209 HD
ENDBRANCH  29  30
ENDBRANCH  28  29
ENDBRANCH  26  28
ENDBRANCH   4  26
BRANCH   7  32
HETATM   32  N8  UNL     1     -43.945  -8.905  21.748  1.00  0.00    -0.383 N
ATOM     33  H82 UNL     1     -43.840  -8.881  20.735  1.00  0.00     0.157 HD
ATOM     34  H81 UNL     1     -44.718  -9.407  22.186  1.00  0.00     0.157 HD
ENDBRANCH   7  32
TORSDOF 9
ENDMDL