MODEL 1
REMARK VINA RESULT: -7.257954596      0.000      0.000
REMARK  8 active torsions:
REMARK  status: ('A' for Active; 'I' for Inactive)
REMARK    1  A    between atoms: C3_3  and  N1_4
REMARK    2  A    between atoms: N2_7  and  C5_8
REMARK    3  A    between atoms: C5_8  and  C6_9
REMARK    4  A    between atoms: C6_9  and  C7_10
REMARK    5  A    between atoms: C7_10  and  O2_11
REMARK    6  A    between atoms: N3_13  and  N4_15
REMARK    7  A    between atoms: N4_15  and  N5_17
REMARK    8  A    between atoms: C10_25  and  N7_26
ROOT
HETATM    1  C1  UNL     1     -45.795 -11.963  25.480  1.00  0.00     0.014 C
HETATM    2  C2  UNL     1     -45.428 -11.699  24.365  1.00  0.00    -0.097 C
HETATM    3  C3  UNL     1     -44.986 -11.359  23.013  1.00  0.00     0.228 C
ENDROOT
BRANCH   3   4
HETATM    4  N1  UNL     1     -44.176 -10.176  22.963  1.00  0.00    -0.271 N
HETATM    5  C4  UNL     1     -43.033  -9.957  23.612  1.00  0.00     0.332 A
HETATM    6  O1  UNL     1     -42.423 -10.726  24.394  1.00  0.00    -0.246 OA
HETATM    7  N2  UNL     1     -42.553  -8.711  23.314  1.00  0.00    -0.286 N
HETATM    8  C8  UNL     1     -43.437  -8.183  22.466  1.00  0.00     0.153 A
HETATM    9  C9  UNL     1     -43.550  -6.988  21.781  1.00  0.00     0.290 A
HETATM   10  C11 UNL     1     -44.477  -9.085  22.225  1.00  0.00     0.161 A
HETATM   11  O3  UNL     1     -42.676  -6.094  21.908  1.00  0.00    -0.265 OA
HETATM   12  N6  UNL     1     -44.586  -6.729  20.954  1.00  0.00    -0.154 N
HETATM   13  C10 UNL     1     -45.571  -7.656  20.765  1.00  0.00     0.680 A
ATOM     14  H6  UNL     1     -44.633  -5.834  20.468  1.00  0.00     0.187 HD
HETATM   15  N8  UNL     1     -45.509  -8.833  21.405  1.00  0.00    -0.174 N
ATOM     16  H8  UNL     1     -46.241  -9.531  21.269  1.00  0.00     0.186 HD
BRANCH   7  17
HETATM   17  C5  UNL     1     -41.331  -8.117  23.794  1.00  0.00     0.190 C
BRANCH  17  18
HETATM   18  C6  UNL     1     -41.461  -7.373  25.042  1.00  0.00     0.046 C
HETATM   19  N3  UNL     1     -41.333  -6.082  25.110  1.00  0.00    -0.291 N
ATOM     20  H3  UNL     1     -41.440  -5.641  26.024  1.00  0.00     0.188 HD
BRANCH  18  21
HETATM   21  C7  UNL     1     -41.750  -8.053  26.319  1.00  0.00     0.219 C
BRANCH  21  22
HETATM   22  O2  UNL     1     -40.925  -9.148  26.559  1.00  0.00    -0.395 OA
ATOM     23  H2  UNL     1     -40.981  -9.816  25.886  1.00  0.00     0.209 HD
ENDBRANCH  21  22
ENDBRANCH  18  21
BRANCH  19  24
HETATM   24  N4  UNL     1     -41.064  -5.269  24.032  1.00  0.00    -0.249 N
ATOM     25  H4  UNL     1     -41.517  -5.449  23.136  1.00  0.00     0.207 HD
BRANCH  24  26
HETATM   26  N5  UNL     1     -40.174  -4.198  24.157  1.00  0.00    -0.331 N
ATOM     27  H52 UNL     1     -39.227  -4.382  24.491  1.00  0.00     0.178 HD
ATOM     28  H51 UNL     1     -40.467  -3.251  23.918  1.00  0.00     0.178 HD
ENDBRANCH  24  26
ENDBRANCH  19  24
ENDBRANCH  17  18
ENDBRANCH   7  17
BRANCH  13  29
HETATM   29  N7  UNL     1     -46.546  -7.411  19.987  1.00  0.00    -0.234 N
ATOM     30  H72 UNL     1     -47.344  -6.876  20.328  1.00  0.00     0.174 HD
ATOM     31  H71 UNL     1     -46.536  -7.746  19.023  1.00  0.00     0.174 HD
ENDBRANCH  13  29
ENDBRANCH   3   4
TORSDOF 8
ENDMDL