MODEL 5
REMARK VINA RESULT: -7.780385954      1.098      1.171
REMARK  9 active torsions:
REMARK  status: ('A' for Active; 'I' for Inactive)
REMARK    1  A    between atoms: N1_1  and  C1_4
REMARK    2  A    between atoms: C2_7  and  N3_8
REMARK    3  A    between atoms: N3_8  and  C3_10
REMARK    4  A    between atoms: C3_10  and  C4_11
REMARK    5  A    between atoms: C4_11  and  O1_12
REMARK    6  A    between atoms: C5_16  and  N5_17
REMARK    7  A    between atoms: N5_17  and  N6_19
REMARK    8  A    between atoms: C6_21  and  C7_22
REMARK    9  A    between atoms: N9_28  and  N10_30
ROOT
HETATM    1  C1  UNL     1     -40.770  -7.069  26.986  1.00  0.00     0.705 A
HETATM    2  N2  UNL     1     -39.699  -6.415  27.498  1.00  0.00    -0.022 N
ATOM      3  H2  UNL     1     -39.306  -6.723  28.387  1.00  0.00     0.203 HD
HETATM    4  C2  UNL     1     -39.146  -5.372  26.862  1.00  0.00     0.707 A
HETATM    5  N4  UNL     1     -39.714  -5.014  25.690  1.00  0.00    -0.020 N
ATOM      6  H4  UNL     1     -39.317  -4.224  25.182  1.00  0.00     0.203 HD
HETATM    7  C5  UNL     1     -40.771  -5.641  25.162  1.00  0.00     0.726 A
HETATM    8  N11 UNL     1     -41.317  -6.692  25.816  1.00  0.00    -0.020 N
ATOM      9  H11 UNL     1     -42.122  -7.185  25.431  1.00  0.00     0.203 HD
ENDROOT
BRANCH   7  10
HETATM   10  N5  UNL     1     -41.315  -5.304  24.048  1.00  0.00    -0.131 N
ATOM     11  H5  UNL     1     -42.296  -5.029  24.018  1.00  0.00     0.205 HD
BRANCH  10  12
HETATM   12  N6  UNL     1     -40.555  -5.317  22.874  1.00  0.00    -0.295 N
HETATM   13  C6  UNL     1     -40.714  -6.220  21.958  1.00  0.00     0.146 C
ATOM     14  H6  UNL     1     -39.852  -4.591  22.733  1.00  0.00     0.186 HD
BRANCH  13  15
HETATM   15  C7  UNL     1     -41.724  -7.265  22.165  1.00  0.00     0.109 A
HETATM   16  N7  UNL     1     -42.932  -7.308  21.627  1.00  0.00    -0.290 N
HETATM   17  N8  UNL     1     -43.718  -8.268  21.885  1.00  0.00    -0.278 N
ATOM     18  H7  UNL     1     -43.233  -6.563  20.999  1.00  0.00     0.187 HD
HETATM   19  C8  UNL     1     -43.303  -9.234  22.709  1.00  0.00     0.179 A
ATOM     20  H8  UNL     1     -44.650  -8.302  21.472  1.00  0.00     0.189 HD
HETATM   21  N9  UNL     1     -43.951 -10.307  23.105  1.00  0.00    -0.285 N
HETATM   22  S1  UNL     1     -41.721  -8.693  23.098  1.00  0.00    -0.031 SA
ATOM     23  H9  UNL     1     -43.518 -10.974  23.744  1.00  0.00     0.188 HD
BRANCH  21  24
HETATM   24  N10 UNL     1     -45.236 -10.506  22.631  1.00  0.00    -0.343 N
ATOM     25 2H10 UNL     1     -45.399 -10.622  21.630  1.00  0.00     0.176 HD
ATOM     26 1H10 UNL     1     -46.000 -10.532  23.307  1.00  0.00     0.176 HD
ENDBRANCH  21  24
ENDBRANCH  13  15
ENDBRANCH  10  12
ENDBRANCH   7  10
BRANCH   4  27
HETATM   27  N3  UNL     1     -38.145  -4.714  27.279  1.00  0.00    -0.223 N
ATOM     28  H3  UNL     1     -37.812  -3.977  26.658  1.00  0.00     0.177 HD
BRANCH  27  29
HETATM   29  C3  UNL     1     -37.424  -4.865  28.499  1.00  0.00     0.164 C
BRANCH  29  30
HETATM   30  C4  UNL     1     -36.423  -6.015  28.466  1.00  0.00     0.184 C
BRANCH  30  31
HETATM   31  O1  UNL     1     -37.071  -7.217  28.649  1.00  0.00    -0.399 OA
ATOM     32  H1  UNL     1     -37.239  -7.632  27.811  1.00  0.00     0.209 HD
ENDBRANCH  30  31
ENDBRANCH  29  30
ENDBRANCH  27  29
ENDBRANCH   4  27
BRANCH   1  33
HETATM   33  N1  UNL     1     -41.253  -8.075  27.661  1.00  0.00    -0.234 N
ATOM     34  H12 UNL     1     -41.307  -8.047  28.679  1.00  0.00     0.174 HD
ATOM     35  H11 UNL     1     -41.576  -8.889  27.139  1.00  0.00     0.174 HD
ENDBRANCH   1  33
TORSDOF 9
ENDMDL