MODEL 1
REMARK VINA RESULT: -6.236225562      0.000      0.000
REMARK  6 active torsions:
REMARK  status: ('A' for Active; 'I' for Inactive)
REMARK    1  A    between atoms: N1_1  and  C1_5
REMARK    2  A    between atoms: C1_5  and  C2_6
REMARK    3  A    between atoms: C2_6  and  N2_7
REMARK    4  A    between atoms: C2_6  and  C7_17
REMARK    5  A    between atoms: N2_7  and  C3_9
REMARK    6  A    between atoms: C3_9  and  C4_10
ROOT
HETATM    1  C2  UNL     1      22.855  -4.753   9.286  1.00  0.00     0.158 C
ENDROOT
BRANCH   1   2
HETATM    2  C1  UNL     1      24.173  -3.994   9.116  1.00  0.00     0.260 C
BRANCH   2   3
HETATM    3  N1  UNL     1      24.686  -4.154   7.767  1.00  0.00    -0.077 N
ATOM      4  H13 UNL     1      24.481  -5.080   7.392  1.00  0.00     0.274 HD
ATOM      5  H12 UNL     1      24.159  -3.597   7.094  1.00  0.00     0.274 HD
ATOM      6  H11 UNL     1      25.683  -3.943   7.733  1.00  0.00     0.274 HD
ENDBRANCH   2   3
ENDBRANCH   1   2
BRANCH   1   7
HETATM    7  N2  UNL     1      21.794  -3.931   9.707  1.00  0.00    -0.385 N
ATOM      8  H2  UNL     1      20.858  -4.103   9.338  1.00  0.00     0.159 HD
BRANCH   7   9
HETATM    9  C3  UNL     1      21.982  -2.887  10.616  1.00  0.00     0.114 C
BRANCH   9  10
HETATM   10  C4  UNL     1      20.880  -2.998  11.655  1.00  0.00     0.063 A
HETATM   11  C5  UNL     1      20.504  -4.128  12.336  1.00  0.00     0.119 A
HETATM   12  N3  UNL     1      19.497  -3.828  13.168  1.00  0.00    -0.360 N
HETATM   13  C6  UNL     1      19.244  -2.533  13.013  1.00  0.00     0.180 A
ATOM     14  H3  UNL     1      19.018  -4.470  13.800  1.00  0.00     0.166 HD
HETATM   15  N4  UNL     1      20.078  -2.017  12.097  1.00  0.00    -0.350 N
ATOM     16  H4  UNL     1      20.099  -1.045  11.789  1.00  0.00     0.166 HD
ENDBRANCH   9  10
ENDBRANCH   7   9
ENDBRANCH   1   7
BRANCH   1  17
HETATM   17  C7  UNL     1      23.070  -6.030   9.962  1.00  0.00     0.050 A
HETATM   18  C8  UNL     1      22.294  -6.811  10.771  1.00  0.00     0.116 A
HETATM   19  N5  UNL     1      22.943  -7.932  11.157  1.00  0.00    -0.360 N
HETATM   20  C9  UNL     1      24.150  -7.852  10.579  1.00  0.00     0.180 A
ATOM     21  H5  UNL     1      22.591  -8.678  11.757  1.00  0.00     0.166 HD
HETATM   22  N6  UNL     1      24.248  -6.727   9.862  1.00  0.00    -0.353 N
ATOM     23  H6  UNL     1      25.066  -6.435   9.328  1.00  0.00     0.166 HD
ENDBRANCH   1  17
TORSDOF 6
ENDMDL