MODEL 4
REMARK VINA RESULT: -6.619445564      2.260      6.273
REMARK  6 active torsions:
REMARK  status: ('A' for Active; 'I' for Inactive)
REMARK    1  A    between atoms: C2_2  and  C3_3
REMARK    2  A    between atoms: C3_3  and  C4_4
REMARK    3  A    between atoms: C4_4  and  N1_5
REMARK    4  A    between atoms: C5_7  and  C6_9
REMARK    5  A    between atoms: C6_9  and  N3_10
REMARK    6  A    between atoms: N3_10  and  C7_12
ROOT
HETATM    1  N3  UNL     1      21.426  -3.475   9.951  1.00  0.00    -0.369 N
ATOM      2  H3  UNL     1      20.579  -3.562   9.389  1.00  0.00     0.161 HD
ENDROOT
BRANCH   1   3
HETATM    3  C6  UNL     1      21.446  -2.521  11.014  1.00  0.00     0.194 C
BRANCH   3   4
HETATM    4  C5  UNL     1      20.502  -2.938  12.067  1.00  0.00     0.106 C
HETATM    5  N1  UNL     1      19.700  -2.055  12.541  1.00  0.00    -0.380 N
ATOM      6  H1  UNL     1      19.720  -1.096  12.196  1.00  0.00     0.160 HD
HETATM    7  N2  UNL     1      20.468  -4.252  12.544  1.00  0.00    -0.086 NA
BRANCH   5   8
HETATM    8  C4  UNL     1      18.769  -2.448  13.573  1.00  0.00     0.124 C
BRANCH   8   9
HETATM    9  C3  UNL     1      17.439  -2.868  12.972  1.00  0.00     0.046 C
BRANCH   9  10
HETATM   10  C2  UNL     1      17.092  -1.930  11.860  1.00  0.00    -0.035 C
HETATM   11  C1  UNL     1      17.009  -2.400  10.636  1.00  0.00     0.007 C
ENDBRANCH   9  10
ENDBRANCH   8   9
ENDBRANCH   5   8
ENDBRANCH   3   4
ENDBRANCH   1   3
BRANCH   1  12
HETATM   12  C7  UNL     1      22.525  -4.299   9.647  1.00  0.00     0.104 A
HETATM   13  C8  UNL     1      22.547  -5.556  10.264  1.00  0.00     0.103 A
HETATM   14  C9  UNL     1      23.574  -6.429   9.990  1.00  0.00     0.176 A
HETATM   15  O1  UNL     1      23.583  -7.558  10.550  1.00  0.00    -0.288 OA
HETATM   16  C10 UNL     1      24.540  -6.020   9.112  1.00  0.00     0.072 A
HETATM   17  C11 UNL     1      24.518  -4.787   8.506  1.00  0.00     0.093 A
HETATM   18  N4  UNL     1      23.494  -3.960   8.801  1.00  0.00    -0.352 N
ATOM     19  H4  UNL     1      23.462  -3.041   8.359  1.00  0.00     0.166 HD
ENDBRANCH   1  12
TORSDOF 6
ENDMDL