MODEL 2
REMARK VINA RESULT: -7.479781586      1.078      1.645
REMARK  7 active torsions:
REMARK  status: ('A' for Active; 'I' for Inactive)
REMARK    1  A    between atoms: N1_1  and  O1_4
REMARK    2  A    between atoms: O1_4  and  C1_5
REMARK    3  A    between atoms: C1_5  and  N2_6
REMARK    4  A    between atoms: N2_6  and  C2_8
REMARK    5  A    between atoms: C2_8  and  C3_9
REMARK    6  A    between atoms: C2_8  and  C10_16
REMARK    7  A    between atoms: C3_9  and  C4_10
ROOT
HETATM    1  C2  UNL     1      21.835  -4.510  11.154  1.00  0.00     0.095 C
ENDROOT
BRANCH   1   2
HETATM    2  N2  UNL     1      22.900  -3.965  10.455  1.00  0.00    -0.341 N
ATOM      3  H2  UNL     1      23.533  -3.357  10.976  1.00  0.00     0.167 HD
BRANCH   2   4
HETATM    4  C1  UNL     1      23.189  -4.169   9.101  1.00  0.00     0.259 C
BRANCH   4   5
HETATM    5  O1  UNL     1      24.598  -3.927   8.984  1.00  0.00    -0.240 OA
BRANCH   5   6
HETATM    6  N1  UNL     1      25.011  -4.024   7.729  1.00  0.00    -0.305 N
ATOM      7  H12 UNL     1      24.983  -3.247   7.069  1.00  0.00     0.184 HD
ATOM      8  H11 UNL     1      25.355  -4.960   7.515  1.00  0.00     0.184 HD
ENDBRANCH   5   6
ENDBRANCH   4   5
ENDBRANCH   2   4
ENDBRANCH   1   2
BRANCH   1   9
HETATM    9  C3  UNL     1      21.994  -5.689  11.995  1.00  0.00     0.012 C
BRANCH   9  10
HETATM   10  C4  UNL     1      22.459  -6.988  11.543  1.00  0.00     0.010 C
HETATM   11  C5  UNL     1      23.994  -7.006  11.389  1.00  0.00     0.008 C
HETATM   12  C6  UNL     1      24.366  -8.381  10.875  1.00  0.00     0.001 C
HETATM   13  C7  UNL     1      23.728  -8.709   9.566  1.00  0.00     0.000 C
HETATM   14  C8  UNL     1      22.216  -8.644   9.749  1.00  0.00     0.001 C
HETATM   15  C9  UNL     1      21.906  -7.251  10.165  1.00  0.00     0.008 C
ENDBRANCH   9  10
ENDBRANCH   1   9
BRANCH   1  16
HETATM   16  C10 UNL     1      20.886  -3.557  11.715  1.00  0.00     0.281 C
HETATM   17  N3  UNL     1      21.582  -2.221  11.771  1.00  0.00    -0.056 NA
HETATM   18  O2  UNL     1      19.831  -3.574  12.145  1.00  0.00    -0.269 OA
ENDBRANCH   1  16
TORSDOF 7
ENDMDL