MODEL 1
REMARK VINA RESULT: -6.369365715      0.000      0.000
REMARK  7 active torsions:
REMARK  status: ('A' for Active; 'I' for Inactive)
REMARK    1  A    between atoms: C2_2  and  C3_4
REMARK    2  A    between atoms: C3_4  and  N2_5
REMARK    3  A    between atoms: N2_5  and  C4_7
REMARK    4  A    between atoms: C4_7  and  C5_8
REMARK    5  A    between atoms: C5_8  and  O1_9
REMARK    6  A    between atoms: O1_9  and  C6_10
REMARK    7  A    between atoms: C10_14  and  N3_15
ROOT
HETATM    1  C6  UNL     1      22.801  -3.742  10.567  1.00  0.00     0.143 A
HETATM    2  C7  UNL     1      22.734  -5.075  10.895  1.00  0.00     0.056 A
HETATM    3  C8  UNL     1      23.429  -6.050  10.169  1.00  0.00     0.008 A
HETATM    4  C9  UNL     1      24.202  -5.656   9.099  1.00  0.00     0.048 A
HETATM    5  C10 UNL     1      24.263  -4.304   8.779  1.00  0.00     0.100 A
HETATM    6  N4  UNL     1      23.582  -3.401   9.497  1.00  0.00    -0.324 N
ATOM      7  H4  UNL     1      23.649  -2.417   9.235  1.00  0.00     0.169 HD
ENDROOT
BRANCH   1   8
HETATM    8  O1  UNL     1      22.156  -2.736  11.213  1.00  0.00    -0.334 OA
BRANCH   8   9
HETATM    9  C5  UNL     1      20.840  -2.387  11.314  1.00  0.00     0.196 C
BRANCH   9  10
HETATM   10  C4  UNL     1      20.238  -2.888  12.633  1.00  0.00     0.141 C
BRANCH  10  11
HETATM   11  N2  UNL     1      19.118  -2.090  13.013  1.00  0.00    -0.414 N
ATOM     12  H2  UNL     1      19.227  -1.185  13.473  1.00  0.00     0.153 HD
BRANCH  11  13
HETATM   13  C3  UNL     1      17.834  -2.639  12.708  1.00  0.00     0.167 C
BRANCH  13  14
HETATM   14  C2  UNL     1      17.096  -1.984  11.610  1.00  0.00     0.032 C
HETATM   15  C1  UNL     1      17.093  -2.530  10.409  1.00  0.00     0.036 C
HETATM   16  N1  UNL     1      16.352  -0.785  11.765  1.00  0.00    -0.106 NA
ENDBRANCH  13  14
ENDBRANCH  11  13
ENDBRANCH  10  11
ENDBRANCH   9  10
ENDBRANCH   8   9
ENDBRANCH   1   8
BRANCH   5  17
HETATM   17  N3  UNL     1      25.000  -3.984   7.765  1.00  0.00    -0.385 N
ATOM     18  H32 UNL     1      24.674  -3.376   7.014  1.00  0.00     0.157 HD
ATOM     19  H31 UNL     1      25.942  -4.373   7.747  1.00  0.00     0.157 HD
ENDBRANCH   5  17
TORSDOF 7
ENDMDL