MODEL 2
REMARK VINA RESULT: -6.583821625      1.238      1.424
REMARK  6 active torsions:
REMARK  status: ('A' for Active; 'I' for Inactive)
REMARK    1  A    between atoms: C2_2  and  C3_3
REMARK    2  A    between atoms: C3_3  and  C4_4
REMARK    3  A    between atoms: C4_4  and  N1_5
REMARK    4  A    between atoms: C4_4  and  C11_18
REMARK    5  A    between atoms: N1_5  and  C5_7
REMARK    6  A    between atoms: C5_7  and  C6_8
ROOT
HETATM    1  C6  UNL     1      20.720  -6.499  14.016  1.00  0.00     0.022 A
HETATM    2  C7  UNL     1      21.034  -7.351  15.037  1.00  0.00     0.018 A
HETATM    3  C8  UNL     1      20.620  -7.087  16.348  1.00  0.00     0.018 A
HETATM    4  C9  UNL     1      19.892  -5.941  16.552  1.00  0.00     0.089 A
HETATM    5  N2  UNL     1      19.595  -5.121  15.550  1.00  0.00    -0.352 N
ATOM      6  H2  UNL     1      19.053  -4.280  15.745  1.00  0.00     0.166 HD
HETATM    7  C10 UNL     1      19.988  -5.365  14.281  1.00  0.00     0.110 A
HETATM    8  N3  UNL     1      19.670  -4.504  13.342  1.00  0.00    -0.385 N
ATOM      9  H31 UNL     1      19.127  -3.663  13.539  1.00  0.00     0.157 HD
ATOM     10  H32 UNL     1      19.966  -4.687  12.384  1.00  0.00     0.157 HD
ENDROOT
BRANCH   1  11
HETATM   11  C5  UNL     1      21.096  -6.795  12.600  1.00  0.00     0.099 C
BRANCH  11  12
HETATM   12  N1  UNL     1      22.315  -6.277  12.158  1.00  0.00    -0.385 N
ATOM     13  H1  UNL     1      23.129  -6.313  12.773  1.00  0.00     0.159 HD
BRANCH  12  14
HETATM   14  C4  UNL     1      22.437  -5.712  10.892  1.00  0.00     0.173 C
BRANCH  14  15
HETATM   15  C3  UNL     1      23.597  -6.248  10.071  1.00  0.00     0.060 C
BRANCH  15  16
HETATM   16  C2  UNL     1      24.224  -7.445  10.654  1.00  0.00    -0.034 C
HETATM   17  C1  UNL     1      23.939  -8.623  10.108  1.00  0.00     0.007 C
ENDBRANCH  15  16
ENDBRANCH  14  15
BRANCH  14  18
HETATM   18  C11 UNL     1      22.506  -4.238  10.784  1.00  0.00     0.254 C
HETATM   19  N4  UNL     1      23.296  -3.593   9.777  1.00  0.00    -0.060 NA
HETATM   20  O1  UNL     1      21.860  -3.533  11.581  1.00  0.00    -0.275 OA
ENDBRANCH  14  18
ENDBRANCH  12  14
ENDBRANCH  11  12
ENDBRANCH   1  11
TORSDOF 6
ENDMDL