MODEL 3
REMARK VINA RESULT: -7.313709148      2.156      3.131
REMARK  6 active torsions:
REMARK  status: ('A' for Active; 'I' for Inactive)
REMARK    1  A    between atoms: C1_4  and  C2_6
REMARK    2  A    between atoms: C7_11  and  O1_12
REMARK    3  A    between atoms: O1_12  and  C8_13
REMARK    4  A    between atoms: C8_13  and  C9_14
REMARK    5  A    between atoms: C9_14  and  C10_15
REMARK    6  A    between atoms: C10_15  and  N3_16
REMARK       I    between atoms: N3_16  and  C11_18
ROOT
HETATM    1  C2  UNL     1      23.675  -5.714   9.634  1.00  0.00     0.038 A
HETATM    2  C3  UNL     1      24.417  -6.882   9.705  1.00  0.00     0.017 A
HETATM    3  C4  UNL     1      24.030  -7.953  10.482  1.00  0.00     0.001 A
HETATM    4  C5  UNL     1      22.847  -7.846  11.223  1.00  0.00     0.003 A
HETATM    5  C6  UNL     1      22.091  -6.702  11.174  1.00  0.00     0.038 A
HETATM    6  C7  UNL     1      22.525  -5.669  10.383  1.00  0.00     0.082 A
ENDROOT
BRANCH   6   7
HETATM    7  O1  UNL     1      21.755  -4.524  10.342  1.00  0.00    -0.350 OA
BRANCH   7   8
HETATM    8  C8  UNL     1      21.694  -3.620  11.422  1.00  0.00     0.177 C
BRANCH   8   9
HETATM    9  C9  UNL     1      20.537  -2.686  11.375  1.00  0.00     0.046 C
BRANCH   9  10
HETATM   10  C10 UNL     1      19.575  -2.875  12.509  1.00  0.00     0.126 C
BRANCH  10  11
HETATM   11  N3  UNL     1      18.511  -1.907  12.536  1.00  0.00    -0.345 N
HETATM   12  C11 UNL     1      17.350  -1.982  11.743  1.00  0.00     0.328 C
HETATM   13  N4  UNL     1      16.343  -0.997  11.816  1.00  0.00    -0.040 NA
HETATM   14  O2  UNL     1      17.207  -2.943  10.958  1.00  0.00    -0.251 OA
ATOM     15  H3  UNL     1      18.604  -1.114  13.171  1.00  0.00     0.163 HD
ENDBRANCH  10  11
ENDBRANCH   9  10
ENDBRANCH   8   9
ENDBRANCH   7   8
ENDBRANCH   6   7
BRANCH   1  16
HETATM   16  C1  UNL     1      24.125  -4.623   8.807  1.00  0.00     0.123 C
HETATM   17  N1  UNL     1      24.193  -3.438   9.271  1.00  0.00    -0.387 N
ATOM     18  H12 UNL     1      24.512  -2.665   8.686  1.00  0.00     0.157 HD
ATOM     19  H11 UNL     1      23.929  -3.257  10.240  1.00  0.00     0.157 HD
HETATM   20  N2  UNL     1      24.490  -4.871   7.472  1.00  0.00    -0.082 NA
ENDBRANCH   1  16
TORSDOF 6
ENDMDL