MODEL 2
REMARK VINA RESULT: -7.050222716      1.163      1.709
REMARK  5 active torsions:
REMARK  status: ('A' for Active; 'I' for Inactive)
REMARK    1  A    between atoms: C3_8  and  C4_9
REMARK       I    between atoms: C4_9  and  N4_11
REMARK    2  A    between atoms: N4_11  and  C5_13
REMARK    3  A    between atoms: C5_13  and  C6_14
REMARK    4  A    between atoms: C6_14  and  N5_15
REMARK    5  A    between atoms: N5_15  and  C7_18
ROOT
HETATM    1  C4  UNL     1      20.754  -2.784  11.676  1.00  0.00     0.271 C
HETATM    2  O1  UNL     1      21.661  -2.037  12.103  1.00  0.00    -0.266 OA
HETATM    3  N4  UNL     1      20.914  -3.725  10.644  1.00  0.00    -0.354 N
ATOM      4  H4  UNL     1      20.113  -4.294  10.367  1.00  0.00     0.162 HD
ENDROOT
BRANCH   1   5
HETATM    5  C3  UNL     1      19.434  -2.652  12.310  1.00  0.00     0.141 A
HETATM    6  C1  UNL     1      18.220  -2.661  11.675  1.00  0.00     0.096 A
HETATM    7  N1  UNL     1      17.942  -2.802  10.263  1.00  0.00    -0.098 NA
HETATM    8  C2  UNL     1      17.257  -2.506  12.657  1.00  0.00     0.136 A
HETATM    9  N2  UNL     1      17.914  -2.414  13.819  1.00  0.00    -0.309 N
HETATM   10  N3  UNL     1      19.208  -2.498  13.634  1.00  0.00    -0.294 N
ATOM     11  H2  UNL     1      17.467  -2.293  14.727  1.00  0.00     0.186 HD
ATOM     12  H3  UNL     1      19.921  -2.455  14.362  1.00  0.00     0.187 HD
ENDBRANCH   1   5
BRANCH   3  13
HETATM   13  C5  UNL     1      22.167  -3.915   9.968  1.00  0.00     0.150 C
BRANCH  13  14
HETATM   14  C6  UNL     1      22.904  -5.098  10.539  1.00  0.00     0.252 C
BRANCH  14  15
HETATM   15  N5  UNL     1      22.226  -6.344  10.193  1.00  0.00    -0.069 N
ATOM     16  H52 UNL     1      21.215  -6.298  10.327  1.00  0.00     0.277 HD
ATOM     17  H51 UNL     1      22.220  -6.529   9.190  1.00  0.00     0.277 HD
BRANCH  15  18
HETATM   18  C7  UNL     1      22.846  -7.402  10.956  1.00  0.00     0.186 A
HETATM   19  C8  UNL     1      23.254  -8.623  10.130  1.00  0.00     0.035 A
HETATM   20  C9  UNL     1      24.280  -7.728  10.768  1.00  0.00     0.035 A
ENDBRANCH  15  18
ENDBRANCH  14  15
ENDBRANCH  13  14
ENDBRANCH   3  13
TORSDOF 5
ENDMDL