MODEL 4
REMARK VINA RESULT: -6.499151841      1.373      1.537
REMARK  6 active torsions:
REMARK  status: ('A' for Active; 'I' for Inactive)
REMARK    1  A    between atoms: C1_4  and  C2_6
REMARK    2  A    between atoms: C2_6  and  C3_7
REMARK    3  A    between atoms: C3_7  and  C4_8
REMARK    4  A    between atoms: C4_8  and  O1_9
REMARK    5  A    between atoms: O1_9  and  C5_10
REMARK    6  A    between atoms: C8_15  and  C9_16
ROOT
HETATM    1  C5  UNL     1      22.308  -5.456  10.686  1.00  0.00     0.100 A
HETATM    2  C6  UNL     1      23.353  -6.070  10.035  1.00  0.00     0.125 A
HETATM    3  N3  UNL     1      23.969  -5.083   9.336  1.00  0.00    -0.372 N
ATOM      4  H3  UNL     1      24.789  -5.212   8.743  1.00  0.00     0.164 HD
HETATM    5  C7  UNL     1      23.341  -3.908   9.539  1.00  0.00     0.107 A
HETATM    6  C8  UNL     1      22.262  -4.111  10.408  1.00  0.00     0.079 A
ENDROOT
BRANCH   1   7
HETATM    7  O1  UNL     1      21.419  -6.112  11.515  1.00  0.00    -0.349 OA
BRANCH   7   8
HETATM    8  C4  UNL     1      21.837  -6.785  12.683  1.00  0.00     0.176 C
BRANCH   8   9
HETATM    9  C3  UNL     1      20.660  -7.193  13.534  1.00  0.00     0.034 C
BRANCH   9  10
HETATM   10  C2  UNL     1      20.446  -6.095  14.559  1.00  0.00     0.074 C
BRANCH  10  11
HETATM   11  C1  UNL     1      19.328  -5.197  14.197  1.00  0.00     0.086 C
HETATM   12  N1  UNL     1      19.528  -4.204  13.409  1.00  0.00    -0.391 N
ATOM     13  H12 UNL     1      18.757  -3.585  13.160  1.00  0.00     0.157 HD
ATOM     14  H11 UNL     1      20.452  -4.015  13.021  1.00  0.00     0.157 HD
HETATM   15  N2  UNL     1      18.046  -5.459  14.736  1.00  0.00    -0.088 NA
ENDBRANCH  10  11
ENDBRANCH   9  10
ENDBRANCH   8   9
ENDBRANCH   7   8
ENDBRANCH   1   7
BRANCH   6  16
HETATM   16  C9  UNL     1      21.314  -3.109  10.893  1.00  0.00     0.269 C
HETATM   17  N4  UNL     1      21.641  -2.200  11.906  1.00  0.00    -0.057 NA
HETATM   18  O2  UNL     1      20.177  -3.091  10.362  1.00  0.00    -0.271 OA
ENDBRANCH   6  16
TORSDOF 6
ENDMDL