MODEL 2
REMARK VINA RESULT: -6.354004740      2.107      3.910
REMARK  5 active torsions:
REMARK  status: ('A' for Active; 'I' for Inactive)
REMARK       I    between atoms: C2_2  and  N1_4
REMARK    1  A    between atoms: N1_4  and  C3_6
REMARK    2  A    between atoms: C8_11  and  N2_12
REMARK    3  A    between atoms: N2_12  and  C9_14
REMARK    4  A    between atoms: C9_14  and  C10_15
REMARK    5  A    between atoms: C10_15  and  N3_16
ROOT
HETATM    1  C3  UNL     1      22.026  -4.574  10.551  1.00  0.00     0.061 A
HETATM    2  C4  UNL     1      22.824  -3.761   9.756  1.00  0.00     0.032 A
HETATM    3  C5  UNL     1      23.948  -4.278   9.121  1.00  0.00     0.002 A
HETATM    4  C6  UNL     1      24.281  -5.594   9.272  1.00  0.00     0.002 A
HETATM    5  C7  UNL     1      23.485  -6.391  10.061  1.00  0.00     0.031 A
HETATM    6  C8  UNL     1      22.361  -5.934  10.714  1.00  0.00     0.055 A
ENDROOT
BRANCH   6   7
HETATM    7  N2  UNL     1      21.606  -6.817  11.500  1.00  0.00    -0.387 N
ATOM      8  H2  UNL     1      20.857  -7.379  11.095  1.00  0.00     0.159 HD
BRANCH   7   9
HETATM    9  C9  UNL     1      21.932  -6.903  12.926  1.00  0.00     0.139 C
BRANCH   9  10
HETATM   10  C10 UNL     1      20.715  -7.261  13.743  1.00  0.00     0.139 C
BRANCH  10  11
HETATM   11  N3  UNL     1      19.997  -6.030  14.002  1.00  0.00    -0.386 N
HETATM   12  C11 UNL     1      19.994  -5.457  15.156  1.00  0.00     0.185 C
HETATM   13  N4  UNL     1      20.727  -6.067  16.208  1.00  0.00    -0.097 NA
ATOM     14  H3  UNL     1      19.472  -5.599  13.240  1.00  0.00     0.159 HD
ENDBRANCH  10  11
ENDBRANCH   9  10
ENDBRANCH   7   9
ENDBRANCH   6   7
BRANCH   1  15
HETATM   15  N1  UNL     1      20.885  -4.077  11.206  1.00  0.00    -0.326 N
HETATM   16  C2  UNL     1      20.731  -2.888  11.898  1.00  0.00     0.218 C
HETATM   17  C1  UNL     1      19.405  -2.526  12.543  1.00  0.00     0.117 C
HETATM   18  O1  UNL     1      21.604  -2.038  12.059  1.00  0.00    -0.274 OA
ATOM     19  H1  UNL     1      20.059  -4.674  11.165  1.00  0.00     0.169 HD
ENDBRANCH   1  15
TORSDOF 5
ENDMDL