MODEL 4
REMARK VINA RESULT: -6.386774261      1.433      2.864
REMARK  3 active torsions:
REMARK  status: ('A' for Active; 'I' for Inactive)
REMARK    1  A    between atoms: S1_3  and  C2_4
REMARK    2  A    between atoms: C2_4  and  C3_5
REMARK    3  A    between atoms: C4_7  and  O2_8
ROOT
HETATM    1  N1  UNL     1      23.222  27.458  -5.095  1.00  0.00    -0.184 NA
HETATM    2  C1  UNL     1      24.106  26.765  -5.379  1.00  0.00     0.134 C
HETATM    3  S1  UNL     1      25.469  25.719  -5.841  1.00  0.00    -0.044 SA
ENDROOT
BRANCH   3   4
HETATM    4  C2  UNL     1      24.990  24.811  -7.304  1.00  0.00     0.158 C
BRANCH   4   5
HETATM    5  C3  UNL     1      26.153  24.399  -8.136  1.00  0.00     0.100 A
HETATM    6  O1  UNL     1      27.393  24.792  -8.149  1.00  0.00    -0.288 OA
HETATM    7  C4  UNL     1      28.107  24.173  -9.052  1.00  0.00     0.192 A
HETATM    8  C5  UNL     1      27.290  23.280  -9.716  1.00  0.00     0.036 A
HETATM    9  C6  UNL     1      26.050  23.423  -9.130  1.00  0.00     0.110 A
HETATM   10  C9  UNL     1      27.442  22.292 -10.823  1.00  0.00     0.048 C
HETATM   11  O3  UNL     1      24.997  22.650  -9.574  1.00  0.00    -0.348 OA
HETATM   12  C7  UNL     1      25.143  21.494 -10.370  1.00  0.00     0.176 C
HETATM   13  C8  UNL     1      26.579  21.094 -10.520  1.00  0.00     0.031 C
BRANCH   7  14
HETATM   14  O2  UNL     1      29.450  24.334  -9.342  1.00  0.00    -0.340 OA
ATOM     15  H2  UNL     1      29.857  24.480 -10.187  1.00  0.00     0.220 HD
ENDBRANCH   7  14
ENDBRANCH   4   5
ENDBRANCH   3   4
TORSDOF 3
ENDMDL