MODEL 1
REMARK VINA RESULT: -6.739469797      0.000      0.000
REMARK  3 active torsions:
REMARK  status: ('A' for Active; 'I' for Inactive)
REMARK    1  A    between atoms: C3_3  and  N1_4
REMARK    2  A    between atoms: N1_4  and  O1_6
REMARK    3  A    between atoms: O1_6  and  N2_7
ROOT
HETATM    1  C1  UNL     1      24.721  23.228  -7.881  1.00  0.00     0.023 C
HETATM    2  C2  UNL     1      25.718  23.522  -8.537  1.00  0.00    -0.021 C
HETATM    3  C3  UNL     1      26.798  24.441  -8.265  1.00  0.00     0.044 C
HETATM    4  C4  UNL     1      28.082  24.385  -9.076  1.00  0.00     0.089 C
HETATM    5  C5  UNL     1      28.336  23.047  -9.660  1.00  0.00     0.024 C
HETATM    6  C6  UNL     1      29.408  22.299  -8.862  1.00  0.00     0.038 C
HETATM    7  C7  UNL     1      28.899  23.263 -11.071  1.00  0.00     0.038 C
HETATM    8  N3  UNL     1      27.214  22.184  -9.768  1.00  0.00    -0.405 N
ATOM      9  H3  UNL     1      27.303  21.169  -9.736  1.00  0.00     0.154 HD
HETATM   10  C8  UNL     1      25.959  22.830  -9.923  1.00  0.00     0.107 C
HETATM   11  C9  UNL     1      24.833  21.908 -10.214  1.00  0.00     0.037 C
ENDROOT
BRANCH   3  12
HETATM   12  N1  UNL     1      26.681  25.310  -7.353  1.00  0.00    -0.240 N
ATOM     13  H1  UNL     1      25.851  25.901  -7.341  1.00  0.00     0.196 HD
BRANCH  12  14
HETATM   14  O1  UNL     1      27.629  25.484  -6.382  1.00  0.00    -0.093 OA
BRANCH  14  15
HETATM   15  N2  UNL     1      27.970  26.740  -5.915  1.00  0.00     0.028 N
HETATM   16  O2  UNL     1      28.810  27.481  -6.441  1.00  0.00    -0.509 OA
HETATM   17  O3  UNL     1      27.314  27.155  -4.801  1.00  0.00    -0.509 OA
ENDBRANCH  14  15
ENDBRANCH  12  14
ENDBRANCH   3  12
TORSDOF 3
ENDMDL