MODEL 4
REMARK VINA RESULT: -4.686355610      4.165      5.473
REMARK  3 active torsions:
REMARK  status: ('A' for Active; 'I' for Inactive)
REMARK    1  A    between atoms: O1_2  and  N1_3
REMARK    2  A    between atoms: C2_5  and  N2_6
REMARK    3  A    between atoms: N2_6  and  C3_8
ROOT
HETATM    1  C3  UNL     1      23.986  24.884  -6.890  1.00  0.00     0.157 A
HETATM    2  N3  UNL     1      23.582  25.641  -5.881  1.00  0.00    -0.321 N
ATOM      3  H3  UNL     1      22.603  25.619  -5.596  1.00  0.00     0.169 HD
HETATM    4  C4  UNL     1      24.428  26.420  -5.244  1.00  0.00     0.151 A
HETATM    5  S1  UNL     1      24.044  27.420  -3.958  1.00  0.00    -0.052 SA
HETATM    6  S2  UNL     1      26.047  26.396  -5.784  1.00  0.00    -0.020 SA
HETATM    7  S3  UNL     1      25.645  24.995  -7.288  1.00  0.00    -0.014 SA
ENDROOT
BRANCH   1   8
HETATM    8  N2  UNL     1      23.217  24.060  -7.605  1.00  0.00    -0.331 N
ATOM      9  H2  UNL     1      22.214  24.238  -7.656  1.00  0.00     0.168 HD
BRANCH   8  10
HETATM   10  C2  UNL     1      23.747  22.958  -8.285  1.00  0.00     0.206 C
HETATM   11  N1  UNL     1      23.600  22.925  -9.580  1.00  0.00    -0.263 N
ATOM     12  H1  UNL     1      23.111  23.695 -10.036  1.00  0.00     0.195 HD
BRANCH  11  13
HETATM   13  O1  UNL     1      24.076  21.898 -10.355  1.00  0.00    -0.284 OA
HETATM   14  C1  UNL     1      25.440  21.647 -10.462  1.00  0.00     0.237 C
ENDBRANCH  11  13
ENDBRANCH   8  10
ENDBRANCH   1   8
TORSDOF 3
ENDMDL