MODEL 1
REMARK VINA RESULT: -6.322322105      0.000      0.000
REMARK  2 active torsions:
REMARK  status: ('A' for Active; 'I' for Inactive)
REMARK    1  A    between atoms: C2_2  and  C3_3
REMARK    2  A    between atoms: C4_4  and  C5_5
ROOT
HETATM    1  C3  UNL     1      28.237  23.115 -10.868  1.00  0.00    -0.039 C
HETATM    2  C4  UNL     1      27.024  22.889 -10.103  1.00  0.00     0.043 C
HETATM    3  C7  UNL     1      26.844  23.702  -9.041  1.00  0.00     0.065 C
HETATM    4  C8  UNL     1      25.617  23.568  -8.211  1.00  0.00     0.077 C
HETATM    5  O2  UNL     1      27.794  24.679  -8.649  1.00  0.00    -0.300 OA
HETATM    6  C9  UNL     1      28.950  24.785  -9.375  1.00  0.00     0.139 C
HETATM    7  N1  UNL     1      29.583  25.849  -9.520  1.00  0.00    -0.382 N
ATOM      8  H11 UNL     1      30.444  25.928 -10.060  1.00  0.00     0.158 HD
ATOM      9  H12 UNL     1      29.249  26.709  -9.087  1.00  0.00     0.158 HD
HETATM   10  C10 UNL     1      29.452  23.491 -10.026  1.00  0.00     0.197 C
HETATM   11  C11 UNL     1      29.724  22.497  -9.027  1.00  0.00     0.076 C
HETATM   12  N2  UNL     1      29.961  21.693  -8.229  1.00  0.00    -0.196 NA
ENDROOT
BRANCH   1  13
HETATM   13  C2  UNL     1      28.561  22.509 -12.152  1.00  0.00     0.032 C
HETATM   14  C1  UNL     1      29.341  23.451 -13.042  1.00  0.00     0.010 C
ENDBRANCH   1  13
BRANCH   2  15
HETATM   15  C5  UNL     1      26.013  21.860 -10.298  1.00  0.00     0.158 C
HETATM   16  C6  UNL     1      24.564  22.036 -10.524  1.00  0.00     0.097 C
HETATM   17  O1  UNL     1      26.312  20.599 -10.299  1.00  0.00    -0.293 OA
ENDBRANCH   2  15
TORSDOF 2
ENDMDL