MODEL 4
REMARK VINA RESULT: -5.252592218      3.323      6.380
REMARK  4 active torsions:
REMARK  status: ('A' for Active; 'I' for Inactive)
REMARK    1  A    between atoms: C2_2  and  C4_4
REMARK    2  A    between atoms: C4_4  and  S1_5
REMARK    3  A    between atoms: S1_5  and  C5_6
REMARK    4  A    between atoms: C6_9  and  O1_11
ROOT
HETATM    1  C5  UNL     1      25.942  23.259  -9.133  1.00  0.00     0.106 C
HETATM    2  N1  UNL     1      27.130  23.035  -9.378  1.00  0.00    -0.347 N
ATOM      3  H1  UNL     1      27.830  23.610  -8.908  1.00  0.00     0.163 HD
HETATM    4  C6  UNL     1      27.570  22.068 -10.240  1.00  0.00     0.137 C
HETATM    5  C7  UNL     1      28.153  22.584 -11.547  1.00  0.00     0.071 C
HETATM    6  C8  UNL     1      26.507  21.015 -10.500  1.00  0.00     0.141 C
HETATM    7  S2  UNL     1      25.030  22.068 -10.181  1.00  0.00    -0.101 SA
ENDROOT
BRANCH   1   8
HETATM    8  S1  UNL     1      25.079  24.399  -8.104  1.00  0.00    -0.105 SA
BRANCH   8   9
HETATM    9  C4  UNL     1      25.726  24.733  -6.503  1.00  0.00     0.085 C
BRANCH   9  10
HETATM   10  C2  UNL     1      25.857  26.152  -6.082  1.00  0.00    -0.013 C
HETATM   11  C1  UNL     1      27.226  26.578  -5.638  1.00  0.00     0.010 C
HETATM   12  C3  UNL     1      24.876  26.518  -4.976  1.00  0.00     0.010 C
ENDBRANCH   9  10
ENDBRANCH   8   9
ENDBRANCH   1   8
BRANCH   4  13
HETATM   13  O1  UNL     1      28.634  21.367  -9.616  1.00  0.00    -0.370 OA
ATOM     14  H1  UNL     1      28.391  20.451  -9.552  1.00  0.00     0.212 HD
ENDBRANCH   4  13
TORSDOF 4
ENDMDL