MODEL 4
REMARK VINA RESULT: -5.532379470      2.765      3.765
REMARK  3 active torsions:
REMARK  status: ('A' for Active; 'I' for Inactive)
REMARK    1  A    between atoms: C2_2  and  O1_3
REMARK    2  A    between atoms: O1_3  and  C3_4
REMARK    3  A    between atoms: C3_4  and  C4_6
ROOT
HETATM    1  C4  UNL     1      24.926  26.135  -5.874  1.00  0.00     0.120 A
HETATM    2  S1  UNL     1      24.161  24.895  -6.761  1.00  0.00    -0.051 SA
HETATM    3  C5  UNL     1      25.500  24.407  -7.695  1.00  0.00     0.144 A
HETATM    4  S2  UNL     1      25.594  23.211  -8.846  1.00  0.00    -0.052 SA
HETATM    5  N1  UNL     1      26.476  25.217  -7.285  1.00  0.00    -0.332 N
ATOM      6  H1  UNL     1      27.414  25.148  -7.682  1.00  0.00     0.168 HD
HETATM    7  C6  UNL     1      26.202  26.105  -6.357  1.00  0.00     0.138 A
HETATM    8  C7  UNL     1      27.208  27.043  -5.838  1.00  0.00     0.119 C
HETATM    9  N2  UNL     1      28.006  27.805  -5.435  1.00  0.00    -0.190 NA
ENDROOT
BRANCH   1  10
HETATM   10  C3  UNL     1      24.364  27.032  -4.833  1.00  0.00     0.303 C
HETATM   11  O2  UNL     1      23.454  27.838  -5.135  1.00  0.00    -0.259 OA
BRANCH  10  12
HETATM   12  O1  UNL     1      24.822  26.995  -3.550  1.00  0.00    -0.317 OA
BRANCH  12  13
HETATM   13  C2  UNL     1      24.719  28.050  -2.624  1.00  0.00     0.174 C
HETATM   14  C1  UNL     1      26.020  28.734  -2.354  1.00  0.00     0.034 C
ENDBRANCH  12  13
ENDBRANCH  10  12
ENDBRANCH   1  10
TORSDOF 3
ENDMDL