MODEL 5
REMARK VINA RESULT: -6.164184770      3.450      4.688
REMARK  3 active torsions:
REMARK  status: ('A' for Active; 'I' for Inactive)
REMARK    1  A    between atoms: C2_2  and  O1_4
REMARK    2  A    between atoms: O1_4  and  N1_5
REMARK    3  A    between atoms: N2_13  and  O2_15
ROOT
HETATM    1  N1  UNL     1      25.352  22.687  -9.451  1.00  0.00    -0.267 N
ATOM      2  H1  UNL     1      24.807  21.855  -9.676  1.00  0.00     0.194 HD
HETATM    3  C4  UNL     1      24.888  23.564  -8.629  1.00  0.00     0.085 C
HETATM    4  C5  UNL     1      25.550  24.824  -8.195  1.00  0.00     0.078 C
HETATM    5  C6  UNL     1      24.946  25.148  -6.867  1.00  0.00     0.006 C
HETATM    6  C7  UNL     1      25.575  24.260  -5.802  1.00  0.00     0.022 C
HETATM    7  C8  UNL     1      25.079  26.587  -6.489  1.00  0.00     0.022 C
HETATM    8  C9  UNL     1      23.536  24.710  -7.029  1.00  0.00     0.092 C
HETATM    9  N2  UNL     1      22.449  25.196  -6.532  1.00  0.00    -0.269 N
ATOM     10  H2  UNL     1      21.544  24.776  -6.742  1.00  0.00     0.194 HD
HETATM   11  C10 UNL     1      23.610  23.537  -7.926  1.00  0.00     0.221 C
HETATM   12  O3  UNL     1      22.695  22.677  -8.034  1.00  0.00    -0.284 OA
ENDROOT
BRANCH   1  13
HETATM   13  O1  UNL     1      26.567  22.879 -10.014  1.00  0.00    -0.276 OA
BRANCH  13  14
HETATM   14  C2  UNL     1      27.589  21.945 -10.126  1.00  0.00     0.144 C
HETATM   15  C1  UNL     1      28.849  22.494  -9.487  1.00  0.00     0.042 C
HETATM   16  C3  UNL     1      27.905  21.563 -11.563  1.00  0.00     0.042 C
ENDBRANCH  13  14
ENDBRANCH   1  13
BRANCH   9  17
HETATM   17  O2  UNL     1      22.546  26.297  -5.712  1.00  0.00    -0.290 OA
ATOM     18  H2  UNL     1      21.950  26.360  -4.975  1.00  0.00     0.244 HD
ENDBRANCH   9  17
TORSDOF 3
ENDMDL