MODEL 2
REMARK VINA RESULT: -4.855525199      4.651      5.594
REMARK  4 active torsions:
REMARK  status: ('A' for Active; 'I' for Inactive)
REMARK    1  A    between atoms: C2_2  and  C3_3
REMARK    2  A    between atoms: C4_6  and  S3_7
REMARK    3  A    between atoms: S3_7  and  N1_8
REMARK    4  A    between atoms: S3_7  and  N2_12
ROOT
HETATM    1  S3  UNL     1      23.580  22.933  -8.793  1.00  0.00     0.141 S
HETATM    2  O1  UNL     1      23.948  21.574  -8.280  1.00  0.00    -0.223 OA
ENDROOT
BRANCH   1   3
HETATM    3  C4  UNL     1      24.414  24.152  -7.840  1.00  0.00     0.122 A
HETATM    4  C3  UNL     1      25.678  24.668  -7.803  1.00  0.00     0.040 A
HETATM    5  S1  UNL     1      25.550  25.845  -6.583  1.00  0.00    -0.050 SA
HETATM    6  S2  UNL     1      23.705  25.103  -6.624  1.00  0.00    -0.039 SA
BRANCH   4   7
HETATM    7  C2  UNL     1      26.881  24.342  -8.605  1.00  0.00     0.011 C
HETATM    8  C1  UNL     1      28.026  24.960  -8.528  1.00  0.00     0.013 C
ENDBRANCH   4   7
ENDBRANCH   1   3
BRANCH   1   9
HETATM    9  N1  UNL     1      21.896  23.130  -8.847  1.00  0.00    -0.341 N
ATOM     10  H12 UNL     1      21.454  24.044  -8.742  1.00  0.00     0.167 HD
ATOM     11  H11 UNL     1      21.379  22.263  -8.992  1.00  0.00     0.167 HD
ENDBRANCH   1   9
BRANCH   1  12
HETATM   12  N2  UNL     1      24.106  22.932 -10.289  1.00  0.00    -0.336 N
HETATM   13  C5  UNL     1      25.053  21.880 -10.597  1.00  0.00     0.158 C
ATOM     14  H2  UNL     1      23.801  23.618 -10.979  1.00  0.00     0.170 HD
ENDBRANCH   1  12
TORSDOF 4
ENDMDL