MODEL 1
REMARK VINA RESULT: -7.005296417      0.000      0.000
REMARK  5 active torsions:
REMARK  status: ('A' for Active; 'I' for Inactive)
REMARK    1  A    between atoms: C2_2  and  O1_3
REMARK    2  A    between atoms: N1_5  and  O2_7
REMARK    3  A    between atoms: O2_7  and  C3_8
REMARK    4  A    between atoms: C3_8  and  C4_10
REMARK    5  A    between atoms: C4_10  and  C5_11
ROOT
HETATM    1  C5  UNL     1     -16.013  -4.274  25.406  1.00  0.00     0.167 C
HETATM    2  C6  UNL     1     -15.948  -5.737  25.694  1.00  0.00     0.038 C
HETATM    3  C7  UNL     1     -15.733  -6.016  27.185  1.00  0.00     0.044 C
HETATM    4  C8  UNL     1     -16.727  -5.254  28.033  1.00  0.00     0.096 C
HETATM    5  C9  UNL     1     -16.097  -4.591  29.216  1.00  0.00     0.041 C
HETATM    6  C10 UNL     1     -15.839  -5.490  30.372  1.00  0.00     0.003 C
HETATM    7  C11 UNL     1     -16.331  -6.887  30.209  1.00  0.00     0.000 C
HETATM    8  C12 UNL     1     -17.690  -6.972  29.594  1.00  0.00     0.003 C
HETATM    9  C13 UNL     1     -17.867  -6.156  28.361  1.00  0.00     0.041 C
HETATM   10  O3  UNL     1     -17.235  -4.222  27.210  1.00  0.00    -0.229 OA
HETATM   11  O4  UNL     1     -16.227  -3.600  26.595  1.00  0.00    -0.234 OA
ENDROOT
BRANCH   1  12
HETATM   12  C4  UNL     1     -14.731  -3.859  24.723  1.00  0.00     0.115 C
BRANCH  12  13
HETATM   13  C3  UNL     1     -14.251  -2.545  25.144  1.00  0.00     0.145 C
HETATM   14  S1  UNL     1     -14.934  -1.204  24.519  1.00  0.00    -0.055 SA
BRANCH  13  15
HETATM   15  O2  UNL     1     -13.224  -2.353  26.066  1.00  0.00    -0.229 OA
BRANCH  15  16
HETATM   16  N1  UNL     1     -13.213  -2.870  27.320  1.00  0.00    -0.242 N
HETATM   17  C2  UNL     1     -13.267  -2.200  28.402  1.00  0.00     0.131 C
HETATM   18  C1  UNL     1     -13.350  -0.725  28.395  1.00  0.00     0.099 C
ATOM     19  H1  UNL     1     -13.158  -3.885  27.404  1.00  0.00     0.196 HD
BRANCH  17  20
HETATM   20  O1  UNL     1     -13.247  -2.865  29.610  1.00  0.00    -0.348 OA
ATOM     21  H1  UNL     1     -13.515  -3.776  29.640  1.00  0.00     0.219 HD
ENDBRANCH  17  20
ENDBRANCH  15  16
ENDBRANCH  13  15
ENDBRANCH  12  13
ENDBRANCH   1  12
TORSDOF 5
ENDMDL