MODEL 5
REMARK VINA RESULT: -6.873345826      3.044      4.464
REMARK  5 active torsions:
REMARK  status: ('A' for Active; 'I' for Inactive)
REMARK    1  A    between atoms: C2_2  and  C4_4
REMARK    2  A    between atoms: C5_8  and  N2_9
REMARK       I    between atoms: N2_9  and  C6_11
REMARK    3  A    between atoms: C6_11  and  O2_13
REMARK    4  A    between atoms: O2_13  and  C7_14
REMARK    5  A    between atoms: C12_19  and  C13_20
ROOT
HETATM    1  C4  UNL     1     -15.571  -4.571  29.833  1.00  0.00     0.044 A
HETATM    2  S1  UNL     1     -14.534  -3.424  30.629  1.00  0.00    -0.012 SA
HETATM    3  N1  UNL     1     -14.376  -2.348  29.393  1.00  0.00    -0.311 N
ATOM      4  H1  UNL     1     -13.839  -1.482  29.399  1.00  0.00     0.176 HD
HETATM    5  C5  UNL     1     -15.096  -2.842  28.380  1.00  0.00     0.131 A
HETATM    6  C12 UNL     1     -15.739  -4.025  28.598  1.00  0.00     0.073 A
ENDROOT
BRANCH   5   7
HETATM    7  N2  UNL     1     -15.112  -2.065  27.154  1.00  0.00    -0.287 N
HETATM    8  C6  UNL     1     -14.035  -2.173  26.211  1.00  0.00     0.366 C
HETATM    9  O1  UNL     1     -13.083  -2.941  26.457  1.00  0.00    -0.238 OA
ATOM     10  H2  UNL     1     -15.893  -1.437  26.961  1.00  0.00     0.172 HD
BRANCH   8  11
HETATM   11  O2  UNL     1     -14.062  -1.445  25.069  1.00  0.00    -0.298 OA
BRANCH  11  12
HETATM   12  C7  UNL     1     -15.277  -0.977  24.465  1.00  0.00     0.133 C
HETATM   13  C8  UNL     1     -16.040  -2.100  23.810  1.00  0.00     0.032 C
HETATM   14  C9  UNL     1     -16.569  -1.548  22.504  1.00  0.00     0.002 C
HETATM   15  C10 UNL     1     -15.663  -0.395  22.140  1.00  0.00     0.002 C
HETATM   16  C11 UNL     1     -14.891  -0.017  23.365  1.00  0.00     0.032 C
ENDBRANCH  11  12
ENDBRANCH   8  11
ENDBRANCH   5   7
BRANCH   6  17
HETATM   17  C13 UNL     1     -16.561  -4.676  27.569  1.00  0.00     0.160 C
HETATM   18  C14 UNL     1     -16.291  -5.990  26.965  1.00  0.00     0.097 C
HETATM   19  O3  UNL     1     -17.585  -4.093  27.143  1.00  0.00    -0.293 OA
ENDBRANCH   6  17
BRANCH   1  20
HETATM   20  C2  UNL     1     -16.030  -5.773  30.530  1.00  0.00    -0.052 C
HETATM   21  C1  UNL     1     -17.233  -6.277  30.460  1.00  0.00     0.020 C
HETATM   22  C3  UNL     1     -15.047  -6.481  31.446  1.00  0.00     0.049 C
ENDBRANCH   1  20
TORSDOF 5
ENDMDL