MODEL 2
REMARK VINA RESULT: -8.430646938      2.409      5.835
REMARK  4 active torsions:
REMARK  status: ('A' for Active; 'I' for Inactive)
REMARK    1  A    between atoms: O1_2  and  C2_3
REMARK    2  A    between atoms: C6_9  and  O4_10
REMARK    3  A    between atoms: C11_16  and  O5_17
REMARK    4  A    between atoms: O5_17  and  C12_18
ROOT
HETATM    1  C2  UNL     1     -16.192  -4.300  26.089  1.00  0.00     0.089 A
HETATM    2  C3  UNL     1     -16.452  -3.836  24.811  1.00  0.00     0.120 A
HETATM    3  C4  UNL     1     -16.026  -2.565  24.492  1.00  0.00     0.291 A
HETATM    4  O2  UNL     1     -16.265  -2.143  23.318  1.00  0.00    -0.260 OA
HETATM    5  O3  UNL     1     -15.395  -1.827  25.382  1.00  0.00    -0.272 OA
HETATM    6  C5  UNL     1     -15.145  -2.264  26.599  1.00  0.00     0.129 A
HETATM    7  C6  UNL     1     -14.471  -1.419  27.490  1.00  0.00     0.107 A
HETATM    8  C7  UNL     1     -14.184  -1.822  28.778  1.00  0.00    -0.017 A
HETATM    9  C8  UNL     1     -13.461  -0.914  29.734  1.00  0.00     0.052 C
HETATM   10  C9  UNL     1     -14.586  -3.087  29.151  1.00  0.00    -0.018 A
HETATM   11  C10 UNL     1     -14.266  -3.499  30.551  1.00  0.00     0.052 C
HETATM   12  C11 UNL     1     -15.257  -3.950  28.293  1.00  0.00     0.097 A
HETATM   13  C16 UNL     1     -15.530  -3.524  27.015  1.00  0.00     0.069 A
ENDROOT
BRANCH  12  14
HETATM   14  O5  UNL     1     -15.632  -5.207  28.730  1.00  0.00    -0.321 OA
BRANCH  14  15
HETATM   15  C12 UNL     1     -16.819  -5.447  29.417  1.00  0.00     0.144 C
HETATM   16  C13 UNL     1     -16.875  -6.159  30.520  1.00  0.00    -0.065 C
HETATM   17  C14 UNL     1     -18.188  -6.355  31.175  1.00  0.00     0.045 C
HETATM   18  C15 UNL     1     -15.673  -6.775  31.134  1.00  0.00     0.045 C
ENDBRANCH  14  15
ENDBRANCH  12  14
BRANCH   1  19
HETATM   19  O1  UNL     1     -16.621  -5.574  26.412  1.00  0.00    -0.355 OA
HETATM   20  C1  UNL     1     -16.972  -6.519  25.449  1.00  0.00     0.210 C
ENDBRANCH   1  19
BRANCH   7  21
HETATM   21  O4  UNL     1     -14.079  -0.147  27.076  1.00  0.00    -0.357 OA
ATOM     22  H4  UNL     1     -13.666   0.444  27.694  1.00  0.00     0.217 HD
ENDBRANCH   7  21
TORSDOF 4
ENDMDL