MODEL 5
REMARK VINA RESULT: -5.875327159      2.989      6.568
REMARK  7 active torsions:
REMARK  status: ('A' for Active; 'I' for Inactive)
REMARK    1  A    between atoms: C2_2  and  N1_3
REMARK    2  A    between atoms: C3_4  and  O1_5
REMARK    3  A    between atoms: C5_9  and  N2_10
REMARK    4  A    between atoms: N2_10  and  N3_12
REMARK    5  A    between atoms: C6_14  and  C7_15
REMARK    6  A    between atoms: C7_15  and  C8_16
REMARK    7  A    between atoms: C7_15  and  C11_19
ROOT
HETATM    1  N2  UNL     1     -16.205  -5.333  28.697  1.00  0.00    -0.280 N
ATOM      2  H2  UNL     1     -15.647  -5.544  29.525  1.00  0.00     0.189 HD
ENDROOT
BRANCH   1   3
HETATM    3  C5  UNL     1     -17.009  -6.235  28.171  1.00  0.00     0.167 A
HETATM    4  N1  UNL     1     -17.670  -7.201  28.804  1.00  0.00    -0.307 N
HETATM    5  C3  UNL     1     -18.425  -8.004  28.107  1.00  0.00     0.150 A
HETATM    6  C4  UNL     1     -18.491  -7.803  26.752  1.00  0.00     0.109 A
HETATM    7  S1  UNL     1     -17.458  -6.460  26.544  1.00  0.00    -0.060 SA
BRANCH   4   8
HETATM    8  C2  UNL     1     -17.529  -7.332  30.278  1.00  0.00     0.129 C
HETATM    9  C1  UNL     1     -18.651  -6.618  30.981  1.00  0.00     0.027 C
ENDBRANCH   4   8
BRANCH   5  10
HETATM   10  O1  UNL     1     -19.184  -9.077  28.665  1.00  0.00    -0.346 OA
ATOM     11  H1  UNL     1     -19.113  -9.982  28.386  1.00  0.00     0.219 HD
ENDBRANCH   5  10
ENDBRANCH   1   3
BRANCH   1  12
HETATM   12  N3  UNL     1     -16.145  -4.099  28.096  1.00  0.00    -0.313 N
HETATM   13  C6  UNL     1     -15.115  -3.723  27.449  1.00  0.00     0.086 C
ATOM     14  H3  UNL     1     -16.944  -3.469  28.170  1.00  0.00     0.185 HD
BRANCH  13  15
HETATM   15  C7  UNL     1     -15.072  -2.362  26.798  1.00  0.00     0.036 C
BRANCH  15  16
HETATM   16  C8  UNL     1     -13.759  -1.760  27.159  1.00  0.00    -0.013 C
HETATM   17  C9  UNL     1     -13.105  -2.713  28.170  1.00  0.00     0.010 C
HETATM   18  C10 UNL     1     -13.810  -0.419  27.795  1.00  0.00     0.010 C
ENDBRANCH  15  16
BRANCH  15  19
HETATM   19  C11 UNL     1     -15.327  -2.572  25.349  1.00  0.00    -0.043 C
HETATM   20  C12 UNL     1     -14.876  -1.415  24.488  1.00  0.00     0.015 C
HETATM   21  C13 UNL     1     -14.414  -3.744  24.935  1.00  0.00     0.015 C
HETATM   22  C14 UNL     1     -16.724  -3.036  25.021  1.00  0.00     0.015 C
ENDBRANCH  15  19
ENDBRANCH  13  15
ENDBRANCH   1  12
TORSDOF 7
ENDMDL