MODEL 1
REMARK VINA RESULT: -8.321817905      0.000      0.000
REMARK  3 active torsions:
REMARK  status: ('A' for Active; 'I' for Inactive)
REMARK    1  A    between atoms: S1_2  and  O4_5
REMARK    2  A    between atoms: O4_5  and  C1_6
REMARK    3  A    between atoms: C5_10  and  C6_11
ROOT
HETATM    1  C1  UNL     1     -15.887  -3.372  25.857  1.00  0.00     0.258 C
HETATM    2  C2  UNL     1     -14.878  -3.656  26.959  1.00  0.00     0.056 C
HETATM    3  C3  UNL     1     -15.542  -3.434  28.281  1.00  0.00     0.007 C
HETATM    4  C4  UNL     1     -16.090  -4.705  28.882  1.00  0.00     0.031 C
HETATM    5  C5  UNL     1     -16.632  -5.621  27.785  1.00  0.00     0.127 C
HETATM    6  N1  UNL     1     -17.493  -4.831  26.979  1.00  0.00    -0.330 N
ATOM      7  H1  UNL     1     -18.490  -5.035  27.047  1.00  0.00     0.180 HD
HETATM    8  N2  UNL     1     -17.172  -3.929  26.208  1.00  0.00    -0.310 N
ATOM      9  H2  UNL     1     -17.960  -3.493  25.727  1.00  0.00     0.182 HD
ENDROOT
BRANCH   5  10
HETATM   10  C6  UNL     1     -17.382  -6.735  28.457  1.00  0.00    -0.060 C
HETATM   11  C7  UNL     1     -18.288  -7.394  27.737  1.00  0.00    -0.022 C
HETATM   12  C8  UNL     1     -19.174  -8.525  28.118  1.00  0.00     0.027 C
HETATM   13  C9  UNL     1     -19.155  -8.787  29.608  1.00  0.00     0.004 C
HETATM   14  C10 UNL     1     -19.436  -7.574  30.428  1.00  0.00     0.001 C
HETATM   15  C11 UNL     1     -18.237  -6.745  30.749  1.00  0.00     0.004 C
HETATM   16  C12 UNL     1     -17.049  -7.013  29.881  1.00  0.00     0.036 C
ENDBRANCH   5  10
BRANCH   1  17
HETATM   17  O4  UNL     1     -16.040  -2.016  25.716  1.00  0.00    -0.230 OA
BRANCH  17  18
HETATM   18  S1  UNL     1     -14.803  -1.260  24.924  1.00  0.00     0.253 S
HETATM   19  O1  UNL     1     -15.266  -0.286  23.880  1.00  0.00    -0.572 OA
HETATM   20  O2  UNL     1     -14.009  -2.327  24.183  1.00  0.00    -0.572 OA
HETATM   21  O3  UNL     1     -13.734  -0.471  25.929  1.00  0.00    -0.572 OA
ENDBRANCH  17  18
ENDBRANCH   1  17
TORSDOF 3
ENDMDL