MODEL 3
REMARK VINA RESULT: -7.797058606      3.002      5.487
REMARK  4 active torsions:
REMARK  status: ('A' for Active; 'I' for Inactive)
REMARK    1  A    between atoms: C2_2  and  C4_10
REMARK    2  A    between atoms: N1_3  and  O1_5
REMARK    3  A    between atoms: O1_5  and  C3_6
REMARK    4  A    between atoms: C5_12  and  C6_13
ROOT
HETATM    1  C4  UNL     1     -15.338  -3.408  27.130  1.00  0.00     0.112 A
HETATM    2  O2  UNL     1     -16.151  -4.438  26.901  1.00  0.00    -0.306 OA
HETATM    3  C5  UNL     1     -16.440  -5.066  27.970  1.00  0.00     0.098 A
HETATM    4  C11 UNL     1     -15.764  -4.407  29.003  1.00  0.00     0.052 A
HETATM    5  S1  UNL     1     -15.395  -4.361  30.663  1.00  0.00    -0.098 SA
HETATM    6  C12 UNL     1     -14.350  -3.007  30.694  1.00  0.00     0.051 A
HETATM    7  C13 UNL     1     -14.320  -2.627  29.376  1.00  0.00     0.023 A
HETATM    8  C14 UNL     1     -15.049  -3.345  28.506  1.00  0.00     0.020 A
ENDROOT
BRANCH   1   9
HETATM    9  C2  UNL     1     -14.907  -2.549  26.060  1.00  0.00     0.063 C
HETATM   10  C1  UNL     1     -13.494  -2.507  25.622  1.00  0.00     0.073 C
HETATM   11  N1  UNL     1     -15.716  -1.717  25.466  1.00  0.00    -0.262 N
ATOM     12  H1  UNL     1     -16.707  -1.686  25.706  1.00  0.00     0.194 HD
BRANCH  11  13
HETATM   13  O1  UNL     1     -15.196  -0.888  24.513  1.00  0.00    -0.234 OA
BRANCH  13  14
HETATM   14  C3  UNL     1     -15.621  -0.892  23.173  1.00  0.00     0.252 C
HETATM   15  N2  UNL     1     -14.532  -0.654  22.391  1.00  0.00    -0.388 N
ATOM     16  H22 UNL     1     -13.582  -0.503  22.732  1.00  0.00     0.157 HD
ATOM     17  H21 UNL     1     -14.840  -0.657  21.419  1.00  0.00     0.157 HD
ENDBRANCH  13  14
ENDBRANCH  11  13
ENDBRANCH   1   9
BRANCH   3  18
HETATM   18  C6  UNL     1     -17.287  -6.227  28.251  1.00  0.00    -0.019 C
HETATM   19  C7  UNL     1     -17.829  -6.969  27.084  1.00  0.00     0.040 C
HETATM   20  C8  UNL     1     -19.074  -7.728  27.470  1.00  0.00     0.032 C
HETATM   21  C9  UNL     1     -19.195  -7.869  28.950  1.00  0.00     0.233 C
HETATM   22  N3  UNL     1     -17.952  -8.110  29.628  1.00  0.00    -0.071 N
HETATM   23  C10 UNL     1     -16.966  -7.043  29.443  1.00  0.00     0.269 C
ATOM     24  H32 UNL     1     -18.111  -8.285  30.621  1.00  0.00     0.277 HD
ATOM     25  H31 UNL     1     -17.562  -9.013  29.356  1.00  0.00     0.277 HD
ENDBRANCH   3  18
TORSDOF 4
ENDMDL