MODEL 3
REMARK VINA RESULT: -5.520240479      1.979      4.911
REMARK  6 active torsions:
REMARK  status: ('A' for Active; 'I' for Inactive)
REMARK    1  A    between atoms: C2_2  and  S1_3
REMARK    2  A    between atoms: S1_3  and  C3_4
REMARK    3  A    between atoms: C3_4  and  N1_6
REMARK    4  A    between atoms: N1_6  and  C4_8
REMARK    5  A    between atoms: C5_9  and  C6_10
REMARK    6  A    between atoms: C6_10  and  O2_12
ROOT
HETATM    1  C4  UNL     1     -16.282  -3.859  27.774  1.00  0.00     0.064 A
HETATM    2  C5  UNL     1     -15.728  -2.876  26.991  1.00  0.00     0.107 A
HETATM    3  S3  UNL     1     -14.495  -2.219  27.968  1.00  0.00    -0.086 SA
HETATM    4  C8  UNL     1     -14.701  -3.194  29.345  1.00  0.00    -0.012 A
HETATM    5  C9  UNL     1     -13.932  -3.171  30.644  1.00  0.00     0.057 C
HETATM    6  C10 UNL     1     -15.734  -4.017  29.011  1.00  0.00    -0.021 A
HETATM    7  C11 UNL     1     -16.231  -5.064  30.006  1.00  0.00     0.052 C
ENDROOT
BRANCH   1   8
HETATM    8  N1  UNL     1     -17.395  -4.657  27.255  1.00  0.00    -0.340 N
ATOM      9  H1  UNL     1     -18.322  -4.240  27.172  1.00  0.00     0.167 HD
BRANCH   8  10
HETATM   10  C3  UNL     1     -17.195  -5.999  26.868  1.00  0.00     0.139 C
HETATM   11  S2  UNL     1     -15.825  -6.374  26.025  1.00  0.00    -0.053 SA
BRANCH  10  12
HETATM   12  S1  UNL     1     -18.311  -7.312  27.222  1.00  0.00    -0.101 SA
BRANCH  12  13
HETATM   13  C2  UNL     1     -18.286  -7.891  28.909  1.00  0.00     0.077 C
HETATM   14  C1  UNL     1     -19.058  -9.155  29.151  1.00  0.00     0.016 C
ENDBRANCH  12  13
ENDBRANCH  10  12
ENDBRANCH   8  10
ENDBRANCH   1   8
BRANCH   2  15
HETATM   15  C6  UNL     1     -16.127  -2.491  25.614  1.00  0.00     0.302 C
HETATM   16  O1  UNL     1     -15.515  -1.588  25.042  1.00  0.00    -0.259 OA
BRANCH  15  17
HETATM   17  O2  UNL     1     -17.167  -3.140  24.991  1.00  0.00    -0.322 OA
HETATM   18  C7  UNL     1     -17.146  -3.520  23.625  1.00  0.00     0.213 C
ENDBRANCH  15  17
ENDBRANCH   2  15
TORSDOF 6
ENDMDL