MODEL 4
REMARK VINA RESULT: -6.212969298      2.111      4.660
REMARK  5 active torsions:
REMARK  status: ('A' for Active; 'I' for Inactive)
REMARK    1  A    between atoms: C2_2  and  C4_4
REMARK    2  A    between atoms: C5_7  and  C6_8
REMARK    3  A    between atoms: C6_8  and  N2_9
REMARK       I    between atoms: N2_9  and  C7_10
REMARK    4  A    between atoms: N2_9  and  C12_18
REMARK       I    between atoms: C7_10  and  N3_12
REMARK    5  A    between atoms: N3_12  and  C8_14
ROOT
HETATM    1  N2  UNL     1     -15.062  -2.405  25.102  1.00  0.00    -0.319 N
HETATM    2  C7  UNL     1     -15.618  -1.579  24.067  1.00  0.00     0.320 C
HETATM    3  O1  UNL     1     -15.435  -0.340  24.140  1.00  0.00    -0.247 OA
HETATM    4  N3  UNL     1     -16.362  -2.082  22.969  1.00  0.00    -0.335 N
ATOM      5  H3  UNL     1     -16.523  -3.086  22.890  1.00  0.00     0.165 HD
ENDROOT
BRANCH   1   6
HETATM    6  C6  UNL     1     -15.269  -3.806  24.995  1.00  0.00     0.206 C
BRANCH   6   7
HETATM    7  C5  UNL     1     -16.137  -4.403  26.023  1.00  0.00     0.122 A
HETATM    8  N1  UNL     1     -15.660  -5.237  26.965  1.00  0.00    -0.325 N
HETATM    9  C4  UNL     1     -16.673  -5.621  27.757  1.00  0.00     0.151 A
ATOM     10  H1  UNL     1     -14.687  -5.529  27.062  1.00  0.00     0.169 HD
HETATM   11  O2  UNL     1     -17.738  -5.034  27.308  1.00  0.00    -0.222 OA
HETATM   12  N4  UNL     1     -17.450  -4.293  26.266  1.00  0.00    -0.245 N
ATOM     13  H4  UNL     1     -18.112  -3.730  25.732  1.00  0.00     0.196 HD
BRANCH   9  14
HETATM   14  C2  UNL     1     -16.551  -6.535  28.905  1.00  0.00     0.055 C
HETATM   15  C1  UNL     1     -17.807  -7.386  29.040  1.00  0.00     0.018 C
HETATM   16  C3  UNL     1     -16.338  -5.783  30.208  1.00  0.00     0.018 C
ENDBRANCH   9  14
ENDBRANCH   6   7
ENDBRANCH   1   6
BRANCH   1  17
HETATM   17  C12 UNL     1     -14.326  -1.832  26.187  1.00  0.00     0.026 C
HETATM   18  C13 UNL     1     -13.654  -0.506  25.813  1.00  0.00     0.037 C
HETATM   19  C14 UNL     1     -15.235  -1.634  27.381  1.00  0.00     0.037 C
HETATM   20  C15 UNL     1     -13.187  -2.740  26.646  1.00  0.00     0.037 C
ENDBRANCH   1  17
BRANCH   4  21
HETATM   21  C8  UNL     1     -16.900  -1.189  21.950  1.00  0.00     0.023 C
HETATM   22  C9  UNL     1     -15.726  -0.499  21.289  1.00  0.00     0.037 C
HETATM   23  C10 UNL     1     -17.865  -0.193  22.548  1.00  0.00     0.037 C
HETATM   24  C11 UNL     1     -17.657  -2.008  20.938  1.00  0.00     0.037 C
ENDBRANCH   4  21
TORSDOF 5
ENDMDL