MODEL 4
REMARK VINA RESULT: -4.935755367      2.665      4.077
REMARK  3 active torsions:
REMARK  status: ('A' for Active; 'I' for Inactive)
REMARK    1  A    between atoms: C3_5  and  S1_6
REMARK    2  A    between atoms: S1_6  and  C4_7
REMARK    3  A    between atoms: C9_13  and  C11_16
ROOT
HETATM    1  C1  UNL     1     -15.814   4.039  24.927  1.00  0.00     0.146 C
HETATM    2  N1  UNL     1     -14.754   3.263  25.505  1.00  0.00    -0.395 N
ATOM      3  H1  UNL     1     -14.930   2.770  26.380  1.00  0.00     0.159 HD
HETATM    4  C2  UNL     1     -13.611   3.165  24.974  1.00  0.00     0.043 C
HETATM    5  C3  UNL     1     -12.466   2.389  25.501  1.00  0.00     0.043 C
HETATM    6  C7  UNL     1     -11.392   2.793  24.907  1.00  0.00     0.066 C
HETATM    7  C8  UNL     1     -10.027   2.312  25.106  1.00  0.00     0.098 C
HETATM    8  N2  UNL     1      -8.940   1.940  25.228  1.00  0.00    -0.192 NA
HETATM    9  C9  UNL     1     -11.681   3.868  23.925  1.00  0.00     0.120 C
HETATM   10  C10 UNL     1     -10.997   3.577  22.663  1.00  0.00     0.077 C
HETATM   11  N3  UNL     1     -10.451   3.334  21.669  1.00  0.00    -0.196 NA
HETATM   12  C13 UNL     1     -13.158   3.796  23.718  1.00  0.00     0.172 C
HETATM   13  C14 UNL     1     -13.549   2.933  22.611  1.00  0.00     0.072 C
HETATM   14  N5  UNL     1     -13.852   2.228  21.734  1.00  0.00    -0.196 NA
ENDROOT
BRANCH   5  15
HETATM   15  S1  UNL     1     -12.725   1.129  26.712  1.00  0.00    -0.123 SA
BRANCH  15  16
HETATM   16  C4  UNL     1     -11.811   1.236  28.217  1.00  0.00     0.044 C
HETATM   17  C5  UNL     1     -12.013   2.601  28.889  1.00  0.00     0.021 C
HETATM   18  C6  UNL     1     -12.413   0.236  29.223  1.00  0.00     0.021 C
ENDBRANCH  15  16
ENDBRANCH   5  15
BRANCH   9  19
HETATM   19  C11 UNL     1     -11.208   5.228  24.402  1.00  0.00     0.156 C
HETATM   20  C12 UNL     1     -11.731   6.215  23.458  1.00  0.00     0.061 C
HETATM   21  N4  UNL     1     -12.157   6.987  22.698  1.00  0.00    -0.197 NA
ENDBRANCH   9  19
TORSDOF 3
ENDMDL