MODEL 5
REMARK VINA RESULT: -4.495547735      3.839      6.563
REMARK  4 active torsions:
REMARK  status: ('A' for Active; 'I' for Inactive)
REMARK    1  A    between atoms: C2_2  and  C3_3
REMARK    2  A    between atoms: C4_4  and  C5_5
REMARK    3  A    between atoms: C10_11  and  C11_12
REMARK    4  A    between atoms: N1_13  and  N2_15
ROOT
HETATM    1  C1  UNL     1       0.451 120.619 -13.454  1.00  0.00     0.048 C
HETATM    2  C2  UNL     1       0.152 121.347 -12.220  1.00  0.00    -0.061 C
HETATM    3  C10 UNL     1       0.066 120.786 -11.042  1.00  0.00     0.025 C
ENDROOT
BRANCH   2   4
HETATM    4  C3  UNL     1      -0.067 122.794 -12.297  1.00  0.00     0.005 C
HETATM    5  C4  UNL     1       0.752 123.680 -11.818  1.00  0.00     0.005 C
BRANCH   5   6
HETATM    6  C5  UNL     1       0.368 125.131 -11.986  1.00  0.00     0.144 C
HETATM    7  C6  UNL     1      -1.092 125.236 -12.358  1.00  0.00     0.036 C
HETATM    8  C7  UNL     1      -1.435 126.721 -12.369  1.00  0.00     0.005 C
HETATM    9  C8  UNL     1      -1.315 127.196 -10.934  1.00  0.00     0.026 C
HETATM   10  C9  UNL     1      -0.383 126.311 -10.137  1.00  0.00     0.168 C
HETATM   11  O1  UNL     1       0.690 125.861 -10.868  1.00  0.00    -0.382 OA
ENDBRANCH   5   6
ENDBRANCH   2   4
BRANCH   3  12
HETATM   12  C11 UNL     1       0.222 119.431 -10.641  1.00  0.00     0.107 C
HETATM   13  N1  UNL     1       1.190 118.784 -10.155  1.00  0.00    -0.318 N
ATOM     14  H1  UNL     1       2.079 119.257  -9.985  1.00  0.00     0.185 HD
BRANCH  13  15
HETATM   15  N2  UNL     1       1.054 117.402  -9.843  1.00  0.00    -0.345 N
ATOM     16  H22 UNL     1       0.467 117.133  -9.053  1.00  0.00     0.176 HD
ATOM     17  H21 UNL     1       1.535 116.695 -10.398  1.00  0.00     0.176 HD
ENDBRANCH  13  15
ENDBRANCH   3  12
TORSDOF 4
ENDMDL