MODEL 2
REMARK VINA RESULT: -4.737948341      0.725      1.491
REMARK  3 active torsions:
REMARK  status: ('A' for Active; 'I' for Inactive)
REMARK    1  A    between atoms: C2_2  and  C3_3
REMARK    2  A    between atoms: C3_3  and  N1_4
REMARK       I    between atoms: N1_4  and  C4_6
REMARK    3  A    between atoms: C4_6  and  C5_8
ROOT
HETATM    1  C5  UNL     1      -0.190 124.219 -10.926  1.00  0.00     0.045 C
HETATM    2  C6  UNL     1       1.032 123.706 -11.686  1.00  0.00     0.024 C
HETATM    3  C7  UNL     1       0.476 122.497 -12.380  1.00  0.00    -0.013 C
HETATM    4  C8  UNL     1      -0.051 121.559 -11.324  1.00  0.00     0.010 C
HETATM    5  C9  UNL     1      -1.154 122.389 -10.688  1.00  0.00    -0.008 C
HETATM    6  C10 UNL     1      -0.503 123.357  -9.693  1.00  0.00     0.024 C
HETATM    7  C11 UNL     1      -1.370 123.581 -11.580  1.00  0.00     0.008 C
HETATM    8  C12 UNL     1      -0.844 123.070 -12.921  1.00  0.00     0.011 C
ENDROOT
BRANCH   1   9
HETATM    9  C4  UNL     1      -0.233 125.648 -10.669  1.00  0.00     0.227 C
HETATM   10  N1  UNL     1      -1.457 126.354 -10.694  1.00  0.00    -0.357 N
ATOM     11  H1  UNL     1      -2.319 125.848 -10.897  1.00  0.00     0.162 HD
HETATM   12  O1  UNL     1       0.837 126.259 -10.421  1.00  0.00    -0.273 OA
BRANCH  10  13
HETATM   13  C3  UNL     1      -1.515 127.787 -10.439  1.00  0.00     0.149 C
BRANCH  13  14
HETATM   14  C2  UNL     1      -2.109 128.475 -11.591  1.00  0.00    -0.018 C
HETATM   15  C1  UNL     1      -2.137 127.881 -12.774  1.00  0.00     0.008 C
ENDBRANCH  13  14
ENDBRANCH  10  13
ENDBRANCH   1   9
TORSDOF 3
ENDMDL