MODEL 3
REMARK VINA RESULT: -4.678357849      4.182      4.960
REMARK  3 active torsions:
REMARK  status: ('A' for Active; 'I' for Inactive)
REMARK    1  A    between atoms: C1_2  and  C2_4
REMARK    2  A    between atoms: C3_5  and  C4_6
REMARK    3  A    between atoms: C5_7  and  C6_8
ROOT
HETATM    1  C6  UNL     1      -0.109 121.436 -11.379  1.00  0.00     0.017 C
HETATM    2  C7  UNL     1      -1.248 122.474 -11.234  1.00  0.00    -0.002 C
HETATM    3  C8  UNL     1      -0.743 123.597 -10.348  1.00  0.00     0.010 C
HETATM    4  C9  UNL     1       0.094 124.389 -11.332  1.00  0.00    -0.013 C
HETATM    5  C10 UNL     1       1.192 123.504 -11.838  1.00  0.00     0.010 C
HETATM    6  C11 UNL     1       0.415 122.355 -12.466  1.00  0.00    -0.002 C
HETATM    7  C12 UNL     1      -0.973 122.859 -12.649  1.00  0.00    -0.005 C
HETATM    8  C13 UNL     1      -0.858 124.381 -12.540  1.00  0.00     0.010 C
ENDROOT
BRANCH   1   9
HETATM    9  C5  UNL     1      -0.596 120.138 -11.839  1.00  0.00    -0.021 C
HETATM   10  C4  UNL     1      -0.325 119.021 -11.251  1.00  0.00    -0.003 C
BRANCH  10  11
HETATM   11  C3  UNL     1       0.489 118.922 -10.074  1.00  0.00     0.007 C
HETATM   12  C2  UNL     1       1.252 117.848  -9.835  1.00  0.00     0.084 C
BRANCH  12  13
HETATM   13  C1  UNL     1       2.059 117.773  -8.651  1.00  0.00     0.198 C
HETATM   14  O1  UNL     1       1.512 117.735  -7.519  1.00  0.00    -0.645 OA
HETATM   15  O2  UNL     1       3.446 117.738  -8.675  1.00  0.00    -0.645 OA
ENDBRANCH  12  13
ENDBRANCH  10  11
ENDBRANCH   1   9
TORSDOF 3
ENDMDL