MODEL 4
REMARK VINA RESULT: -4.586046159      1.497      1.917
REMARK  3 active torsions:
REMARK  status: ('A' for Active; 'I' for Inactive)
REMARK    1  A    between atoms: C2_2  and  C3_3
REMARK    2  A    between atoms: C3_3  and  N1_4
REMARK       I    between atoms: N1_4  and  C4_6
REMARK    3  A    between atoms: C4_6  and  C5_8
ROOT
HETATM    1  C5  UNL     1      -0.685 125.167 -11.337  1.00  0.00     0.042 C
HETATM    2  C6  UNL     1      -1.340 124.482 -12.490  1.00  0.00     0.024 C
HETATM    3  C7  UNL     1      -0.423 123.266 -12.672  1.00  0.00    -0.009 C
HETATM    4  C8  UNL     1      -0.774 122.252 -11.577  1.00  0.00     0.010 C
HETATM    5  C9  UNL     1       0.154 123.075 -10.671  1.00  0.00    -0.009 C
HETATM    6  C10 UNL     1      -0.654 124.254 -10.118  1.00  0.00     0.024 C
HETATM    7  C11 UNL     1       0.833 123.556 -11.909  1.00  0.00    -0.005 C
HETATM    8  C12 UNL     1       0.793 125.077 -11.755  1.00  0.00     0.024 C
ENDROOT
BRANCH   1   9
HETATM    9  C4  UNL     1      -1.133 126.517 -11.072  1.00  0.00     0.226 C
HETATM   10  N1  UNL     1      -1.539 127.008  -9.820  1.00  0.00    -0.357 N
ATOM     11  H1  UNL     1      -1.526 126.378  -9.018  1.00  0.00     0.162 HD
HETATM   12  O1  UNL     1      -1.161 127.333 -12.054  1.00  0.00    -0.273 OA
BRANCH  10  13
HETATM   13  C3  UNL     1      -1.975 128.374  -9.625  1.00  0.00     0.149 C
BRANCH  13  14
HETATM   14  C2  UNL     1      -2.746 128.509  -8.385  1.00  0.00    -0.018 C
HETATM   15  C1  UNL     1      -2.251 129.114  -7.338  1.00  0.00     0.008 C
ENDBRANCH  13  14
ENDBRANCH  10  13
ENDBRANCH   1   9
TORSDOF 3
ENDMDL