MODEL 4
REMARK VINA RESULT: -4.167626585      2.962      5.633
REMARK  3 active torsions:
REMARK  status: ('A' for Active; 'I' for Inactive)
REMARK    1  A    between atoms: C2_2  and  C3_3
REMARK       I    between atoms: C3_3  and  N1_5
REMARK    2  A    between atoms: N1_5  and  C4_7
REMARK    3  A    between atoms: C4_7  and  C5_8
ROOT
HETATM    1  C5  UNL     1       0.380 123.881 -11.331  1.00  0.00     0.241 C
HETATM    2  C6  UNL     1      -0.759 124.591 -12.007  1.00  0.00     0.040 C
HETATM    3  C7  UNL     1      -1.455 123.432 -12.730  1.00  0.00     0.038 C
HETATM    4  C8  UNL     1      -0.316 122.528 -13.039  1.00  0.00     0.223 C
HETATM    5  C9  UNL     1      -0.690 121.080 -13.172  1.00  0.00     0.037 C
HETATM    6  C10 UNL     1      -0.106 120.361 -11.975  1.00  0.00     0.032 C
HETATM    7  C11 UNL     1       0.116 121.509 -10.995  1.00  0.00     0.273 C
HETATM    8  N2  UNL     1       0.492 122.575 -11.859  1.00  0.00     0.099 N
ENDROOT
BRANCH   1   9
HETATM    9  C4  UNL     1       0.225 123.969  -9.851  1.00  0.00     0.158 C
BRANCH   9  10
HETATM   10  N1  UNL     1      -1.131 124.427  -9.554  1.00  0.00    -0.356 N
HETATM   11  C3  UNL     1      -1.858 123.920  -8.437  1.00  0.00     0.240 C
HETATM   12  O1  UNL     1      -1.287 123.042  -7.689  1.00  0.00    -0.269 OA
ATOM     13  H1  UNL     1      -1.567 125.125 -10.158  1.00  0.00     0.162 HD
BRANCH  11  14
HETATM   14  C2  UNL     1      -3.191 124.303  -8.059  1.00  0.00     0.064 C
HETATM   15  C1  UNL     1      -3.409 124.964  -6.946  1.00  0.00     0.017 C
ENDBRANCH  11  14
ENDBRANCH   9  10
ENDBRANCH   1   9
TORSDOF 3
ENDMDL