MODEL 2
REMARK VINA RESULT: -4.519189199      3.032      6.071
REMARK  3 active torsions:
REMARK  status: ('A' for Active; 'I' for Inactive)
REMARK    1  A    between atoms: C3_3  and  N1_4
REMARK       I    between atoms: N1_4  and  C4_6
REMARK    2  A    between atoms: C4_6  and  C5_8
REMARK    3  A    between atoms: C11_14  and  C12_15
ROOT
HETATM    1  C1  UNL     1      -0.066 117.525 -13.054  1.00  0.00     0.014 C
HETATM    2  C2  UNL     1       0.314 118.583 -13.488  1.00  0.00    -0.098 C
HETATM    3  C3  UNL     1       0.779 119.896 -13.999  1.00  0.00     0.216 C
ENDROOT
BRANCH   3   4
HETATM    4  N1  UNL     1       0.533 120.893 -12.983  1.00  0.00    -0.350 N
HETATM    5  C4  UNL     1      -0.551 121.796 -13.123  1.00  0.00     0.222 C
HETATM    6  O1  UNL     1      -1.268 121.685 -14.151  1.00  0.00    -0.273 OA
ATOM      7  H1  UNL     1       1.139 120.948 -12.165  1.00  0.00     0.163 HD
BRANCH   5   8
HETATM    8  C5  UNL     1      -0.846 122.838 -12.107  1.00  0.00     0.082 C
HETATM    9  C6  UNL     1      -0.233 122.492 -10.761  1.00  0.00     0.015 C
HETATM   10  C7  UNL     1      -0.440 123.699  -9.868  1.00  0.00     0.006 C
HETATM   11  C8  UNL     1      -0.123 124.958 -10.603  1.00  0.00    -0.006 C
HETATM   12  C9  UNL     1       0.820 124.684 -11.782  1.00  0.00     0.011 C
HETATM   13  C11 UNL     1      -1.212 125.196 -11.657  1.00  0.00     0.016 C
HETATM   14  C10 UNL     1      -0.427 124.211 -12.535  1.00  0.00     0.007 C
BRANCH  13  15
HETATM   15  C12 UNL     1      -1.255 126.566 -12.174  1.00  0.00    -0.031 C
HETATM   16  C13 UNL     1      -2.424 127.114 -12.556  1.00  0.00     0.007 C
ENDBRANCH  13  15
ENDBRANCH   5   8
ENDBRANCH   3   4
TORSDOF 3
ENDMDL