MODEL 5
REMARK VINA RESULT: -4.327880018      2.161      5.093
REMARK  3 active torsions:
REMARK  status: ('A' for Active; 'I' for Inactive)
REMARK    1  A    between atoms: C2_2  and  C3_3
REMARK    2  A    between atoms: C4_4  and  C5_5
REMARK    3  A    between atoms: C6_6  and  C7_7
ROOT
HETATM    1  C7  UNL     1      -0.049 123.891 -10.892  1.00  0.00     0.029 C
HETATM    2  C8  UNL     1      -0.491 122.526 -10.404  1.00  0.00     0.119 C
HETATM    3  N1  UNL     1       0.298 121.629 -11.163  1.00  0.00    -0.228 NA
HETATM    4  C9  UNL     1       0.681 122.303 -12.420  1.00  0.00     0.167 A
HETATM    5  C10 UNL     1      -0.049 123.616 -12.403  1.00  0.00     0.029 C
HETATM    6  C11 UNL     1      -1.468 123.531 -12.840  1.00  0.00     0.009 C
HETATM    7  C12 UNL     1      -1.766 122.299 -13.660  1.00  0.00     0.016 C
HETATM    8  C13 UNL     1      -1.301 121.044 -12.951  1.00  0.00     0.110 C
HETATM    9  N2  UNL     1      -0.012 121.145 -12.389  1.00  0.00    -0.228 NA
ENDROOT
BRANCH   1  10
HETATM   10  C6  UNL     1      -0.923 124.988 -10.499  1.00  0.00    -0.020 C
HETATM   11  C5  UNL     1      -0.495 126.246 -10.670  1.00  0.00    -0.004 C
BRANCH  11  12
HETATM   12  C4  UNL     1      -1.332 127.378 -10.293  1.00  0.00    -0.000 C
HETATM   13  C3  UNL     1      -2.026 128.015 -11.191  1.00  0.00    -0.001 C
BRANCH  13  14
HETATM   14  C2  UNL     1      -2.031 127.672 -12.595  1.00  0.00    -0.010 C
HETATM   15  C1  UNL     1      -3.088 127.039 -13.125  1.00  0.00     0.011 C
ENDBRANCH  13  14
ENDBRANCH  11  12
ENDBRANCH   1  10
TORSDOF 3
ENDMDL