MODEL 4
REMARK VINA RESULT: -4.296164681      3.811      6.911
REMARK  3 active torsions:
REMARK  status: ('A' for Active; 'I' for Inactive)
REMARK       I    between atoms: C1_2  and  N1_3
REMARK    1  A    between atoms: C1_2  and  C10_13
REMARK    2  A    between atoms: N1_3  and  C2_5
REMARK    3  A    between atoms: C2_5  and  C3_6
ROOT
HETATM    1  C2  UNL     1       0.116 125.719 -10.731  1.00  0.00     0.127 C
ENDROOT
BRANCH   1   2
HETATM    2  N1  UNL     1      -1.001 126.136  -9.926  1.00  0.00    -0.360 N
HETATM    3  C1  UNL     1      -1.619 127.372 -10.194  1.00  0.00     0.221 C
HETATM    4  O1  UNL     1      -1.185 128.082 -11.129  1.00  0.00    -0.273 OA
ATOM      5  H1  UNL     1      -1.341 125.543  -9.169  1.00  0.00     0.162 HD
BRANCH   3   6
HETATM    6  C10 UNL     1      -2.765 127.822  -9.382  1.00  0.00     0.078 A
HETATM    7  C11 UNL     1      -2.452 128.735  -8.209  1.00  0.00     0.015 A
HETATM    8  C12 UNL     1      -3.073 129.278  -9.439  1.00  0.00     0.015 A
ENDBRANCH   3   6
ENDBRANCH   1   2
BRANCH   1   9
HETATM    9  C3  UNL     1       0.125 124.221 -10.778  1.00  0.00     0.008 C
HETATM   10  C4  UNL     1       1.184 123.689 -11.739  1.00  0.00     0.011 C
HETATM   11  C5  UNL     1       0.419 122.595 -12.427  1.00  0.00    -0.014 C
HETATM   12  C6  UNL     1      -0.010 121.604 -11.375  1.00  0.00     0.005 C
HETATM   13  C9  UNL     1      -0.911 123.326 -12.676  1.00  0.00     0.010 C
HETATM   14  C7  UNL     1      -1.225 122.202 -10.678  1.00  0.00     0.005 C
HETATM   15  C8  UNL     1      -1.185 123.625 -11.192  1.00  0.00    -0.009 C
ENDBRANCH   1   9
TORSDOF 3
ENDMDL