MODEL 5
REMARK VINA RESULT: -4.088450941      2.348      3.548
REMARK  3 active torsions:
REMARK  status: ('A' for Active; 'I' for Inactive)
REMARK    1  A    between atoms: N1_1  and  C1_5
REMARK    2  A    between atoms: N2_8  and  C4_9
REMARK    3  A    between atoms: C4_9  and  C5_10
ROOT
HETATM    1  C1  UNL     1      -0.389 123.591 -10.410  1.00  0.00     0.189 C
HETATM    2  C2  UNL     1      -1.800 123.922 -10.134  1.00  0.00     0.061 C
HETATM    3  C3  UNL     1      -2.464 125.011 -10.817  1.00  0.00     0.239 C
HETATM    4  N2  UNL     1      -1.965 125.454 -12.097  1.00  0.00    -0.067 N
HETATM    5  C8  UNL     1      -1.916 124.379 -13.078  1.00  0.00     0.238 C
HETATM    6  C9  UNL     1      -0.847 123.378 -12.852  1.00  0.00     0.034 C
HETATM    7  C10 UNL     1       0.096 123.858 -11.803  1.00  0.00     0.019 C
HETATM    8  C11 UNL     1       0.487 125.291 -12.025  1.00  0.00     0.034 C
HETATM    9  C12 UNL     1      -0.729 126.146 -11.954  1.00  0.00     0.238 C
ENDROOT
BRANCH   1  10
HETATM   10  N1  UNL     1       0.540 124.264  -9.501  1.00  0.00    -0.075 N
ATOM     11  H13 UNL     1       0.265 125.235  -9.349  1.00  0.00     0.274 HD
ATOM     12  H12 UNL     1       0.438 123.913  -8.549  1.00  0.00     0.274 HD
ATOM     13  H11 UNL     1       1.510 124.203  -9.810  1.00  0.00     0.274 HD
ENDBRANCH   1  10
BRANCH   4  14
HETATM   14  C4  UNL     1      -2.997 126.350 -12.604  1.00  0.00     0.242 C
BRANCH  14  15
HETATM   15  C5  UNL     1      -2.463 127.711 -12.942  1.00  0.00     0.012 A
HETATM   16  C6  UNL     1      -3.277 128.600 -13.863  1.00  0.00     0.007 A
HETATM   17  C7  UNL     1      -3.330 128.850 -12.385  1.00  0.00     0.007 A
ENDBRANCH  14  15
ENDBRANCH   4  14
TORSDOF 3
ENDMDL