MODEL 4
REMARK VINA RESULT: -4.757471369      1.133      1.500
REMARK  10 active torsions:
REMARK  status: ('A' for Active; 'I' for Inactive)
REMARK    1  A    between atoms: C2_2  and  N1_3
REMARK    2  A    between atoms: N1_3  and  C4_5
REMARK    3  A    between atoms: N1_3  and  C11_18
REMARK    4  A    between atoms: C4_5  and  C5_6
REMARK    5  A    between atoms: C5_6  and  N2_7
REMARK    6  A    between atoms: N2_7  and  C8_10
REMARK    7  A    between atoms: C8_10  and  C9_11
REMARK    8  A    between atoms: C9_11  and  N3_12
REMARK    9  A    between atoms: N3_12  and  N4_14
REMARK   10  A    between atoms: C14_21  and  N5_22
ROOT
HETATM    1  N1  UNL     1       2.885  38.271   8.315  1.00  0.00    -0.065 N
HETATM    2  C3  UNL     1       3.144  38.926   9.558  1.00  0.00     0.273 C
ENDROOT
BRANCH   1   3
HETATM    3  C2  UNL     1       4.068  37.870   7.589  1.00  0.00     0.233 C
HETATM    4  C1  UNL     1       5.348  37.928   8.336  1.00  0.00     0.035 C
ENDBRANCH   1   3
BRANCH   1   5
HETATM    5  C4  UNL     1       2.169  37.021   8.588  1.00  0.00     0.265 C
BRANCH   5   6
HETATM    6  C5  UNL     1       2.161  36.644  10.022  1.00  0.00     0.264 C
BRANCH   6   7
HETATM    7  N2  UNL     1       2.840  35.392  10.299  1.00  0.00    -0.071 N
HETATM    8  C6  UNL     1       4.095  35.624  10.999  1.00  0.00     0.272 C
HETATM    9  C7  UNL     1       3.104  34.584   9.154  1.00  0.00     0.272 C
BRANCH   7  10
HETATM   10  C8  UNL     1       1.949  34.596  11.156  1.00  0.00     0.275 C
BRANCH  10  11
HETATM   11  C9  UNL     1       1.215  33.527  10.400  1.00  0.00     0.369 C
BRANCH  11  12
HETATM   12  N3  UNL     1      -0.194  33.594  10.786  1.00  0.00     0.101 N
HETATM   13  C10 UNL     1      -0.245  33.616  12.236  1.00  0.00     0.389 C
HETATM   14  O1  UNL     1      -0.807  34.684  10.323  1.00  0.00    -0.043 OA
BRANCH  12  15
HETATM   15  N4  UNL     1      -0.891  32.470  10.306  1.00  0.00    -0.211 N
ATOM     16  H42 UNL     1      -0.727  31.517  10.631  1.00  0.00     0.192 HD
ATOM     17  H41 UNL     1      -1.571  32.747   9.598  1.00  0.00     0.192 HD
ENDBRANCH  12  15
ENDBRANCH  11  12
ENDBRANCH  10  11
ENDBRANCH   7  10
ENDBRANCH   6   7
ENDBRANCH   5   6
ENDBRANCH   1   5
BRANCH   1  18
HETATM   18  C11 UNL     1       2.011  39.032   7.442  1.00  0.00     0.192 C
HETATM   19  C12 UNL     1       1.254  38.263   6.446  1.00  0.00     0.035 C
HETATM   20  C13 UNL     1       1.302  39.010   5.122  1.00  0.00     0.035 C
HETATM   21  C14 UNL     1       1.936  40.332   5.395  1.00  0.00     0.187 C
HETATM   22  C16 UNL     1       2.730  40.084   6.655  1.00  0.00     0.066 C
BRANCH  21  23
HETATM   23  N5  UNL     1       2.786  40.783   4.310  1.00  0.00    -0.075 N
HETATM   24  C15 UNL     1       4.165  40.916   4.731  1.00  0.00     0.267 C
ATOM     25  H52 UNL     1       2.702  40.175   3.495  1.00  0.00     0.277 HD
ATOM     26  H51 UNL     1       2.438  41.649   3.899  1.00  0.00     0.277 HD
ENDBRANCH  21  23
ENDBRANCH   1  18
TORSDOF 10
ENDMDL