MODEL 1
REMARK VINA RESULT: -5.396990484      0.000      0.000
REMARK  11 active torsions:
REMARK  status: ('A' for Active; 'I' for Inactive)
REMARK    1  A    between atoms: C2_2  and  C3_3
REMARK    2  A    between atoms: C3_3  and  N1_4
REMARK    3  A    between atoms: C3_3  and  C13_17
REMARK       I    between atoms: N1_4  and  C4_6
REMARK    4  A    between atoms: C4_6  and  C5_8
REMARK    5  A    between atoms: N2_10  and  C7_11
REMARK    6  A    between atoms: C7_11  and  C8_12
REMARK    7  A    between atoms: C8_12  and  C9_13
REMARK       I    between atoms: C13_17  and  N3_19
REMARK    8  A    between atoms: N3_19  and  C14_21
REMARK    9  A    between atoms: C14_21  and  C15_22
REMARK   10  A    between atoms: C15_22  and  N4_23
REMARK   11  A    between atoms: N4_23  and  N5_24
ROOT
HETATM    1  C3  UNL     1       4.123  28.637   4.117  1.00  0.00     0.176 C
ENDROOT
BRANCH   1   2
HETATM    2  C2  UNL     1       4.577  29.067   2.749  1.00  0.00     0.030 C
HETATM    3  C1  UNL     1       3.475  29.361   1.780  1.00  0.00     0.007 C
ENDBRANCH   1   2
BRANCH   1   4
HETATM    4  N1  UNL     1       2.779  28.021   3.987  1.00  0.00    -0.346 N
HETATM    5  C4  UNL     1       2.557  26.709   4.459  1.00  0.00     0.253 C
HETATM    6  O1  UNL     1       3.502  26.081   4.983  1.00  0.00    -0.271 OA
ATOM      7  H1  UNL     1       2.017  28.546   3.557  1.00  0.00     0.163 HD
BRANCH   5   8
HETATM    8  C5  UNL     1       1.237  26.098   4.333  1.00  0.00     0.342 A
HETATM    9  C6  UNL     1       1.185  24.987   3.280  1.00  0.00     0.319 A
HETATM   10  N2  UNL     1       1.044  24.703   4.673  1.00  0.00     0.106 N
BRANCH  10  11
HETATM   11  C7  UNL     1      -0.235  24.360   5.242  1.00  0.00     0.277 C
BRANCH  11  12
HETATM   12  C8  UNL     1      -0.765  25.513   6.067  1.00  0.00     0.057 C
BRANCH  12  13
HETATM   13  C9  UNL     1      -2.228  25.397   6.267  1.00  0.00    -0.023 C
HETATM   14  C10 UNL     1      -2.761  25.691   7.429  1.00  0.00    -0.091 C
HETATM   15  C11 UNL     1      -1.911  26.139   8.549  1.00  0.00     0.042 C
HETATM   16  C12 UNL     1      -4.221  25.575   7.626  1.00  0.00     0.042 C
ENDBRANCH  12  13
ENDBRANCH  11  12
ENDBRANCH  10  11
ENDBRANCH   5   8
ENDBRANCH   1   4
BRANCH   1  17
HETATM   17  C13 UNL     1       3.996  29.729   5.091  1.00  0.00     0.240 C
HETATM   18  O2  UNL     1       4.597  30.841   4.883  1.00  0.00    -0.271 OA
HETATM   19  N3  UNL     1       3.240  29.668   6.283  1.00  0.00    -0.353 N
ATOM     20  H3  UNL     1       2.730  28.812   6.504  1.00  0.00     0.162 HD
BRANCH  19  21
HETATM   21  C14 UNL     1       3.167  30.795   7.206  1.00  0.00     0.184 C
BRANCH  21  22
HETATM   22  C15 UNL     1       1.809  31.364   7.257  1.00  0.00     0.200 C
BRANCH  22  23
HETATM   23  N4  UNL     1       1.295  31.770   8.321  1.00  0.00    -0.348 NA
BRANCH  23  24
HETATM   24  N5  UNL     1       0.969  32.435   9.323  1.00  0.00    -0.281 N
ATOM     25  H52 UNL     1       1.874  32.902   9.379  1.00  0.00     0.191 HD
ATOM     26  H51 UNL     1       0.473  32.848  10.112  1.00  0.00     0.191 HD
ENDBRANCH  23  24
ENDBRANCH  22  23
ENDBRANCH  21  22
ENDBRANCH  19  21
ENDBRANCH   1  17
TORSDOF 11
ENDMDL