MODEL 1
REMARK VINA RESULT: -5.028468248      0.000      0.000
REMARK  10 active torsions:
REMARK  status: ('A' for Active; 'I' for Inactive)
REMARK    1  A    between atoms: C1_2  and  N1_3
REMARK    2  A    between atoms: N1_3  and  C2_5
REMARK    3  A    between atoms: C2_5  and  C3_6
REMARK    4  A    between atoms: C3_6  and  C4_7
REMARK    5  A    between atoms: C4_7  and  N2_8
REMARK    6  A    between atoms: N3_11  and  C7_12
REMARK    7  A    between atoms: C7_12  and  C8_13
REMARK    8  A    between atoms: C8_13  and  C9_14
REMARK    9  A    between atoms: C9_14  and  N4_15
REMARK   10  A    between atoms: N4_15  and  C10_18
ROOT
HETATM    1  N2  UNL     1      -0.126  27.828  14.052  1.00  0.00    -0.040 N
HETATM    2  C5  UNL     1       1.002  27.167  14.629  1.00  0.00     0.267 C
HETATM    3  C6  UNL     1       0.695  25.670  14.435  1.00  0.00     0.267 C
HETATM    4  N3  UNL     1      -0.551  25.689  13.773  1.00  0.00    -0.040 N
HETATM    5  C15 UNL     1      -1.545  26.156  14.730  1.00  0.00     0.267 C
HETATM    6  C16 UNL     1      -1.282  27.637  14.895  1.00  0.00     0.267 C
HETATM    7  C17 UNL     1      -0.425  26.924  12.957  1.00  0.00     0.473 C
ENDROOT
BRANCH   4   8
HETATM    8  C7  UNL     1      -1.001  24.608  13.023  1.00  0.00     0.241 C
BRANCH   8   9
HETATM    9  C8  UNL     1      -1.468  24.783  11.645  1.00  0.00     0.055 C
BRANCH   9  10
HETATM   10  C9  UNL     1      -2.629  23.952  11.186  1.00  0.00     0.234 C
BRANCH  10  11
HETATM   11  N4  UNL     1      -2.922  24.185   9.781  1.00  0.00    -0.071 N
ATOM     12  H42 UNL     1      -2.245  23.731   9.169  1.00  0.00     0.277 HD
ATOM     13  H41 UNL     1      -3.757  23.685   9.477  1.00  0.00     0.277 HD
BRANCH  11  14
HETATM   14  C10 UNL     1      -3.018  25.583   9.523  1.00  0.00     0.185 C
HETATM   15  C11 UNL     1      -4.407  26.090   9.268  1.00  0.00     0.033 C
HETATM   16  C12 UNL     1      -4.690  25.482   7.898  1.00  0.00     0.002 C
HETATM   17  C13 UNL     1      -3.343  25.510   7.189  1.00  0.00     0.002 C
HETATM   18  C14 UNL     1      -2.333  25.944   8.215  1.00  0.00     0.033 C
ENDBRANCH  11  14
ENDBRANCH  10  11
ENDBRANCH   9  10
ENDBRANCH   8   9
ENDBRANCH   4   8
BRANCH   1  19
HETATM   19  C4  UNL     1       0.089  29.169  13.629  1.00  0.00     0.241 C
BRANCH  19  20
HETATM   20  C3  UNL     1      -0.643  29.531  12.359  1.00  0.00     0.048 C
BRANCH  20  21
HETATM   21  C2  UNL     1      -0.993  30.998  12.475  1.00  0.00     0.123 C
BRANCH  21  22
HETATM   22  N1  UNL     1      -1.247  31.656  11.236  1.00  0.00    -0.368 N
ATOM     23  H1  UNL     1      -2.190  31.618  10.850  1.00  0.00     0.161 HD
BRANCH  22  24
HETATM   24  C1  UNL     1      -0.260  32.353  10.523  1.00  0.00     0.348 C
HETATM   25  O1  UNL     1       0.063  32.073   9.364  1.00  0.00    -0.284 OA
ENDBRANCH  22  24
ENDBRANCH  21  22
ENDBRANCH  20  21
ENDBRANCH  19  20
ENDBRANCH   1  19
TORSDOF 10
ENDMDL