MODEL 2
REMARK VINA RESULT: -6.518739825      8.721      9.995
REMARK  9 active torsions:
REMARK  status: ('A' for Active; 'I' for Inactive)
REMARK    1  A    between atoms: C2_2  and  C4_4
REMARK    2  A    between atoms: C4_4  and  C5_5
REMARK    3  A    between atoms: C6_6  and  C7_7
REMARK    4  A    between atoms: C7_7  and  C8_8
REMARK    5  A    between atoms: C10_13  and  C11_14
REMARK       I    between atoms: C11_14  and  N2_16
REMARK    6  A    between atoms: N2_16  and  C12_18
REMARK    7  A    between atoms: C12_18  and  C13_19
REMARK    8  A    between atoms: C14_20  and  C15_21
REMARK    9  A    between atoms: N3_23  and  N4_25
ROOT
HETATM    1  C11 UNL     1       4.499  26.551   5.994  1.00  0.00     0.241 C
HETATM    2  O2  UNL     1       4.491  27.349   6.938  1.00  0.00    -0.271 OA
HETATM    3  N2  UNL     1       5.524  26.525   5.065  1.00  0.00    -0.356 N
ATOM      4  H2  UNL     1       5.376  25.823   4.339  1.00  0.00     0.162 HD
ENDROOT
BRANCH   1   5
HETATM    5  C10 UNL     1       3.398  25.562   5.753  1.00  0.00     0.190 C
HETATM    6  C8  UNL     1       2.019  25.864   5.760  1.00  0.00     0.113 C
HETATM    7  C9  UNL     1       2.334  26.768   4.595  1.00  0.00     0.225 C
HETATM    8  O1  UNL     1       2.037  27.863   4.097  1.00  0.00    -0.273 OA
HETATM    9  N1  UNL     1       3.228  25.758   4.240  1.00  0.00    -0.347 N
ATOM     10  H1  UNL     1       3.594  25.345   3.382  1.00  0.00     0.163 HD
BRANCH   6  11
HETATM   11  C7  UNL     1       1.038  26.374   6.703  1.00  0.00     0.043 C
BRANCH  11  12
HETATM   12  C6  UNL     1      -0.308  25.775   6.289  1.00  0.00    -0.029 C
HETATM   13  C5  UNL     1      -1.406  25.695   6.882  1.00  0.00    -0.026 C
BRANCH  13  14
HETATM   14  C4  UNL     1      -1.832  26.171   8.244  1.00  0.00     0.059 C
BRANCH  14  15
HETATM   15  C2  UNL     1      -3.253  25.730   8.496  1.00  0.00    -0.090 C
HETATM   16  C1  UNL     1      -4.061  25.665   7.425  1.00  0.00     0.014 C
HETATM   17  C3  UNL     1      -3.738  25.369   9.829  1.00  0.00     0.043 C
ENDBRANCH  14  15
ENDBRANCH  13  14
ENDBRANCH  11  12
ENDBRANCH   6  11
ENDBRANCH   1   5
BRANCH   3  18
HETATM   18  C12 UNL     1       6.747  27.257   4.884  1.00  0.00     0.150 C
BRANCH  18  19
HETATM   19  C13 UNL     1       6.777  27.992   3.624  1.00  0.00    -0.005 C
HETATM   20  C14 UNL     1       6.059  29.000   3.201  1.00  0.00     0.024 C
BRANCH  20  21
HETATM   21  C15 UNL     1       5.027  29.726   3.847  1.00  0.00     0.023 C
HETATM   22  C16 UNL     1       5.147  30.370   5.190  1.00  0.00     0.070 C
HETATM   23  N3  UNL     1       3.872  29.979   3.257  1.00  0.00    -0.291 N
ATOM     24  H3  UNL     1       3.182  30.512   3.787  1.00  0.00     0.188 HD
BRANCH  23  25
HETATM   25  N4  UNL     1       3.528  29.583   1.997  1.00  0.00    -0.249 N
HETATM   26  N5  UNL     1       3.684  30.325   0.961  1.00  0.00    -0.331 N
ATOM     27  H52 UNL     1       4.085  31.252   1.104  1.00  0.00     0.178 HD
ATOM     28  H51 UNL     1       3.427  30.030   0.020  1.00  0.00     0.178 HD
ATOM     29  H4  UNL     1       3.127  28.654   1.872  1.00  0.00     0.207 HD
ENDBRANCH  23  25
ENDBRANCH  20  21
ENDBRANCH  18  19
ENDBRANCH   3  18
TORSDOF 9
ENDMDL