MODEL 5
REMARK VINA RESULT: -5.041506454      3.660      6.784
REMARK  12 active torsions:
REMARK  status: ('A' for Active; 'I' for Inactive)
REMARK    1  A    between atoms: C2_2  and  C3_3
REMARK    2  A    between atoms: C3_3  and  O1_4
REMARK    3  A    between atoms: O1_4  and  C4_5
REMARK    4  A    between atoms: C4_5  and  C5_6
REMARK    5  A    between atoms: C5_6  and  N1_7
REMARK    6  A    between atoms: N1_7  and  C7_9
REMARK    7  A    between atoms: C7_9  and  C8_10
REMARK    8  A    between atoms: C8_10  and  N2_11
REMARK       I    between atoms: N2_11  and  C9_13
REMARK       I    between atoms: C9_13  and  N3_15
REMARK    9  A    between atoms: N3_15  and  C10_17
REMARK   10  A    between atoms: C10_17  and  C11_18
REMARK   11  A    between atoms: C12_19  and  C13_20
REMARK   12  A    between atoms: C14_21  and  C15_22
ROOT
HETATM    1  N2  UNL     1       3.166  29.049   3.899  1.00  0.00    -0.341 N
ATOM      2  H2  UNL     1       2.625  29.458   3.137  1.00  0.00     0.164 HD
HETATM    3  C9  UNL     1       2.903  27.698   4.231  1.00  0.00     0.316 C
HETATM    4  O2  UNL     1       3.519  27.113   5.165  1.00  0.00    -0.247 OA
HETATM    5  N3  UNL     1       1.931  26.947   3.516  1.00  0.00    -0.333 N
ATOM      6  H3  UNL     1       1.415  27.377   2.749  1.00  0.00     0.165 HD
ENDROOT
BRANCH   1   7
HETATM    7  C8  UNL     1       4.130  29.888   4.544  1.00  0.00     0.154 C
BRANCH   7   8
HETATM    8  C7  UNL     1       5.223  30.298   3.566  1.00  0.00     0.291 C
BRANCH   8   9
HETATM    9  N1  UNL     1       6.506  29.829   3.966  1.00  0.00     0.087 N
HETATM   10  C6  UNL     1       7.487  30.851   3.843  1.00  0.00     0.310 C
BRANCH   9  11
HETATM   11  C5  UNL     1       6.864  28.558   3.378  1.00  0.00     0.298 C
BRANCH  11  12
HETATM   12  C4  UNL     1       8.334  28.420   3.151  1.00  0.00     0.198 C
BRANCH  12  13
HETATM   13  O1  UNL     1       8.804  27.189   3.522  1.00  0.00    -0.386 OA
BRANCH  13  14
HETATM   14  C3  UNL     1      10.112  26.900   3.212  1.00  0.00     0.194 C
BRANCH  14  15
HETATM   15  C2  UNL     1      10.379  27.325   1.821  1.00  0.00    -0.011 C
HETATM   16  C1  UNL     1      10.600  26.462   0.861  1.00  0.00     0.009 C
ENDBRANCH  14  15
ENDBRANCH  13  14
ENDBRANCH  12  13
ENDBRANCH  11  12
ENDBRANCH   9  11
ENDBRANCH   8   9
ENDBRANCH   7   8
ENDBRANCH   1   7
BRANCH   5  17
HETATM   17  C10 UNL     1       1.679  25.586   3.878  1.00  0.00     0.219 C
BRANCH  17  18
HETATM   18  C11 UNL     1       0.470  25.475   4.735  1.00  0.00    -0.073 C
HETATM   19  C12 UNL     1      -0.501  25.364   5.444  1.00  0.00    -0.013 C
BRANCH  19  20
HETATM   20  C13 UNL     1      -1.628  25.216   6.288  1.00  0.00    -0.015 C
HETATM   21  C14 UNL     1      -2.585  25.066   7.018  1.00  0.00    -0.088 C
BRANCH  21  22
HETATM   22  C15 UNL     1      -3.729  24.865   7.911  1.00  0.00     0.066 A
HETATM   23  C16 UNL     1      -4.800  25.904   7.747  1.00  0.00     0.018 A
HETATM   24  C17 UNL     1      -3.926  25.826   8.997  1.00  0.00     0.018 A
ENDBRANCH  21  22
ENDBRANCH  19  20
ENDBRANCH  17  18
ENDBRANCH   5  17
TORSDOF 12
ENDMDL