MODEL 2
REMARK VINA RESULT: -4.381302672      1.342      1.849
REMARK  12 active torsions:
REMARK  status: ('A' for Active; 'I' for Inactive)
REMARK    1  A    between atoms: C2_2  and  C3_3
REMARK    2  A    between atoms: C3_3  and  C4_4
REMARK    3  A    between atoms: C4_4  and  N1_5
REMARK    4  A    between atoms: N1_5  and  C5_6
REMARK    5  A    between atoms: C5_6  and  C6_7
REMARK    6  A    between atoms: C6_7  and  N2_8
REMARK    7  A    between atoms: C6_7  and  O1_12
REMARK    8  A    between atoms: C6_7  and  C7_14
REMARK    9  A    between atoms: C7_14  and  C8_15
REMARK   10  A    between atoms: C8_15  and  N3_16
REMARK   11  A    between atoms: C16_24  and  C17_25
REMARK   12  A    between atoms: C17_25  and  O2_26
ROOT
HETATM    1  C5  UNL     1       2.294  32.080   9.708  1.00  0.00     0.306 C
ENDROOT
BRANCH   1   2
HETATM    2  N1  UNL     1       1.974  33.029  10.682  1.00  0.00    -0.056 N
HETATM    3  C12 UNL     1       2.795  32.685  11.872  1.00  0.00     0.242 C
HETATM    4  C13 UNL     1       1.942  32.685  13.072  1.00  0.00     0.010 C
HETATM    5  C14 UNL     1       1.864  31.308  13.746  1.00  0.00     0.011 C
HETATM    6  C15 UNL     1       0.583  33.067  12.640  1.00  0.00     0.041 C
HETATM    7  C16 UNL     1       0.617  33.062  11.133  1.00  0.00     0.214 C
BRANCH   2   8
HETATM    8  C4  UNL     1       2.352  34.399  10.396  1.00  0.00     0.238 C
BRANCH   8   9
HETATM    9  C3  UNL     1       1.226  35.384  10.322  1.00  0.00     0.028 C
BRANCH   9  10
HETATM   10  C2  UNL     1       1.784  36.687  10.931  1.00  0.00    -0.003 C
HETATM   11  C1  UNL     1       1.816  36.515  12.421  1.00  0.00     0.005 C
ENDBRANCH   9  10
ENDBRANCH   8   9
ENDBRANCH   2   8
BRANCH   7  12
HETATM   12  C17 UNL     1      -0.256  31.893  10.723  1.00  0.00     0.197 C
BRANCH  12  13
HETATM   13  O2  UNL     1      -1.055  32.426   9.670  1.00  0.00    -0.399 OA
ATOM     14  H2  UNL     1      -1.485  31.660   9.308  1.00  0.00     0.209 HD
ENDBRANCH  12  13
ENDBRANCH   7  12
ENDBRANCH   1   2
BRANCH   1  15
HETATM   15  C6  UNL     1       2.441  32.197   8.286  1.00  0.00     0.248 C
BRANCH  15  16
HETATM   16  N2  UNL     1       2.649  33.467   7.649  1.00  0.00    -0.045 N
ATOM     17  H23 UNL     1       3.603  33.766   7.853  1.00  0.00     0.278 HD
ATOM     18  H22 UNL     1       2.686  33.309   6.643  1.00  0.00     0.278 HD
ATOM     19  H21 UNL     1       2.031  34.261   7.818  1.00  0.00     0.278 HD
ENDBRANCH  15  16
BRANCH  15  20
HETATM   20  O1  UNL     1       1.177  31.814   7.693  1.00  0.00    -0.364 OA
ATOM     21  H1  UNL     1       1.344  31.619   6.777  1.00  0.00     0.212 HD
ENDBRANCH  15  20
BRANCH  15  22
HETATM   22  C7  UNL     1       3.391  31.242   7.602  1.00  0.00     0.098 C
BRANCH  22  23
HETATM   23  C8  UNL     1       2.711  30.173   6.810  1.00  0.00     0.241 C
BRANCH  23  24
HETATM   24  N3  UNL     1       3.674  29.584   5.896  1.00  0.00    -0.078 N
HETATM   25  C9  UNL     1       4.468  30.669   5.352  1.00  0.00     0.271 C
HETATM   26  C10 UNL     1       2.910  28.948   4.830  1.00  0.00     0.271 C
HETATM   27  C11 UNL     1       4.532  28.615   6.541  1.00  0.00     0.271 C
ENDBRANCH  23  24
ENDBRANCH  22  23
ENDBRANCH  15  22
ENDBRANCH   1  15
TORSDOF 12
ENDMDL