MODEL 5
REMARK VINA RESULT: -4.184616113      4.678      7.945
REMARK  12 active torsions:
REMARK  status: ('A' for Active; 'I' for Inactive)
REMARK    1  A    between atoms: C2_2  and  C3_3
REMARK       I    between atoms: C3_3  and  N1_5
REMARK    2  A    between atoms: N1_5  and  C4_7
REMARK    3  A    between atoms: C4_7  and  C5_8
REMARK    4  A    between atoms: C5_8  and  N2_9
REMARK    5  A    between atoms: N2_9  and  C6_10
REMARK    6  A    between atoms: C6_10  and  C7_11
REMARK    7  A    between atoms: C7_11  and  N3_12
REMARK    8  A    between atoms: N3_12  and  C8_14
REMARK    9  A    between atoms: C8_14  and  O2_15
REMARK   10  A    between atoms: C8_14  and  C9_17
REMARK   11  A    between atoms: C9_17  and  C10_18
REMARK   12  A    between atoms: C15_23  and  C16_24
ROOT
HETATM    1  N2  UNL     1       3.479  36.965   9.260  1.00  0.00    -0.054 N
HETATM    2  C12 UNL     1       4.302  36.629  10.410  1.00  0.00     0.238 C
HETATM    3  C13 UNL     1       4.245  37.768  11.383  1.00  0.00     0.030 C
HETATM    4  C14 UNL     1       3.060  38.584  10.922  1.00  0.00     0.042 C
HETATM    5  C15 UNL     1       3.108  38.336   9.419  1.00  0.00     0.251 C
ENDROOT
BRANCH   1   6
HETATM    6  C5  UNL     1       4.105  36.695   7.990  1.00  0.00     0.258 C
BRANCH   6   7
HETATM    7  C4  UNL     1       3.205  36.337   6.870  1.00  0.00     0.151 C
BRANCH   7   8
HETATM    8  N1  UNL     1       2.996  37.485   5.970  1.00  0.00    -0.356 N
HETATM    9  C3  UNL     1       1.761  38.163   5.959  1.00  0.00     0.240 C
HETATM   10  O1  UNL     1       0.848  37.780   6.717  1.00  0.00    -0.269 OA
ATOM     11  H1  UNL     1       3.748  37.789   5.352  1.00  0.00     0.162 HD
BRANCH   9  12
HETATM   12  C2  UNL     1       1.547  39.287   5.085  1.00  0.00     0.064 C
HETATM   13  C1  UNL     1       0.777  40.328   5.338  1.00  0.00     0.017 C
ENDBRANCH   9  12
ENDBRANCH   7   8
ENDBRANCH   6   7
ENDBRANCH   1   6
BRANCH   1  14
HETATM   14  C6  UNL     1       2.308  36.125   9.322  1.00  0.00     0.258 C
BRANCH  14  15
HETATM   15  C7  UNL     1       2.428  34.878  10.130  1.00  0.00     0.150 C
BRANCH  15  16
HETATM   16  N3  UNL     1       1.202  34.071   9.877  1.00  0.00    -0.369 N
ATOM     17  H3  UNL     1       1.187  33.413   9.097  1.00  0.00     0.161 HD
BRANCH  16  18
HETATM   18  C8  UNL     1       0.083  34.198  10.681  1.00  0.00     0.135 C
BRANCH  18  19
HETATM   19  O2  UNL     1      -0.904  34.858  10.140  1.00  0.00    -0.346 OA
ATOM     20  H2  UNL     1      -1.733  34.777  10.598  1.00  0.00     0.219 HD
ENDBRANCH  18  19
BRANCH  18  21
HETATM   21  C9  UNL     1      -0.121  33.709  12.002  1.00  0.00     0.051 C
BRANCH  21  22
HETATM   22  C10 UNL     1      -0.220  32.489  12.448  1.00  0.00    -0.027 C
HETATM   23  C11 UNL     1      -1.171  31.474  12.072  1.00  0.00     0.036 C
ENDBRANCH  21  22
ENDBRANCH  18  21
ENDBRANCH  16  18
ENDBRANCH  15  16
ENDBRANCH  14  15
ENDBRANCH   1  14
BRANCH   5  24
HETATM   24  C16 UNL     1       4.130  39.300   8.900  1.00  0.00     0.264 C
HETATM   25  O3  UNL     1       3.809  40.036   7.986  1.00  0.00    -0.305 OA
ENDBRANCH   5  24
TORSDOF 12
ENDMDL