MODEL 4
REMARK VINA RESULT: -5.241650372      1.301      1.620
REMARK  10 active torsions:
REMARK  status: ('A' for Active; 'I' for Inactive)
REMARK    1  A    between atoms: N1_2  and  C4_5
REMARK    2  A    between atoms: C4_5  and  C5_6
REMARK    3  A    between atoms: C5_6  and  C6_7
REMARK    4  A    between atoms: C6_7  and  C7_8
REMARK    5  A    between atoms: C7_8  and  C8_9
REMARK    6  A    between atoms: C8_9  and  C9_10
REMARK    7  A    between atoms: C9_10  and  N2_11
REMARK    8  A    between atoms: C15_17  and  O1_18
REMARK    9  A    between atoms: C16_20  and  C17_21
REMARK   10  A    between atoms: C17_21  and  O2_22
ROOT
HETATM    1  N2  UNL     1       3.601  28.755   5.385  1.00  0.00     0.009 N
HETATM    2  C10 UNL     1       4.206  30.000   5.942  1.00  0.00     0.265 C
HETATM    3  C11 UNL     1       5.015  30.644   4.873  1.00  0.00     0.037 C
HETATM    4  C12 UNL     1       5.908  29.579   4.275  1.00  0.00     0.020 C
HETATM    5  C13 UNL     1       6.018  28.447   5.267  1.00  0.00     0.037 C
HETATM    6  C14 UNL     1       4.661  27.783   5.450  1.00  0.00     0.265 C
HETATM    7  C15 UNL     1       5.370  29.043   2.986  1.00  0.00     0.148 C
HETATM    8  C16 UNL     1       3.917  28.713   3.002  1.00  0.00     0.159 C
HETATM    9  N3  UNL     1       3.182  29.085   4.144  1.00  0.00    -0.243 N
ATOM     10  H3  UNL     1       2.317  29.614   4.033  1.00  0.00     0.187 HD
ENDROOT
BRANCH   1  11
HETATM   11  C9  UNL     1       2.490  28.481   6.233  1.00  0.00     0.264 C
BRANCH  11  12
HETATM   12  C8  UNL     1       2.300  27.137   6.786  1.00  0.00     0.030 C
BRANCH  12  13
HETATM   13  C7  UNL     1       1.034  26.489   6.367  1.00  0.00     0.002 C
BRANCH  13  14
HETATM   14  C6  UNL     1       0.183  26.121   7.546  1.00  0.00     0.002 C
BRANCH  14  15
HETATM   15  C5  UNL     1      -1.220  25.788   7.092  1.00  0.00     0.028 C
BRANCH  15  16
HETATM   16  C4  UNL     1      -2.178  26.069   8.204  1.00  0.00     0.236 C
BRANCH  16  17
HETATM   17  N1  UNL     1      -3.200  25.038   8.322  1.00  0.00    -0.079 N
HETATM   18  C1  UNL     1      -2.892  23.927   7.438  1.00  0.00     0.271 C
HETATM   19  C2  UNL     1      -4.511  25.541   7.934  1.00  0.00     0.271 C
HETATM   20  C3  UNL     1      -3.282  24.621   9.711  1.00  0.00     0.271 C
ENDBRANCH  16  17
ENDBRANCH  15  16
ENDBRANCH  14  15
ENDBRANCH  13  14
ENDBRANCH  12  13
ENDBRANCH  11  12
ENDBRANCH   1  11
BRANCH   8  21
HETATM   21  C17 UNL     1       3.296  29.486   1.819  1.00  0.00     0.193 C
BRANCH  21  22
HETATM   22  O2  UNL     1       4.262  30.137   1.091  1.00  0.00    -0.399 OA
ATOM     23  H2  UNL     1       4.679  29.549   0.473  1.00  0.00     0.209 HD
ENDBRANCH  21  22
ENDBRANCH   8  21
BRANCH   7  24
HETATM   24  O1  UNL     1       6.079  27.854   2.714  1.00  0.00    -0.393 OA
ATOM     25  H1  UNL     1       6.133  27.778   1.769  1.00  0.00     0.210 HD
ENDBRANCH   7  24
TORSDOF 10
ENDMDL