MODEL 2
REMARK VINA RESULT: -4.952836026      5.461      8.675
REMARK  14 active torsions:
REMARK  status: ('A' for Active; 'I' for Inactive)
REMARK    1  A    between atoms: C2_2  and  N1_3
REMARK    2  A    between atoms: N1_3  and  C3_4
REMARK    3  A    between atoms: C3_4  and  C4_5
REMARK    4  A    between atoms: C5_6  and  C6_7
REMARK    5  A    between atoms: C7_8  and  C8_9
REMARK    6  A    between atoms: C9_11  and  C10_12
REMARK    7  A    between atoms: C10_12  and  C11_13
REMARK    8  A    between atoms: C11_13  and  C12_14
REMARK    9  A    between atoms: C12_14  and  C13_15
REMARK   10  A    between atoms: C13_15  and  C14_16
REMARK   11  A    between atoms: C14_16  and  C15_17
REMARK   12  A    between atoms: C15_17  and  C16_18
REMARK   13  A    between atoms: C16_18  and  N2_19
REMARK   14  A    between atoms: C18_24  and  O2_25
ROOT
HETATM    1  C8  UNL     1       2.608  31.823   7.823  1.00  0.00     0.230 A
HETATM    2  O1  UNL     1       1.300  31.392   7.640  1.00  0.00    -0.362 OA
HETATM    3  C9  UNL     1       1.643  31.610   8.971  1.00  0.00     0.164 A
ENDROOT
BRANCH   1   4
HETATM    4  C7  UNL     1       2.935  33.218   7.456  1.00  0.00    -0.058 C
HETATM    5  C6  UNL     1       3.182  34.364   7.163  1.00  0.00    -0.012 C
BRANCH   5   6
HETATM    6  C5  UNL     1       3.449  35.712   6.822  1.00  0.00    -0.013 C
HETATM    7  C4  UNL     1       3.665  36.875   6.512  1.00  0.00    -0.065 C
BRANCH   7   8
HETATM    8  C3  UNL     1       3.895  38.250   6.147  1.00  0.00     0.332 C
BRANCH   8   9
HETATM    9  N1  UNL     1       2.708  39.033   6.194  1.00  0.00    -0.053 N
HETATM   10  C17 UNL     1       1.620  38.669   5.351  1.00  0.00     0.271 C
HETATM   11  C18 UNL     1       1.393  40.122   4.942  1.00  0.00     0.170 C
HETATM   12  C19 UNL     1       2.791  40.300   5.491  1.00  0.00     0.271 C
BRANCH   9  13
HETATM   13  C2  UNL     1       2.330  39.292   7.582  1.00  0.00     0.234 C
HETATM   14  C1  UNL     1       3.393  40.213   8.152  1.00  0.00     0.035 C
ENDBRANCH   9  13
BRANCH  11  15
HETATM   15  O2  UNL     1       1.296  40.342   3.589  1.00  0.00    -0.392 OA
ATOM     16  H2  UNL     1       1.441  41.239   3.312  1.00  0.00     0.210 HD
ENDBRANCH  11  15
ENDBRANCH   8   9
ENDBRANCH   7   8
ENDBRANCH   5   6
ENDBRANCH   1   4
BRANCH   3  17
HETATM   17  C10 UNL     1       1.873  30.410   9.866  1.00  0.00     0.035 C
BRANCH  17  18
HETATM   18  C11 UNL     1       0.641  30.241  10.714  1.00  0.00     0.003 C
BRANCH  18  19
HETATM   19  C12 UNL     1       1.009  30.390  12.207  1.00  0.00     0.000 C
BRANCH  19  20
HETATM   20  C13 UNL     1      -0.156  31.019  12.899  1.00  0.00     0.000 C
BRANCH  20  21
HETATM   21  C14 UNL     1      -0.986  31.971  12.148  1.00  0.00     0.002 C
BRANCH  21  22
HETATM   22  C15 UNL     1      -0.733  33.413  12.171  1.00  0.00     0.027 C
BRANCH  22  23
HETATM   23  C16 UNL     1       0.038  34.069  11.101  1.00  0.00     0.229 C
BRANCH  23  24
HETATM   24  N2  UNL     1      -0.786  34.719  10.098  1.00  0.00    -0.079 N
ATOM     25  H23 UNL     1      -0.826  35.724  10.263  1.00  0.00     0.274 HD
ATOM     26  H22 UNL     1      -0.320  34.712   9.191  1.00  0.00     0.274 HD
ATOM     27  H21 UNL     1      -1.727  34.331  10.020  1.00  0.00     0.274 HD
ENDBRANCH  23  24
ENDBRANCH  22  23
ENDBRANCH  21  22
ENDBRANCH  20  21
ENDBRANCH  19  20
ENDBRANCH  18  19
ENDBRANCH  17  18
ENDBRANCH   3  17
TORSDOF 14
ENDMDL