MODEL 3
REMARK VINA RESULT: -5.375354554      1.492      1.856
REMARK  11 active torsions:
REMARK  status: ('A' for Active; 'I' for Inactive)
REMARK    1  A    between atoms: C1_4  and  C2_5
REMARK    2  A    between atoms: C1_4  and  N4_21
REMARK    3  A    between atoms: C2_5  and  C3_6
REMARK    4  A    between atoms: C3_6  and  C4_7
REMARK    5  A    between atoms: C4_7  and  C5_8
REMARK    6  A    between atoms: C5_8  and  C6_9
REMARK    7  A    between atoms: C6_9  and  N2_10
REMARK    8  A    between atoms: N3_13  and  C9_14
REMARK    9  A    between atoms: C9_14  and  C10_15
REMARK   10  A    between atoms: C10_15  and  O1_16
REMARK   11  A    between atoms: C15_23  and  O2_24
ROOT
HETATM    1  C4  UNL     1       3.034  36.945  10.992  1.00  0.00     0.002 C
ENDROOT
BRANCH   1   2
HETATM    2  C3  UNL     1       1.771  36.998  11.767  1.00  0.00     0.007 C
BRANCH   2   3
HETATM    3  C2  UNL     1       1.656  36.132  12.954  1.00  0.00     0.076 C
BRANCH   3   4
HETATM    4  C1  UNL     1       1.940  34.710  12.786  1.00  0.00     0.072 C
HETATM    5  N1  UNL     1       2.863  34.046  13.343  1.00  0.00    -0.389 N
ATOM      6  H12 UNL     1       3.485  34.548  13.977  1.00  0.00     0.157 HD
ATOM      7  H11 UNL     1       3.061  33.052  13.225  1.00  0.00     0.157 HD
BRANCH   4   8
HETATM    8  N4  UNL     1       1.056  33.998  11.887  1.00  0.00    -0.366 N
HETATM    9  C14 UNL     1       1.107  33.459  10.547  1.00  0.00     0.157 C
HETATM   10  C15 UNL     1      -0.405  33.701  10.470  1.00  0.00     0.154 C
HETATM   11  C16 UNL     1      -0.309  33.516  11.981  1.00  0.00     0.157 C
BRANCH  10  12
HETATM   12  O2  UNL     1      -0.742  35.012  10.165  1.00  0.00    -0.392 OA
ATOM     13  H2  UNL     1      -1.336  35.089   9.428  1.00  0.00     0.210 HD
ENDBRANCH  10  12
ENDBRANCH   4   8
ENDBRANCH   3   4
ENDBRANCH   2   3
ENDBRANCH   1   2
BRANCH   1  14
HETATM   14  C5  UNL     1       2.704  36.736   9.504  1.00  0.00     0.028 C
BRANCH  14  15
HETATM   15  C6  UNL     1       3.822  37.412   8.738  1.00  0.00     0.239 C
BRANCH  15  16
HETATM   16  N2  UNL     1       3.450  37.911   7.474  1.00  0.00    -0.040 N
HETATM   17  C7  UNL     1       2.748  36.994   6.621  1.00  0.00     0.267 C
HETATM   18  C8  UNL     1       2.105  37.948   5.603  1.00  0.00     0.267 C
HETATM   19  N3  UNL     1       2.418  39.268   6.089  1.00  0.00    -0.038 N
HETATM   20  C11 UNL     1       3.797  39.537   5.802  1.00  0.00     0.267 C
HETATM   21  C13 UNL     1       2.478  39.014   7.539  1.00  0.00     0.473 C
HETATM   22  C12 UNL     1       4.509  38.525   6.713  1.00  0.00     0.267 C
BRANCH  19  23
HETATM   23  C9  UNL     1       1.505  40.281   5.733  1.00  0.00     0.265 C
BRANCH  23  24
HETATM   24  C10 UNL     1       0.669  39.899   4.536  1.00  0.00     0.192 C
BRANCH  24  25
HETATM   25  O1  UNL     1       1.228  40.549   3.412  1.00  0.00    -0.399 OA
ATOM     26  H1  UNL     1       0.590  40.495   2.710  1.00  0.00     0.209 HD
ENDBRANCH  24  25
ENDBRANCH  23  24
ENDBRANCH  19  23
ENDBRANCH  15  16
ENDBRANCH  14  15
ENDBRANCH   1  14
TORSDOF 11
ENDMDL