MODEL 1
REMARK VINA RESULT: -7.613283473      0.000      0.000
REMARK  4 active torsions:
REMARK  status: ('A' for Active; 'I' for Inactive)
REMARK    1  A    between atoms: C1_2  and  C2_4
REMARK    2  A    between atoms: C2_4  and  N2_5
REMARK    3  A    between atoms: N2_5  and  N3_7
REMARK       I    between atoms: N3_7  and  C3_9
REMARK    4  A    between atoms: C3_9  and  C4_11
ROOT
HETATM    1  N3  UNL     1      21.043  -3.147  12.400  1.00  0.00    -0.266 N
ATOM      2  H3  UNL     1      20.965  -4.065  12.838  1.00  0.00     0.190 HD
HETATM    3  C3  UNL     1      22.019  -3.002  11.399  1.00  0.00     0.270 C
HETATM    4  O2  UNL     1      22.226  -1.916  10.773  1.00  0.00    -0.266 OA
ENDROOT
BRANCH   1   5
HETATM    5  N2  UNL     1      20.191  -2.177  12.844  1.00  0.00    -0.304 N
ATOM      6  H2  UNL     1      20.500  -1.206  12.881  1.00  0.00     0.186 HD
BRANCH   5   7
HETATM    7  C2  UNL     1      18.888  -2.516  13.251  1.00  0.00     0.177 C
BRANCH   7   8
HETATM    8  C1  UNL     1      17.925  -2.141  12.167  1.00  0.00     0.271 C
HETATM    9  N1  UNL     1      18.001  -2.717  10.871  1.00  0.00    -0.057 NA
HETATM   10  O1  UNL     1      17.043  -1.300  12.431  1.00  0.00    -0.270 OA
ENDBRANCH   7   8
ENDBRANCH   5   7
ENDBRANCH   1   5
BRANCH   3  11
HETATM   11  C4  UNL     1      22.885  -4.111  10.994  1.00  0.00     0.033 A
HETATM   12  C5  UNL     1      22.892  -5.329  11.675  1.00  0.00     0.017 A
HETATM   13  C6  UNL     1      23.704  -6.377  11.303  1.00  0.00     0.001 A
HETATM   14  C7  UNL     1      24.549  -6.234  10.219  1.00  0.00     0.000 A
HETATM   15  C8  UNL     1      24.566  -5.036   9.522  1.00  0.00     0.001 A
HETATM   16  C9  UNL     1      23.727  -3.989   9.924  1.00  0.00     0.017 A
ENDBRANCH   3  11
TORSDOF 4
ENDMDL