MODEL 1
REMARK VINA RESULT: -7.836949354      0.000      0.000
REMARK  4 active torsions:
REMARK  status: ('A' for Active; 'I' for Inactive)
REMARK    1  A    between atoms: C2_2  and  C3_3
REMARK    2  A    between atoms: C3_3  and  N1_4
REMARK    3  A    between atoms: N1_4  and  C4_6
REMARK    4  A    between atoms: C6_13  and  C7_14
ROOT
HETATM    1  C4  UNL     1      23.803  -5.293  10.413  1.00  0.00     0.138 A
HETATM    2  N2  UNL     1      24.804  -5.501   9.522  1.00  0.00    -0.293 N
ATOM      3  H2  UNL     1      25.271  -6.387   9.329  1.00  0.00     0.172 HD
HETATM    4  C5  UNL     1      25.062  -4.316   8.944  1.00  0.00     0.326 A
HETATM    5  O1  UNL     1      25.938  -4.111   8.055  1.00  0.00    -0.247 OA
HETATM    6  N3  UNL     1      24.257  -3.382   9.447  1.00  0.00    -0.301 N
ATOM      7  H3  UNL     1      24.252  -2.399   9.175  1.00  0.00     0.171 HD
HETATM    8  C6  UNL     1      23.437  -3.949  10.385  1.00  0.00     0.146 A
ENDROOT
BRANCH   1   9
HETATM    9  N1  UNL     1      23.254  -6.270  11.245  1.00  0.00    -0.371 N
ATOM     10  H1  UNL     1      23.295  -6.108  12.251  1.00  0.00     0.161 HD
BRANCH   9  11
HETATM   11  C3  UNL     1      22.644  -7.474  10.801  1.00  0.00     0.148 C
BRANCH  11  12
HETATM   12  C2  UNL     1      23.557  -8.583  10.465  1.00  0.00    -0.018 C
HETATM   13  C1  UNL     1      24.677  -8.791  11.111  1.00  0.00     0.008 C
ENDBRANCH  11  12
ENDBRANCH   9  11
ENDBRANCH   1   9
BRANCH   8  14
HETATM   14  C7  UNL     1      22.420  -3.234  11.146  1.00  0.00     0.285 C
HETATM   15  N4  UNL     1      21.650  -3.952  12.106  1.00  0.00    -0.056 NA
HETATM   16  O2  UNL     1      22.209  -2.042  10.985  1.00  0.00    -0.269 OA
ENDBRANCH   8  14
TORSDOF 4
ENDMDL