MODEL 3
REMARK VINA RESULT: -6.291965296      1.387      2.101
REMARK  4 active torsions:
REMARK  status: ('A' for Active; 'I' for Inactive)
REMARK    1  A    between atoms: C2_2  and  C3_3
REMARK    2  A    between atoms: C3_3  and  N1_4
REMARK       I    between atoms: C4_6  and  N3_8
REMARK    3  A    between atoms: N3_8  and  N4_10
REMARK    4  A    between atoms: C5_12  and  C6_13
ROOT
HETATM    1  N4  UNL     1      21.215  -3.517  12.695  1.00  0.00    -0.307 N
ATOM      2  H4  UNL     1      21.883  -3.987  13.306  1.00  0.00     0.186 HD
HETATM    3  C5  UNL     1      20.093  -3.277  13.177  1.00  0.00     0.138 C
ENDROOT
BRANCH   1   4
HETATM    4  N3  UNL     1      21.652  -3.216  11.426  1.00  0.00    -0.274 N
HETATM    5  C4  UNL     1      22.792  -3.933  10.912  1.00  0.00     0.203 C
HETATM    6  N1  UNL     1      22.814  -5.198  11.129  1.00  0.00    -0.360 N
HETATM    7  N2  UNL     1      23.813  -3.259  10.215  1.00  0.00    -0.062 NA
ATOM      8  H1  UNL     1      22.042  -5.623  11.642  1.00  0.00     0.162 HD
ATOM      9  H3  UNL     1      21.182  -2.507  10.863  1.00  0.00     0.189 HD
BRANCH   6  10
HETATM   10  C3  UNL     1      23.901  -6.042  10.668  1.00  0.00     0.148 C
BRANCH  10  11
HETATM   11  C2  UNL     1      24.053  -7.268  11.492  1.00  0.00    -0.018 C
HETATM   12  C1  UNL     1      24.393  -8.396  10.902  1.00  0.00     0.008 C
ENDBRANCH  10  11
ENDBRANCH   6  10
ENDBRANCH   1   4
BRANCH   3  13
HETATM   13  C6  UNL     1      18.949  -2.620  12.534  1.00  0.00     0.065 A
HETATM   14  C7  UNL     1      18.507  -2.664  11.239  1.00  0.00     0.119 A
HETATM   15  N5  UNL     1      17.392  -1.887  11.091  1.00  0.00    -0.360 N
HETATM   16  C8  UNL     1      17.147  -1.364  12.298  1.00  0.00     0.180 A
ATOM     17  H5  UNL     1      16.856  -1.736  10.235  1.00  0.00     0.166 HD
HETATM   18  N6  UNL     1      18.064  -1.788  13.175  1.00  0.00    -0.350 N
ATOM     19  H6  UNL     1      18.100  -1.534  14.162  1.00  0.00     0.166 HD
ENDBRANCH   3  13
TORSDOF 4
ENDMDL