MODEL 1
REMARK VINA RESULT: -6.747017881      0.000      0.000
REMARK  3 active torsions:
REMARK  status: ('A' for Active; 'I' for Inactive)
REMARK       I    between atoms: C1_4  and  N3_6
REMARK    1  A    between atoms: N3_6  and  C2_8
REMARK    2  A    between atoms: C2_8  and  N4_9
REMARK       I    between atoms: N4_9  and  C3_11
REMARK    3  A    between atoms: C3_11  and  C4_13
ROOT
HETATM    1  N4  UNL     1      21.443  -3.472  12.233  1.00  0.00    -0.339 N
ATOM      2  H4  UNL     1      21.516  -4.448  12.521  1.00  0.00     0.164 HD
HETATM    3  C3  UNL     1      22.263  -2.962  11.197  1.00  0.00     0.276 C
HETATM    4  O1  UNL     1      22.189  -1.770  10.831  1.00  0.00    -0.265 OA
ENDROOT
BRANCH   1   5
HETATM    5  C2  UNL     1      20.501  -2.585  12.876  1.00  0.00     0.249 C
BRANCH   5   6
HETATM    6  N3  UNL     1      19.310  -2.519  12.073  1.00  0.00    -0.349 N
HETATM    7  C1  UNL     1      18.084  -2.180  12.690  1.00  0.00     0.183 C
HETATM    8  N1  UNL     1      17.780  -2.766  13.799  1.00  0.00    -0.374 N
HETATM    9  N2  UNL     1      17.179  -1.236  12.147  1.00  0.00    -0.064 NA
ATOM     10  H12 UNL     1      16.895  -2.522  14.244  1.00  0.00     0.158 HD
ATOM     11  H11 UNL     1      18.432  -3.446  14.190  1.00  0.00     0.158 HD
ATOM     12  H3  UNL     1      19.350  -2.713  11.073  1.00  0.00     0.163 HD
ENDBRANCH   5   6
ENDBRANCH   1   5
BRANCH   3  13
HETATM   13  C4  UNL     1      23.213  -3.871  10.552  1.00  0.00     0.142 A
HETATM   14  C5  UNL     1      23.253  -5.259  10.734  1.00  0.00     0.045 A
HETATM   15  C6  UNL     1      24.297  -5.671   9.935  1.00  0.00     0.027 A
HETATM   16  C7  UNL     1      24.847  -4.574   9.311  1.00  0.00     0.143 A
HETATM   17  O2  UNL     1      24.164  -3.542   9.714  1.00  0.00    -0.317 OA
ENDBRANCH   3  13
TORSDOF 3
ENDMDL