MODEL 1
REMARK VINA RESULT: -7.541693780      0.000      0.000
REMARK  4 active torsions:
REMARK  status: ('A' for Active; 'I' for Inactive)
REMARK    1  A    between atoms: N2_3  and  N3_5
REMARK       I    between atoms: N3_5  and  C2_7
REMARK    2  A    between atoms: C2_7  and  C3_9
REMARK    3  A    between atoms: C3_9  and  N4_10
REMARK    4  A    between atoms: N4_10  and  C4_12
ROOT
HETATM    1  C3  UNL     1      22.958  -3.952  11.340  1.00  0.00     0.224 C
ENDROOT
BRANCH   1   2
HETATM    2  C2  UNL     1      21.918  -2.920  11.466  1.00  0.00     0.253 C
HETATM    3  N3  UNL     1      20.796  -3.151  12.292  1.00  0.00    -0.268 N
ATOM      4  H3  UNL     1      20.736  -4.041  12.787  1.00  0.00     0.190 HD
HETATM    5  O1  UNL     1      22.014  -1.838  10.854  1.00  0.00    -0.270 OA
BRANCH   3   6
HETATM    6  N2  UNL     1      19.769  -2.230  12.469  1.00  0.00    -0.296 N
HETATM    7  C1  UNL     1      18.538  -2.597  12.526  1.00  0.00     0.207 C
HETATM    8  N1  UNL     1      17.488  -1.648  12.707  1.00  0.00    -0.095 NA
ATOM      9  H2  UNL     1      19.997  -1.240  12.554  1.00  0.00     0.187 HD
ENDBRANCH   3   6
ENDBRANCH   1   2
BRANCH   1  10
HETATM   10  N4  UNL     1      22.407  -5.235  11.785  1.00  0.00    -0.381 N
ATOM     11  H4  UNL     1      21.563  -5.271  12.357  1.00  0.00     0.160 HD
BRANCH  10  12
HETATM   12  C4  UNL     1      23.074  -6.422  11.403  1.00  0.00     0.028 A
HETATM   13  C5  UNL     1      24.406  -6.616  11.672  1.00  0.00     0.029 A
HETATM   14  C6  UNL     1      25.063  -7.792  11.293  1.00  0.00     0.002 A
HETATM   15  C7  UNL     1      24.333  -8.757  10.638  1.00  0.00     0.000 A
HETATM   16  C8  UNL     1      23.011  -8.569  10.369  1.00  0.00     0.002 A
HETATM   17  C9  UNL     1      22.371  -7.403  10.748  1.00  0.00     0.029 A
ENDBRANCH  10  12
ENDBRANCH   1  10
TORSDOF 4
ENDMDL