MODEL 5
REMARK VINA RESULT: -6.487706066      2.235      5.864
REMARK  4 active torsions:
REMARK  status: ('A' for Active; 'I' for Inactive)
REMARK    1  A    between atoms: C2_2  and  C3_3
REMARK    2  A    between atoms: C3_3  and  N1_4
REMARK       I    between atoms: N1_4  and  C4_6
REMARK       I    between atoms: C4_6  and  N3_10
REMARK    3  A    between atoms: N3_10  and  N4_12
REMARK    4  A    between atoms: C5_14  and  C6_15
ROOT
HETATM    1  N1  UNL     1      19.845  -3.986  14.678  1.00  0.00    -0.222 N
ATOM      2  H1  UNL     1      20.805  -4.123  14.359  1.00  0.00     0.178 HD
HETATM    3  C4  UNL     1      19.063  -2.916  14.113  1.00  0.00     0.686 C
HETATM    4  N2  UNL     1      17.816  -2.807  14.361  1.00  0.00    -0.234 N
ATOM      5  H21 UNL     1      17.261  -2.049  13.961  1.00  0.00     0.174 HD
ATOM      6  H22 UNL     1      17.378  -3.496  14.972  1.00  0.00     0.174 HD
HETATM    7  N3  UNL     1      19.672  -1.954  13.261  1.00  0.00    -0.133 N
ATOM      8  H3  UNL     1      19.223  -1.048  13.127  1.00  0.00     0.205 HD
ENDROOT
BRANCH   7   9
HETATM    9  N4  UNL     1      20.884  -2.229  12.598  1.00  0.00    -0.295 N
HETATM   10  C5  UNL     1      20.962  -3.008  11.591  1.00  0.00     0.138 C
ATOM     11  H4  UNL     1      21.737  -1.786  12.938  1.00  0.00     0.186 HD
BRANCH  10  12
HETATM   12  C6  UNL     1      22.234  -3.253  10.950  1.00  0.00     0.066 A
HETATM   13  C7  UNL     1      22.517  -4.226  10.003  1.00  0.00     0.051 A
HETATM   14  C8  UNL     1      23.859  -4.075   9.684  1.00  0.00     0.109 A
HETATM   15  N5  UNL     1      24.342  -3.069  10.402  1.00  0.00    -0.311 N
HETATM   16  N6  UNL     1      23.376  -2.576  11.158  1.00  0.00    -0.300 N
ATOM     17  H5  UNL     1      25.304  -2.730  10.375  1.00  0.00     0.186 HD
ATOM     18  H6  UNL     1      23.483  -1.795  11.805  1.00  0.00     0.187 HD
ENDBRANCH  10  12
ENDBRANCH   7   9
BRANCH   1  19
HETATM   19  C3  UNL     1      19.313  -4.859  15.670  1.00  0.00     0.164 C
BRANCH  19  20
HETATM   20  C2  UNL     1      20.287  -5.341  16.674  1.00  0.00    -0.017 C
HETATM   21  C1  UNL     1      21.163  -6.302  16.444  1.00  0.00     0.008 C
ENDBRANCH  19  20
ENDBRANCH   1  19
TORSDOF 4
ENDMDL