MODEL 4
REMARK VINA RESULT: -6.252098261      2.600      3.093
REMARK  4 active torsions:
REMARK  status: ('A' for Active; 'I' for Inactive)
REMARK    1  A    between atoms: N1_1  and  S1_4
REMARK    2  A    between atoms: S1_4  and  N2_7
REMARK    3  A    between atoms: N2_7  and  N3_9
REMARK    4  A    between atoms: N3_9  and  C1_11
ROOT
HETATM    1  N2  UNL     1      21.516  -2.717  10.508  1.00  0.00    -0.209 N
ATOM      2  H2  UNL     1      20.973  -2.685   9.646  1.00  0.00     0.201 HD
ENDROOT
BRANCH   1   3
HETATM    3  S1  UNL     1      20.907  -2.857  12.139  1.00  0.00     0.330 S
HETATM    4  O1  UNL     1      20.981  -4.278  12.621  1.00  0.00    -0.181 OA
HETATM    5  O2  UNL     1      21.703  -1.919  12.996  1.00  0.00    -0.181 OA
BRANCH   3   6
HETATM    6  N1  UNL     1      19.238  -2.341  12.080  1.00  0.00    -0.310 N
ATOM      7  H12 UNL     1      18.658  -2.172  12.902  1.00  0.00     0.170 HD
ATOM      8  H11 UNL     1      18.945  -2.240  11.108  1.00  0.00     0.170 HD
ENDBRANCH   3   6
ENDBRANCH   1   3
BRANCH   1   9
HETATM    9  N3  UNL     1      22.916  -2.660  10.640  1.00  0.00    -0.275 N
ATOM     10  H3  UNL     1      23.366  -1.851  11.068  1.00  0.00     0.189 HD
BRANCH   9  11
HETATM   11  C1  UNL     1      23.697  -3.755  10.163  1.00  0.00     0.120 A
HETATM   12  C2  UNL     1      23.551  -5.070  10.603  1.00  0.00     0.051 A
HETATM   13  C3  UNL     1      24.470  -5.805   9.897  1.00  0.00     0.021 A
HETATM   14  C4  UNL     1      25.138  -4.935   9.062  1.00  0.00     0.090 A
HETATM   15  N4  UNL     1      24.664  -3.687   9.226  1.00  0.00    -0.351 N
ATOM     16  H4  UNL     1      24.976  -2.848   8.736  1.00  0.00     0.166 HD
ENDBRANCH   9  11
ENDBRANCH   1   9
TORSDOF 4
ENDMDL