MODEL 5
REMARK VINA RESULT: -6.018894973      1.569      1.646
REMARK  4 active torsions:
REMARK  status: ('A' for Active; 'I' for Inactive)
REMARK    1  A    between atoms: C1_2  and  C2_4
REMARK    2  A    between atoms: C5_7  and  C6_8
REMARK    3  A    between atoms: C6_8  and  N2_9
REMARK    4  A    between atoms: N2_9  and  C7_12
ROOT
HETATM    1  C2  UNL     1      23.088  -4.736  11.262  1.00  0.00     0.098 A
HETATM    2  C3  UNL     1      23.728  -5.939  10.940  1.00  0.00     0.037 A
HETATM    3  C4  UNL     1      23.158  -6.872  11.785  1.00  0.00     0.029 A
HETATM    4  C5  UNL     1      22.224  -6.294  12.584  1.00  0.00     0.035 A
HETATM    5  N3  UNL     1      22.192  -5.006  12.258  1.00  0.00    -0.354 N
ATOM      6  H3  UNL     1      21.581  -4.314  12.692  1.00  0.00     0.166 HD
ENDROOT
BRANCH   4   7
HETATM    7  C6  UNL     1      21.382  -6.962  13.619  1.00  0.00     0.289 C
BRANCH   7   8
HETATM    8  N2  UNL     1      20.752  -5.977  14.466  1.00  0.00    -0.066 N
ATOM      9  H22 UNL     1      21.320  -5.131  14.514  1.00  0.00     0.278 HD
ATOM     10  H21 UNL     1      19.917  -5.600  14.017  1.00  0.00     0.278 HD
BRANCH   8  11
HETATM   11  C7  UNL     1      20.443  -6.448  15.781  1.00  0.00     0.186 A
HETATM   12  C8  UNL     1      20.361  -5.308  16.828  1.00  0.00     0.035 A
HETATM   13  C9  UNL     1      21.393  -6.419  16.895  1.00  0.00     0.035 A
ENDBRANCH   8  11
ENDBRANCH   7   8
ENDBRANCH   4   7
BRANCH   1  14
HETATM   14  C1  UNL     1      23.322  -3.438  10.651  1.00  0.00     0.281 C
HETATM   15  N1  UNL     1      22.419  -2.384  10.887  1.00  0.00    -0.056 NA
HETATM   16  O1  UNL     1      24.345  -3.310   9.920  1.00  0.00    -0.269 OA
ENDBRANCH   1  14
TORSDOF 4
ENDMDL