MODEL 5
REMARK VINA RESULT: -6.228575969      1.040      1.423
REMARK  4 active torsions:
REMARK  status: ('A' for Active; 'I' for Inactive)
REMARK    1  A    between atoms: C2_2  and  C3_3
REMARK    2  A    between atoms: C3_3  and  C4_7
REMARK    3  A    between atoms: C6_9  and  C7_10
REMARK    4  A    between atoms: C7_10  and  N2_11
REMARK       I    between atoms: N2_11  and  C8_13
ROOT
HETATM    1  C4  UNL     1      22.837  -4.298  10.932  1.00  0.00     0.173 C
HETATM    2  C5  UNL     1      23.116  -2.919  11.411  1.00  0.00     0.072 C
HETATM    3  C6  UNL     1      21.630  -2.806  11.215  1.00  0.00     0.143 C
HETATM    4  O1  UNL     1      21.739  -3.826  10.255  1.00  0.00    -0.373 OA
ENDROOT
BRANCH   3   5
HETATM    5  C7  UNL     1      20.836  -3.151  12.423  1.00  0.00     0.154 C
BRANCH   5   6
HETATM    6  N2  UNL     1      19.848  -2.163  12.766  1.00  0.00    -0.362 N
HETATM    7  C8  UNL     1      18.454  -2.345  12.575  1.00  0.00     0.181 C
HETATM    8  N3  UNL     1      17.911  -2.320  11.399  1.00  0.00    -0.374 N
HETATM    9  N4  UNL     1      17.576  -2.552  13.669  1.00  0.00    -0.064 NA
ATOM     10  H32 UNL     1      18.543  -2.171  10.612  1.00  0.00     0.158 HD
ATOM     11  H31 UNL     1      16.909  -2.451  11.262  1.00  0.00     0.158 HD
ATOM     12  H2  UNL     1      20.168  -1.283  13.171  1.00  0.00     0.162 HD
ENDBRANCH   5   6
ENDBRANCH   3   5
BRANCH   1  13
HETATM   13  C3  UNL     1      23.859  -4.990  10.142  1.00  0.00     0.031 C
HETATM   14  N1  UNL     1      23.998  -6.273  10.304  1.00  0.00    -0.400 N
ATOM     15  H12 UNL     1      24.710  -6.754   9.754  1.00  0.00     0.156 HD
ATOM     16  H11 UNL     1      23.370  -6.722  10.970  1.00  0.00     0.156 HD
BRANCH  13  17
HETATM   17  C2  UNL     1      24.744  -4.357   9.203  1.00  0.00     0.017 C
HETATM   18  C1  UNL     1      25.095  -4.826   8.025  1.00  0.00     0.013 C
ENDBRANCH  13  17
ENDBRANCH   1  13
TORSDOF 4
ENDMDL