MODEL 1
REMARK VINA RESULT: -6.113393005      0.000      0.000
REMARK  6 active torsions:
REMARK  status: ('A' for Active; 'I' for Inactive)
REMARK    1  A    between atoms: C2_2  and  C4_4
REMARK    2  A    between atoms: C4_4  and  N1_5
REMARK    3  A    between atoms: C4_4  and  C5_9
REMARK    4  A    between atoms: N1_5  and  N2_6
REMARK    5  A    between atoms: C6_12  and  C7_13
REMARK    6  A    between atoms: N4_14  and  N5_16
ROOT
HETATM    1  C5  UNL     1      23.105  -5.680  11.100  1.00  0.00     0.073 A
HETATM    2  N3  UNL     1      22.400  -4.625  11.330  1.00  0.00    -0.351 N
ATOM      3  H3  UNL     1      21.713  -4.641  12.085  1.00  0.00     0.166 HD
HETATM    4  C6  UNL     1      22.542  -3.531  10.619  1.00  0.00     0.056 A
HETATM    5  C8  UNL     1      23.472  -3.565   9.621  1.00  0.00     0.082 A
HETATM    6  S1  UNL     1      24.076  -5.190   9.793  1.00  0.00    -0.085 SA
ENDROOT
BRANCH   1   7
HETATM    7  C4  UNL     1      23.173  -7.033  11.715  1.00  0.00     0.159 C
BRANCH   7   8
HETATM    8  C2  UNL     1      23.587  -8.030  10.653  1.00  0.00     0.005 C
HETATM    9  C1  UNL     1      24.315  -9.211  11.264  1.00  0.00     0.011 C
HETATM   10  C3  UNL     1      22.340  -8.502   9.936  1.00  0.00     0.011 C
ENDBRANCH   7   8
BRANCH   7  11
HETATM   11  N1  UNL     1      21.890  -7.471  12.219  1.00  0.00    -0.136 NA
BRANCH  11  12
HETATM   12  N2  UNL     1      21.624  -7.020  13.495  1.00  0.00    -0.348 N
ATOM     13  H22 UNL     1      22.249  -7.199  14.281  1.00  0.00     0.172 HD
ATOM     14  H21 UNL     1      20.751  -6.496  13.563  1.00  0.00     0.172 HD
ENDBRANCH  11  12
ENDBRANCH   7  11
ENDBRANCH   1   7
BRANCH   4  15
HETATM   15  C7  UNL     1      21.717  -2.342  10.910  1.00  0.00     0.136 C
HETATM   16  N4  UNL     1      20.636  -2.017  10.333  1.00  0.00    -0.316 N
ATOM     17  H4  UNL     1      20.209  -1.156  10.674  1.00  0.00     0.185 HD
BRANCH  16  18
HETATM   18  N5  UNL     1      19.948  -2.643   9.319  1.00  0.00    -0.345 N
ATOM     19  H52 UNL     1      20.456  -3.420   8.898  1.00  0.00     0.176 HD
ATOM     20  H51 UNL     1      19.023  -2.450   8.933  1.00  0.00     0.176 HD
ENDBRANCH  16  18
ENDBRANCH   4  15
TORSDOF 6
ENDMDL