MODEL 5
REMARK VINA RESULT: -5.469374516      3.238      6.075
REMARK  3 active torsions:
REMARK  status: ('A' for Active; 'I' for Inactive)
REMARK    1  A    between atoms: C2_2  and  N1_3
REMARK       I    between atoms: N1_3  and  C3_5
REMARK       I    between atoms: C3_5  and  N3_9
REMARK    2  A    between atoms: N3_9  and  C4_11
REMARK    3  A    between atoms: C7_14  and  C8_15
ROOT
HETATM    1  N1  UNL     1      19.730  -2.306  11.413  1.00  0.00    -0.227 N
ATOM      2  H1  UNL     1      19.068  -1.720  10.903  1.00  0.00     0.177 HD
HETATM    3  C3  UNL     1      21.073  -2.432  10.979  1.00  0.00     0.672 C
HETATM    4  N2  UNL     1      22.021  -1.730  11.476  1.00  0.00    -0.235 N
ATOM      5  H21 UNL     1      22.988  -1.821  11.163  1.00  0.00     0.174 HD
ATOM      6  H22 UNL     1      21.809  -1.059  12.213  1.00  0.00     0.174 HD
HETATM    7  N3  UNL     1      21.366  -3.359   9.960  1.00  0.00    -0.193 N
ATOM      8  H3  UNL     1      21.005  -3.208   9.018  1.00  0.00     0.184 HD
ENDROOT
BRANCH   7   9
HETATM    9  C4  UNL     1      22.160  -4.502  10.237  1.00  0.00     0.049 A
HETATM   10  C5  UNL     1      21.917  -5.186  11.434  1.00  0.00     0.031 A
HETATM   11  C6  UNL     1      22.661  -6.289  11.728  1.00  0.00     0.019 A
HETATM   12  C7  UNL     1      23.652  -6.765  10.887  1.00  0.00     0.029 A
HETATM   13  C9  UNL     1      23.869  -6.073   9.717  1.00  0.00     0.019 A
HETATM   14  C10 UNL     1      23.135  -4.942   9.375  1.00  0.00     0.031 A
BRANCH  12  15
HETATM   15  C8  UNL     1      24.433  -7.944  11.216  1.00  0.00     0.264 C
HETATM   16  N4  UNL     1      23.867  -9.232  11.228  1.00  0.00    -0.057 NA
HETATM   17  O1  UNL     1      25.646  -7.787  11.495  1.00  0.00    -0.271 OA
ENDBRANCH  12  15
ENDBRANCH   7   9
BRANCH   1  18
HETATM   18  C2  UNL     1      19.322  -3.029  12.601  1.00  0.00     0.133 C
HETATM   19  C1  UNL     1      17.856  -2.720  12.837  1.00  0.00     0.027 C
ENDBRANCH   1  18
TORSDOF 3
ENDMDL