MODEL 2
REMARK VINA RESULT: -6.258451185      3.355      6.527
REMARK  5 active torsions:
REMARK  status: ('A' for Active; 'I' for Inactive)
REMARK    1  A    between atoms: C2_2  and  C4_10
REMARK    2  A    between atoms: N1_3  and  N2_5
REMARK    3  A    between atoms: C7_13  and  C8_14
REMARK    4  A    between atoms: C8_14  and  N5_15
REMARK    5  A    between atoms: N5_15  and  N6_16
ROOT
HETATM    1  C4  UNL     1      21.719  -6.071  12.702  1.00  0.00    -0.013 A
HETATM    2  C5  UNL     1      21.683  -4.926  11.956  1.00  0.00     0.014 A
HETATM    3  C6  UNL     1      22.526  -4.830  10.837  1.00  0.00     0.009 A
HETATM    4  C7  UNL     1      23.372  -5.834  10.473  1.00  0.00    -0.042 A
HETATM    5  C9  UNL     1      23.396  -6.976  11.229  1.00  0.00     0.009 A
HETATM    6  C10 UNL     1      22.587  -7.088  12.320  1.00  0.00     0.014 A
ENDROOT
BRANCH   1   7
HETATM    7  C2  UNL     1      20.873  -6.264  13.891  1.00  0.00     0.032 C
HETATM    8  C1  UNL     1      21.111  -7.505  14.735  1.00  0.00     0.070 C
HETATM    9  N1  UNL     1      19.995  -5.494  14.243  1.00  0.00    -0.302 N
ATOM     10  H1  UNL     1      19.567  -5.863  15.092  1.00  0.00     0.186 HD
BRANCH   9  11
HETATM   11  N2  UNL     1      19.384  -4.346  13.932  1.00  0.00    -0.276 N
HETATM   12  C3  UNL     1      18.254  -4.013  14.429  1.00  0.00     0.215 C
HETATM   13  N3  UNL     1      17.622  -4.873  15.336  1.00  0.00    -0.065 NA
HETATM   14  N4  UNL     1      17.672  -2.782  14.049  1.00  0.00    -0.065 NA
ATOM     15  H2  UNL     1      19.837  -3.713  13.272  1.00  0.00     0.189 HD
ENDBRANCH   9  11
ENDBRANCH   1   7
BRANCH   4  16
HETATM   16  C8  UNL     1      24.230  -5.676   9.286  1.00  0.00     0.172 C
BRANCH  16  17
HETATM   17  N5  UNL     1      24.450  -4.272   9.060  1.00  0.00    -0.144 NA
BRANCH  17  18
HETATM   18  N6  UNL     1      25.001  -4.050   7.785  1.00  0.00    -0.348 N
ATOM     19  H62 UNL     1      25.049  -4.762   7.057  1.00  0.00     0.172 HD
ATOM     20  H61 UNL     1      25.338  -3.092   7.698  1.00  0.00     0.172 HD
ENDBRANCH  17  18
ENDBRANCH  16  17
ENDBRANCH   4  16
TORSDOF 5
ENDMDL