MODEL 5
REMARK VINA RESULT: -6.612863156      1.059      1.105
REMARK  6 active torsions:
REMARK  status: ('A' for Active; 'I' for Inactive)
REMARK    1  A    between atoms: C2_2  and  N1_3
REMARK    2  A    between atoms: C2_2  and  C3_7
REMARK       I    between atoms: C3_7  and  N2_9
REMARK    3  A    between atoms: N2_9  and  C4_11
REMARK    4  A    between atoms: C4_11  and  N3_12
REMARK    5  A    between atoms: C4_11  and  C5_16
REMARK    6  A    between atoms: C5_16  and  C6_20
ROOT
HETATM    1  C4  UNL     1      20.669  -3.208  11.002  1.00  0.00     0.335 C
ENDROOT
BRANCH   1   2
HETATM    2  N2  UNL     1      20.121  -2.591  12.189  1.00  0.00    -0.327 N
HETATM    3  C3  UNL     1      19.571  -3.307  13.281  1.00  0.00     0.249 C
HETATM    4  O1  UNL     1      19.567  -4.563  13.197  1.00  0.00    -0.271 OA
ATOM      5  H2  UNL     1      20.130  -1.572  12.244  1.00  0.00     0.165 HD
BRANCH   3   6
HETATM    6  C2  UNL     1      19.014  -2.693  14.483  1.00  0.00     0.270 C
HETATM    7  C1  UNL     1      17.479  -2.706  14.462  1.00  0.00     0.050 C
BRANCH   6   8
HETATM    8  N1  UNL     1      19.411  -3.477  15.634  1.00  0.00    -0.067 N
ATOM      9  H13 UNL     1      19.003  -3.147  16.508  1.00  0.00     0.275 HD
ATOM     10  H12 UNL     1      19.001  -4.410  15.649  1.00  0.00     0.275 HD
ATOM     11  H11 UNL     1      20.431  -3.482  15.638  1.00  0.00     0.275 HD
ENDBRANCH   6   8
ENDBRANCH   3   6
ENDBRANCH   1   2
BRANCH   1  12
HETATM   12  N3  UNL     1      20.576  -2.330   9.852  1.00  0.00    -0.053 N
ATOM     13  H33 UNL     1      20.170  -1.428  10.104  1.00  0.00     0.277 HD
ATOM     14  H32 UNL     1      21.497  -2.011   9.551  1.00  0.00     0.277 HD
ATOM     15  H31 UNL     1      20.064  -2.768   9.086  1.00  0.00     0.277 HD
ENDBRANCH   1  12
BRANCH   1  16
HETATM   16  C5  UNL     1      22.106  -3.531  11.191  1.00  0.00     0.063 C
HETATM   17  N4  UNL     1      22.886  -2.559  11.445  1.00  0.00    -0.399 N
ATOM     18  H42 UNL     1      22.523  -1.609  11.526  1.00  0.00     0.156 HD
ATOM     19  H41 UNL     1      23.873  -2.781  11.574  1.00  0.00     0.156 HD
BRANCH  16  20
HETATM   20  C6  UNL     1      22.624  -4.887  11.075  1.00  0.00    -0.010 A
HETATM   21  C7  UNL     1      23.487  -5.246  10.036  1.00  0.00     0.013 A
HETATM   22  C8  UNL     1      23.983  -6.508   9.926  1.00  0.00     0.001 A
HETATM   23  C9  UNL     1      23.653  -7.484  10.835  1.00  0.00     0.000 A
HETATM   24  C10 UNL     1      22.810  -7.142  11.854  1.00  0.00     0.001 A
HETATM   25  C11 UNL     1      22.286  -5.859  11.993  1.00  0.00     0.013 A
ENDBRANCH  16  20
ENDBRANCH   1  16
TORSDOF 6
ENDMDL