MODEL 3
REMARK VINA RESULT: -6.242015445      5.100      7.338
REMARK  3 active torsions:
REMARK  status: ('A' for Active; 'I' for Inactive)
REMARK    1  A    between atoms: C2_2  and  C3_3
REMARK    2  A    between atoms: C4_6  and  C5_7
REMARK    3  A    between atoms: C9_13  and  N3_14
REMARK       I    between atoms: N3_14  and  C10_16
ROOT
HETATM    1  C3  UNL     1      19.074  -4.086  15.232  1.00  0.00     0.059 A
HETATM    2  N1  UNL     1      19.819  -3.748  14.135  1.00  0.00    -0.350 N
ATOM      3  H1  UNL     1      20.793  -4.046  14.072  1.00  0.00     0.166 HD
HETATM    4  C4  UNL     1      19.271  -3.024  13.136  1.00  0.00     0.104 A
HETATM    5  C6  UNL     1      17.966  -2.614  13.198  1.00  0.00    -0.028 A
HETATM    6  C7  UNL     1      17.361  -1.825  12.114  1.00  0.00     0.050 C
HETATM    7  C8  UNL     1      17.242  -2.965  14.312  1.00  0.00     0.041 A
HETATM    8  C9  UNL     1      17.771  -3.704  15.352  1.00  0.00     0.062 A
ENDROOT
BRANCH   8   9
HETATM    9  N3  UNL     1      17.023  -4.001  16.510  1.00  0.00    -0.329 N
HETATM   10  C10 UNL     1      16.479  -2.932  17.327  1.00  0.00     0.186 C
HETATM   11  N4  UNL     1      17.258  -2.265  18.105  1.00  0.00    -0.373 N
HETATM   12  N5  UNL     1      15.101  -2.632  17.262  1.00  0.00    -0.064 NA
ATOM     13  H42 UNL     1      18.254  -2.482  18.152  1.00  0.00     0.158 HD
ATOM     14  H41 UNL     1      16.877  -1.514  18.680  1.00  0.00     0.158 HD
ATOM     15  H3  UNL     1      16.863  -4.973  16.776  1.00  0.00     0.168 HD
ENDBRANCH   8   9
BRANCH   1  16
HETATM   16  C2  UNL     1      19.821  -4.865  16.208  1.00  0.00     0.021 C
HETATM   17  C1  UNL     1      20.335  -6.016  15.891  1.00  0.00     0.013 C
ENDBRANCH   1  16
BRANCH   4  18
HETATM   18  C5  UNL     1      20.141  -2.712  12.005  1.00  0.00     0.281 C
HETATM   19  N2  UNL     1      21.451  -2.209  12.207  1.00  0.00    -0.056 NA
HETATM   20  O1  UNL     1      19.737  -2.886  10.845  1.00  0.00    -0.269 OA
ENDBRANCH   4  18
TORSDOF 3
ENDMDL