MODEL 3
REMARK VINA RESULT: -7.345953501      3.167      4.412
REMARK  3 active torsions:
REMARK  status: ('A' for Active; 'I' for Inactive)
REMARK    1  A    between atoms: C2_2  and  C3_3
REMARK    2  A    between atoms: C7_7  and  C8_8
REMARK    3  A    between atoms: N2_10  and  N3_12
REMARK       I    between atoms: N3_12  and  C9_14
ROOT
HETATM    1  C8  UNL     1      21.168  -6.173  13.255  1.00  0.00     0.141 C
HETATM    2  N1  UNL     1      20.433  -4.972  13.381  1.00  0.00    -0.080 NA
HETATM    3  N2  UNL     1      20.960  -7.131  14.060  1.00  0.00    -0.285 N
ATOM      4  H2  UNL     1      21.510  -7.981  13.937  1.00  0.00     0.188 HD
ENDROOT
BRANCH   1   5
HETATM    5  C7  UNL     1      22.151  -6.277  12.195  1.00  0.00     0.007 A
HETATM    6  C6  UNL     1      22.851  -7.451  11.958  1.00  0.00     0.015 A
HETATM    7  C5  UNL     1      23.783  -7.581  10.969  1.00  0.00     0.002 A
HETATM    8  C4  UNL     1      24.064  -6.521  10.153  1.00  0.00     0.007 A
HETATM    9  C3  UNL     1      23.386  -5.341  10.361  1.00  0.00    -0.058 A
HETATM   10  C10 UNL     1      22.448  -5.218  11.360  1.00  0.00     0.022 A
BRANCH   9  11
HETATM   11  C2  UNL     1      23.679  -4.161   9.474  1.00  0.00     0.034 C
HETATM   12  C1  UNL     1      24.461  -4.625   8.262  1.00  0.00     0.010 C
ENDBRANCH   9  11
ENDBRANCH   1   5
BRANCH   3  13
HETATM   13  N3  UNL     1      20.034  -7.105  15.102  1.00  0.00    -0.273 N
HETATM   14  C9  UNL     1      20.378  -7.089  16.479  1.00  0.00     0.200 C
HETATM   15  N4  UNL     1      19.713  -7.710  17.386  1.00  0.00    -0.372 N
HETATM   16  N5  UNL     1      21.533  -6.339  16.883  1.00  0.00    -0.062 NA
ATOM     17  H42 UNL     1      18.892  -8.244  17.099  1.00  0.00     0.158 HD
ATOM     18  H41 UNL     1      19.959  -7.699  18.376  1.00  0.00     0.158 HD
ATOM     19  H3  UNL     1      19.044  -7.098  14.857  1.00  0.00     0.189 HD
ENDBRANCH   3  13
TORSDOF 3
ENDMDL