MODEL 5
REMARK VINA RESULT: -5.574015746      4.183      6.656
REMARK  4 active torsions:
REMARK  status: ('A' for Active; 'I' for Inactive)
REMARK    1  A    between atoms: C2_2  and  C4_8
REMARK    2  A    between atoms: N1_3  and  N2_5
REMARK    3  A    between atoms: N2_5  and  C3_6
REMARK    4  A    between atoms: C7_11  and  C8_12
ROOT
HETATM    1  C4  UNL     1      18.142  -3.469  14.214  1.00  0.00    -0.012 A
HETATM    2  C5  UNL     1      19.411  -3.956  14.103  1.00  0.00     0.014 A
HETATM    3  C6  UNL     1      20.168  -3.641  12.984  1.00  0.00     0.016 A
HETATM    4  C7  UNL     1      19.725  -2.856  11.948  1.00  0.00     0.004 A
HETATM    5  C9  UNL     1      18.419  -2.370  12.086  1.00  0.00     0.016 A
HETATM    6  C10 UNL     1      17.656  -2.674  13.191  1.00  0.00     0.014 A
ENDROOT
BRANCH   1   7
HETATM    7  C2  UNL     1      17.331  -3.774  15.398  1.00  0.00     0.045 C
HETATM    8  C1  UNL     1      17.207  -5.155  15.885  1.00  0.00     0.071 C
HETATM    9  N1  UNL     1      16.745  -2.808  16.014  1.00  0.00    -0.237 N
ATOM     10  H1  UNL     1      16.916  -1.908  15.566  1.00  0.00     0.201 HD
BRANCH   9  11
HETATM   11  N2  UNL     1      16.006  -2.698  17.043  1.00  0.00    -0.297 NA
BRANCH  11  12
HETATM   12  C3  UNL     1      15.199  -2.577  18.165  1.00  0.00     0.466 C
HETATM   13  O1  UNL     1      14.032  -2.973  18.375  1.00  0.00    -0.266 OA
ENDBRANCH  11  12
ENDBRANCH   9  11
ENDBRANCH   1   7
BRANCH   4  14
HETATM   14  C8  UNL     1      20.502  -2.512  10.770  1.00  0.00     0.120 C
HETATM   15  N3  UNL     1      19.960  -2.418   9.629  1.00  0.00    -0.387 N
ATOM     16  H32 UNL     1      18.956  -2.581   9.553  1.00  0.00     0.157 HD
ATOM     17  H31 UNL     1      20.506  -2.175   8.801  1.00  0.00     0.157 HD
HETATM   18  N4  UNL     1      21.885  -2.286  10.874  1.00  0.00    -0.082 NA
ENDBRANCH   4  14
TORSDOF 4
ENDMDL