MODEL 5
REMARK VINA RESULT: -6.398171170      3.577      4.313
REMARK  6 active torsions:
REMARK  status: ('A' for Active; 'I' for Inactive)
REMARK    1  A    between atoms: N1_1  and  C1_4
REMARK    2  A    between atoms: C2_5  and  C3_6
REMARK       I    between atoms: C3_6  and  N2_8
REMARK    3  A    between atoms: N2_8  and  C4_10
REMARK    4  A    between atoms: C4_10  and  C5_11
REMARK    5  A    between atoms: C10_16  and  N3_17
REMARK    6  A    between atoms: N3_17  and  C11_19
ROOT
HETATM    1  C5  UNL     1      22.621  -6.697  12.029  1.00  0.00    -0.014 A
HETATM    2  C6  UNL     1      23.168  -7.930  11.806  1.00  0.00     0.011 A
HETATM    3  C7  UNL     1      23.878  -8.167  10.632  1.00  0.00     0.001 A
HETATM    4  C8  UNL     1      24.039  -7.182   9.697  1.00  0.00     0.002 A
HETATM    5  C9  UNL     1      23.464  -5.930   9.962  1.00  0.00     0.030 A
HETATM    6  C10 UNL     1      22.759  -5.648  11.097  1.00  0.00     0.042 A
ENDROOT
BRANCH   1   7
HETATM    7  C4  UNL     1      21.892  -6.391  13.270  1.00  0.00     0.164 C
BRANCH   7   8
HETATM    8  N2  UNL     1      20.652  -7.094  13.391  1.00  0.00    -0.346 N
HETATM    9  C3  UNL     1      19.934  -7.195  14.613  1.00  0.00     0.298 C
HETATM   10  O1  UNL     1      20.418  -6.645  15.634  1.00  0.00    -0.258 OA
ATOM     11  H2  UNL     1      20.265  -7.543  12.560  1.00  0.00     0.163 HD
BRANCH   9  12
HETATM   12  C2  UNL     1      18.693  -7.915  14.640  1.00  0.00     0.017 C
HETATM   13  C1  UNL     1      17.637  -8.528  14.643  1.00  0.00     0.013 C
BRANCH  13  14
HETATM   14  N1  UNL     1      16.438  -9.252  14.647  1.00  0.00    -0.359 N
ATOM     15  H12 UNL     1      16.995  -8.713  15.310  1.00  0.00     0.166 HD
ATOM     16  H11 UNL     1      15.568  -9.784  14.632  1.00  0.00     0.166 HD
ENDBRANCH  13  14
ENDBRANCH   9  12
ENDBRANCH   7   8
ENDBRANCH   1   7
BRANCH   6  17
HETATM   17  N3  UNL     1      22.165  -4.411  11.411  1.00  0.00    -0.334 N
ATOM     18  H3  UNL     1      21.396  -4.417  12.080  1.00  0.00     0.168 HD
BRANCH  17  19
HETATM   19  C11 UNL     1      22.545  -3.171  10.876  1.00  0.00     0.353 C
HETATM   20  O2  UNL     1      21.857  -2.163  10.682  1.00  0.00    -0.283 OA
ENDBRANCH  17  19
ENDBRANCH   6  17
TORSDOF 6
ENDMDL