MODEL 1
REMARK VINA RESULT: -7.681967712      0.000      0.000
REMARK  4 active torsions:
REMARK  status: ('A' for Active; 'I' for Inactive)
REMARK    1  A    between atoms: C1_2  and  C2_4
REMARK    2  A    between atoms: C2_4  and  C3_5
REMARK    3  A    between atoms: C7_9  and  N2_10
REMARK    4  A    between atoms: N2_10  and  N3_12
ROOT
HETATM    1  C3  UNL     1      23.304  -5.975  11.062  1.00  0.00    -0.048 A
HETATM    2  C4  UNL     1      24.107  -5.847   9.931  1.00  0.00     0.007 A
HETATM    3  C5  UNL     1      24.206  -4.667   9.226  1.00  0.00     0.003 A
HETATM    4  C6  UNL     1      23.505  -3.550   9.619  1.00  0.00     0.031 A
HETATM    5  C7  UNL     1      22.709  -3.655  10.730  1.00  0.00     0.048 A
HETATM    6  C9  UNL     1      22.606  -4.844  11.444  1.00  0.00     0.038 A
ENDROOT
BRANCH   5   7
HETATM    7  N2  UNL     1      21.937  -2.518  11.143  1.00  0.00    -0.299 N
ATOM      8  H2  UNL     1      22.449  -1.692  11.452  1.00  0.00     0.187 HD
BRANCH   7   9
HETATM    9  N3  UNL     1      20.596  -2.452  11.155  1.00  0.00    -0.276 N
HETATM   10  C8  UNL     1      19.686  -2.632  11.987  1.00  0.00     0.215 C
HETATM   11  N4  UNL     1      18.292  -2.464  11.625  1.00  0.00    -0.065 NA
HETATM   12  N5  UNL     1      19.938  -3.014  13.328  1.00  0.00    -0.065 NA
ATOM     13  H3  UNL     1      20.224  -2.184  10.244  1.00  0.00     0.189 HD
ENDBRANCH   7   9
ENDBRANCH   5   7
BRANCH   1  14
HETATM   14  C2  UNL     1      23.219  -7.276  11.774  1.00  0.00     0.138 C
BRANCH  14  15
HETATM   15  C1  UNL     1      23.474  -8.435  10.901  1.00  0.00     0.235 C
HETATM   16  N1  UNL     1      22.522  -8.699   9.868  1.00  0.00    -0.062 NA
HETATM   17  O1  UNL     1      24.492  -9.110  11.106  1.00  0.00    -0.277 OA
ENDBRANCH  14  15
ENDBRANCH   1  14
TORSDOF 4
ENDMDL