MODEL 1
REMARK VINA RESULT: -7.598610060      0.000      0.000
REMARK  5 active torsions:
REMARK  status: ('A' for Active; 'I' for Inactive)
REMARK    1  A    between atoms: C2_2  and  C3_3
REMARK    2  A    between atoms: C5_5  and  C6_6
REMARK    3  A    between atoms: C6_6  and  N1_7
REMARK    4  A    between atoms: N1_7  and  N2_8
REMARK       I    between atoms: N2_8  and  C7_10
REMARK    5  A    between atoms: C10_17  and  O1_18
ROOT
HETATM    1  C3  UNL     1      25.055  -5.578  11.121  1.00  0.00    -0.003 A
HETATM    2  C4  UNL     1      24.535  -4.295  11.133  1.00  0.00     0.022 A
HETATM    3  C5  UNL     1      23.176  -4.056  10.940  1.00  0.00    -0.041 A
HETATM    4  C8  UNL     1      22.369  -5.152  10.735  1.00  0.00     0.011 A
HETATM    5  C9  UNL     1      22.896  -6.440  10.724  1.00  0.00     0.038 A
HETATM    6  C10 UNL     1      24.236  -6.681  10.914  1.00  0.00     0.078 A
ENDROOT
BRANCH   3   7
HETATM    7  C6  UNL     1      22.596  -2.693  10.948  1.00  0.00     0.173 C
BRANCH   7   8
HETATM    8  N1  UNL     1      21.786  -2.523  12.110  1.00  0.00    -0.135 NA
BRANCH   8   9
HETATM    9  N2  UNL     1      20.432  -2.360  11.818  1.00  0.00    -0.278 N
HETATM   10  C7  UNL     1      19.407  -2.620  12.771  1.00  0.00     0.197 C
HETATM   11  N3  UNL     1      18.242  -2.985  12.391  1.00  0.00    -0.373 N
HETATM   12  N4  UNL     1      19.624  -2.491  14.172  1.00  0.00    -0.063 NA
ATOM     13  H32 UNL     1      18.087  -3.077  11.388  1.00  0.00     0.158 HD
ATOM     14  H31 UNL     1      17.507  -3.171  13.073  1.00  0.00     0.158 HD
ATOM     15  H2  UNL     1      20.166  -2.042  10.887  1.00  0.00     0.185 HD
ENDBRANCH   8   9
ENDBRANCH   7   8
ENDBRANCH   3   7
BRANCH   1  16
HETATM   16  C2  UNL     1      26.470  -5.840  11.322  1.00  0.00     0.004 C
HETATM   17  C1  UNL     1      26.911  -6.376  12.434  1.00  0.00     0.012 C
ENDBRANCH   1  16
BRANCH   6  18
HETATM   18  O1  UNL     1      24.765  -7.971  10.903  1.00  0.00    -0.355 OA
HETATM   19  C11 UNL     1      24.056  -9.101  10.512  1.00  0.00     0.210 C
ENDBRANCH   6  18
TORSDOF 5
ENDMDL