MODEL 1
REMARK VINA RESULT: -7.140080251      0.000      0.000
REMARK  6 active torsions:
REMARK  status: ('A' for Active; 'I' for Inactive)
REMARK       I    between atoms: C1_2  and  N2_4
REMARK    1  A    between atoms: N2_4  and  C2_6
REMARK    2  A    between atoms: C2_6  and  C3_7
REMARK    3  A    between atoms: C3_7  and  N3_8
REMARK    4  A    between atoms: N3_8  and  C4_10
REMARK    5  A    between atoms: C4_10  and  N4_11
REMARK    6  A    between atoms: C4_10  and  C5_15
ROOT
HETATM    1  C4  UNL     1      23.687  -4.468   9.458  1.00  0.00     0.311 C
ENDROOT
BRANCH   1   2
HETATM    2  N3  UNL     1      24.102  -3.433  10.356  1.00  0.00    -0.391 N
ATOM      3  H3  UNL     1      25.052  -3.061  10.356  1.00  0.00     0.155 HD
BRANCH   2   4
HETATM    4  C3  UNL     1      23.100  -2.958  11.251  1.00  0.00     0.136 C
BRANCH   4   5
HETATM    5  C2  UNL     1      21.760  -2.950  10.601  1.00  0.00     0.143 C
BRANCH   5   6
HETATM    6  N2  UNL     1      20.717  -2.346  11.378  1.00  0.00    -0.344 N
HETATM    7  C1  UNL     1      20.014  -2.968  12.412  1.00  0.00     0.328 C
HETATM    8  N1  UNL     1      19.000  -2.275  13.115  1.00  0.00    -0.040 NA
HETATM    9  O1  UNL     1      20.267  -4.149  12.741  1.00  0.00    -0.251 OA
ATOM     10  H2  UNL     1      20.468  -1.382  11.156  1.00  0.00     0.163 HD
ENDBRANCH   5   6
ENDBRANCH   4   5
ENDBRANCH   2   4
ENDBRANCH   1   2
BRANCH   1  11
HETATM   11  N4  UNL     1      24.470  -4.325   8.244  1.00  0.00    -0.054 N
ATOM     12  H43 UNL     1      24.983  -3.445   8.202  1.00  0.00     0.277 HD
ATOM     13  H42 UNL     1      25.276  -4.950   8.214  1.00  0.00     0.277 HD
ATOM     14  H41 UNL     1      23.834  -4.456   7.457  1.00  0.00     0.277 HD
ENDBRANCH   1  11
BRANCH   1  15
HETATM   15  C5  UNL     1      23.967  -5.827  10.004  1.00  0.00    -0.009 A
HETATM   16  C6  UNL     1      23.127  -6.896   9.782  1.00  0.00     0.011 A
HETATM   17  C7  UNL     1      23.370  -8.160  10.280  1.00  0.00     0.001 A
HETATM   18  C8  UNL     1      24.503  -8.365  11.034  1.00  0.00     0.000 A
HETATM   19  C9  UNL     1      25.359  -7.305  11.268  1.00  0.00     0.001 A
HETATM   20  C10 UNL     1      25.096  -6.046  10.759  1.00  0.00     0.011 A
ENDBRANCH   1  15
TORSDOF 6
ENDMDL