MODEL 3
REMARK VINA RESULT: -6.191543906      1.193      1.589
REMARK  6 active torsions:
REMARK  status: ('A' for Active; 'I' for Inactive)
REMARK    1  A    between atoms: N3_4  and  N4_6
REMARK    2  A    between atoms: N4_6  and  C2_8
REMARK    3  A    between atoms: C5_11  and  C6_12
REMARK    4  A    between atoms: C6_12  and  C7_13
REMARK    5  A    between atoms: C7_13  and  N5_14
REMARK    6  A    between atoms: N5_14  and  C8_16
ROOT
HETATM    1  C2  UNL     1      21.762  -3.265  11.271  1.00  0.00     0.048 A
HETATM    2  C3  UNL     1      22.989  -2.833  10.813  1.00  0.00     0.031 A
HETATM    3  C4  UNL     1      24.069  -3.689  10.750  1.00  0.00     0.009 A
HETATM    4  C5  UNL     1      23.986  -5.010  11.135  1.00  0.00    -0.057 A
HETATM    5  C9  UNL     1      22.759  -5.442  11.593  1.00  0.00     0.009 A
HETATM    6  C10 UNL     1      21.680  -4.587  11.657  1.00  0.00     0.031 A
ENDROOT
BRANCH   1   7
HETATM    7  N4  UNL     1      20.643  -2.384  11.337  1.00  0.00    -0.299 N
ATOM      8  H4  UNL     1      20.519  -1.661  10.627  1.00  0.00     0.187 HD
BRANCH   7   9
HETATM    9  N3  UNL     1      19.728  -2.509  12.361  1.00  0.00    -0.276 N
HETATM   10  C1  UNL     1      18.489  -2.741  12.253  1.00  0.00     0.215 C
HETATM   11  N1  UNL     1      17.881  -2.908  10.973  1.00  0.00    -0.065 NA
HETATM   12  N2  UNL     1      17.716  -2.831  13.457  1.00  0.00    -0.065 NA
ATOM     13  H3  UNL     1      20.090  -2.402  13.308  1.00  0.00     0.189 HD
ENDBRANCH   7   9
ENDBRANCH   1   7
BRANCH   4  14
HETATM   14  C6  UNL     1      25.167  -5.933  11.063  1.00  0.00     0.058 C
BRANCH  14  15
HETATM   15  C7  UNL     1      24.788  -7.354  11.314  1.00  0.00     0.126 C
BRANCH  15  16
HETATM   16  N5  UNL     1      24.313  -7.953  10.108  1.00  0.00    -0.368 N
ATOM     17  H5  UNL     1      24.796  -7.719   9.241  1.00  0.00     0.161 HD
BRANCH  16  18
HETATM   18  C8  UNL     1      23.228  -8.840  10.032  1.00  0.00     0.348 C
HETATM   19  O1  UNL     1      22.042  -8.468   9.865  1.00  0.00    -0.284 OA
ENDBRANCH  16  18
ENDBRANCH  15  16
ENDBRANCH  14  15
ENDBRANCH   4  14
TORSDOF 6
ENDMDL