MODEL 5
REMARK VINA RESULT: -6.121111153      1.985      2.920
REMARK  7 active torsions:
REMARK  status: ('A' for Active; 'I' for Inactive)
REMARK    1  A    between atoms: C4_4  and  C5_5
REMARK    2  A    between atoms: C5_5  and  N1_6
REMARK    3  A    between atoms: N1_6  and  C6_8
REMARK    4  A    between atoms: C6_8  and  C7_9
REMARK    5  A    between atoms: C7_9  and  S1_10
REMARK    6  A    between atoms: S1_10  and  C8_11
REMARK    7  A    between atoms: C10_13  and  N2_14
ROOT
HETATM    1  C1  UNL     1      25.751  -6.582  11.502  1.00  0.00     0.102 C
HETATM    2  C2  UNL     1      25.167  -7.588  11.121  1.00  0.00    -0.160 C
HETATM    3  C3  UNL     1      24.491  -8.779  10.699  1.00  0.00     0.051 C
HETATM    4  C4  UNL     1      23.214  -8.790  10.369  1.00  0.00     0.025 C
ENDROOT
BRANCH   4   5
HETATM    5  C5  UNL     1      22.443  -7.558  10.429  1.00  0.00     0.088 C
BRANCH   5   6
HETATM    6  N1  UNL     1      22.067  -7.017  11.665  1.00  0.00    -0.378 N
ATOM      7  H1  UNL     1      21.692  -7.636  12.384  1.00  0.00     0.164 HD
BRANCH   6   8
HETATM    8  C6  UNL     1      22.191  -5.654  11.941  1.00  0.00     0.071 C
BRANCH   8   9
HETATM    9  C7  UNL     1      22.617  -4.741  10.846  1.00  0.00     0.125 C
BRANCH   9  10
HETATM   10  S1  UNL     1      22.279  -2.991  11.304  1.00  0.00    -0.106 SA
BRANCH  10  11
HETATM   11  C8  UNL     1      20.496  -2.785  11.531  1.00  0.00     0.088 A
HETATM   12  C9  UNL     1      19.871  -2.667  12.769  1.00  0.00     0.087 A
HETATM   13  C10 UNL     1      18.528  -2.539  12.496  1.00  0.00     0.116 A
HETATM   14  N3  UNL     1      18.343  -2.577  11.168  1.00  0.00    -0.285 N
HETATM   15  N4  UNL     1      19.536  -2.725  10.617  1.00  0.00    -0.293 N
ATOM     16  H3  UNL     1      17.452  -2.505  10.677  1.00  0.00     0.188 HD
ATOM     17  H4  UNL     1      19.698  -2.785   9.612  1.00  0.00     0.187 HD
BRANCH  13  18
HETATM   18  N2  UNL     1      17.603  -2.405  13.369  1.00  0.00    -0.384 N
ATOM     19  H22 UNL     1      17.512  -1.622  14.016  1.00  0.00     0.157 HD
ATOM     20  H21 UNL     1      16.841  -3.063  13.530  1.00  0.00     0.157 HD
ENDBRANCH  13  18
ENDBRANCH  10  11
ENDBRANCH   9  10
ENDBRANCH   8   9
ENDBRANCH   6   8
ENDBRANCH   5   6
ENDBRANCH   4   5
TORSDOF 7
ENDMDL