MODEL 5
REMARK VINA RESULT: -6.729251370      1.690      2.203
REMARK  6 active torsions:
REMARK  status: ('A' for Active; 'I' for Inactive)
REMARK    1  A    between atoms: C1_2  and  C2_3
REMARK       I    between atoms: C1_2  and  N3_14
REMARK    2  A    between atoms: C2_3  and  N1_4
REMARK    3  A    between atoms: N1_4  and  C3_6
REMARK    4  A    between atoms: C3_6  and  C4_7
REMARK    5  A    between atoms: C4_7  and  C5_8
REMARK    6  A    between atoms: N3_14  and  C9_16
ROOT
HETATM    1  N1  UNL     1      22.422  -3.036   9.946  1.00  0.00    -0.413 N
ATOM      2  H1  UNL     1      22.523  -2.234   9.323  1.00  0.00     0.153 HD
ENDROOT
BRANCH   1   3
HETATM    3  C2  UNL     1      22.190  -2.869  11.331  1.00  0.00     0.217 C
BRANCH   3   4
HETATM    4  C1  UNL     1      20.845  -3.211  11.822  1.00  0.00     0.235 C
HETATM    5  O1  UNL     1      20.723  -4.272  12.483  1.00  0.00    -0.272 OA
HETATM    6  N3  UNL     1      19.711  -2.420  11.580  1.00  0.00    -0.355 N
ATOM      7  H3  UNL     1      19.825  -1.564  11.036  1.00  0.00     0.162 HD
BRANCH   6   8
HETATM    8  C9  UNL     1      18.385  -2.756  12.063  1.00  0.00     0.084 A
HETATM    9  C10 UNL     1      17.298  -2.635  10.961  1.00  0.00     0.027 A
HETATM   10  C11 UNL     1      17.305  -1.773  12.175  1.00  0.00     0.027 A
ENDBRANCH   6   8
ENDBRANCH   3   4
ENDBRANCH   1   3
BRANCH   1  11
HETATM   11  C3  UNL     1      22.508  -4.379   9.454  1.00  0.00     0.120 C
BRANCH  11  12
HETATM   12  C4  UNL     1      23.912  -4.690   8.931  1.00  0.00     0.076 C
BRANCH  12  13
HETATM   13  C5  UNL     1      24.683  -5.402  10.010  1.00  0.00     0.010 A
HETATM   14  C6  UNL     1      24.478  -6.719  10.414  1.00  0.00     0.026 A
HETATM   15  C7  UNL     1      25.368  -7.031  11.427  1.00  0.00     0.019 A
HETATM   16  C8  UNL     1      26.109  -5.861  11.617  1.00  0.00     0.088 A
HETATM   17  N2  UNL     1      25.681  -4.933  10.773  1.00  0.00    -0.369 N
ATOM     18  H2  UNL     1      26.061  -3.989  10.712  1.00  0.00     0.165 HD
ENDBRANCH  12  13
ENDBRANCH  11  12
ENDBRANCH   1  11
TORSDOF 6
ENDMDL