MODEL 3
REMARK VINA RESULT: -7.216074641      1.407      1.767
REMARK  5 active torsions:
REMARK  status: ('A' for Active; 'I' for Inactive)
REMARK    1  A    between atoms: C2_2  and  C3_3
REMARK    2  A    between atoms: C3_3  and  N1_4
REMARK       I    between atoms: N1_4  and  C4_6
REMARK       I    between atoms: C4_6  and  N2_8
REMARK    3  A    between atoms: N2_8  and  C5_10
REMARK    4  A    between atoms: C5_10  and  N3_11
REMARK    5  A    between atoms: N3_11  and  C6_13
ROOT
HETATM    1  C5  UNL     1      21.859  -2.957  10.598  1.00  0.00     0.249 C
ENDROOT
BRANCH   1   2
HETATM    2  N2  UNL     1      21.042  -2.176  11.497  1.00  0.00    -0.327 N
HETATM    3  C4  UNL     1      20.318  -2.886  12.513  1.00  0.00     0.317 C
HETATM    4  N1  UNL     1      19.516  -2.136  13.399  1.00  0.00    -0.340 N
HETATM    5  O1  UNL     1      20.398  -4.140  12.612  1.00  0.00    -0.247 OA
ATOM      6  H1  UNL     1      19.460  -1.122  13.308  1.00  0.00     0.164 HD
ATOM      7  H2  UNL     1      20.982  -1.162  11.413  1.00  0.00     0.165 HD
BRANCH   4   8
HETATM    8  C3  UNL     1      18.778  -2.813  14.431  1.00  0.00     0.150 C
BRANCH   8   9
HETATM    9  C2  UNL     1      19.259  -2.468  15.791  1.00  0.00    -0.018 C
HETATM   10  C1  UNL     1      19.150  -3.347  16.759  1.00  0.00     0.008 C
ENDBRANCH   8   9
ENDBRANCH   4   8
ENDBRANCH   1   2
BRANCH   1  11
HETATM   11  N3  UNL     1      23.165  -3.099  11.145  1.00  0.00    -0.360 N
ATOM     12  H3  UNL     1      23.625  -2.278  11.539  1.00  0.00     0.162 HD
BRANCH  11  13
HETATM   13  C6  UNL     1      23.859  -4.350  11.164  1.00  0.00     0.105 A
HETATM   14  C7  UNL     1      23.166  -5.534  11.237  1.00  0.00     0.103 A
HETATM   15  C8  UNL     1      23.797  -6.775  11.258  1.00  0.00     0.176 A
HETATM   16  O2  UNL     1      23.143  -7.855  11.326  1.00  0.00    -0.288 OA
HETATM   17  C9  UNL     1      25.187  -6.753  11.200  1.00  0.00     0.072 A
HETATM   18  C10 UNL     1      25.865  -5.550  11.127  1.00  0.00     0.093 A
HETATM   19  N4  UNL     1      25.187  -4.386  11.110  1.00  0.00    -0.352 N
ATOM     20  H4  UNL     1      25.707  -3.510  11.055  1.00  0.00     0.166 HD
ENDBRANCH  11  13
ENDBRANCH   1  11
TORSDOF 5
ENDMDL