MODEL 5
REMARK VINA RESULT: -6.630969449      1.549      6.565
REMARK  6 active torsions:
REMARK  status: ('A' for Active; 'I' for Inactive)
REMARK    1  A    between atoms: C2_2  and  C3_3
REMARK    2  A    between atoms: C3_3  and  N1_4
REMARK    3  A    between atoms: N1_4  and  C4_7
REMARK    4  A    between atoms: C4_7  and  C5_8
REMARK    5  A    between atoms: C5_8  and  N2_9
REMARK       I    between atoms: N2_9  and  C6_11
REMARK    6  A    between atoms: C6_11  and  C7_13
ROOT
HETATM    1  N2  UNL     1      21.887  -3.736  10.489  1.00  0.00    -0.355 N
ATOM      2  H2  UNL     1      21.245  -4.373  10.017  1.00  0.00     0.162 HD
HETATM    3  C6  UNL     1      21.436  -2.865  11.497  1.00  0.00     0.253 C
HETATM    4  O1  UNL     1      22.265  -2.087  12.064  1.00  0.00    -0.268 OA
ENDROOT
BRANCH   1   5
HETATM    5  C5  UNL     1      23.304  -3.701  10.141  1.00  0.00     0.150 C
BRANCH   5   6
HETATM    6  C4  UNL     1      23.755  -5.070   9.750  1.00  0.00     0.252 C
BRANCH   6   7
HETATM    7  N1  UNL     1      25.061  -5.391  10.220  1.00  0.00    -0.071 N
ATOM      8  H12 UNL     1      25.452  -4.634  10.779  1.00  0.00     0.277 HD
ATOM      9  H11 UNL     1      25.740  -5.393   9.458  1.00  0.00     0.277 HD
BRANCH   7  10
HETATM   10  C3  UNL     1      25.078  -6.626  10.934  1.00  0.00     0.259 C
BRANCH  10  11
HETATM   11  C2  UNL     1      24.069  -7.561  10.338  1.00  0.00    -0.010 C
HETATM   12  C1  UNL     1      24.150  -8.870  10.511  1.00  0.00     0.008 C
ENDBRANCH  10  11
ENDBRANCH   7  10
ENDBRANCH   6   7
ENDBRANCH   5   6
ENDBRANCH   1   5
BRANCH   3  13
HETATM   13  C7  UNL     1      20.017  -2.829  11.916  1.00  0.00     0.056 A
HETATM   14  C8  UNL     1      19.661  -2.813  13.236  1.00  0.00     0.019 A
HETATM   15  C9  UNL     1      18.317  -2.779  13.606  1.00  0.00     0.001 A
HETATM   16  C10 UNL     1      17.380  -2.763  12.605  1.00  0.00     0.002 A
HETATM   17  C11 UNL     1      17.690  -2.778  11.273  1.00  0.00     0.027 A
HETATM   18  C12 UNL     1      19.022  -2.812  10.932  1.00  0.00     0.062 A
HETATM   19  N3  UNL     1      19.428  -2.829   9.559  1.00  0.00    -0.101 NA
ENDBRANCH   3  13
TORSDOF 6
ENDMDL