MODEL 5
REMARK VINA RESULT: -6.333424936      2.411      3.037
REMARK  7 active torsions:
REMARK  status: ('A' for Active; 'I' for Inactive)
REMARK       I    between atoms: C1_4  and  N3_6
REMARK    1  A    between atoms: N3_6  and  C2_8
REMARK    2  A    between atoms: C2_8  and  C3_9
REMARK    3  A    between atoms: C3_9  and  N4_10
REMARK    4  A    between atoms: N4_10  and  C4_12
REMARK    5  A    between atoms: C4_12  and  C5_13
REMARK    6  A    between atoms: C8_16  and  O1_17
REMARK    7  A    between atoms: O1_17  and  O2_18
ROOT
HETATM    1  N4  UNL     1      20.770  -2.461  11.950  1.00  0.00    -0.377 N
ATOM      2  H4  UNL     1      21.315  -1.896  12.602  1.00  0.00     0.164 HD
ENDROOT
BRANCH   1   3
HETATM    3  C3  UNL     1      19.461  -2.795  12.289  1.00  0.00     0.080 C
BRANCH   3   4
HETATM    4  C2  UNL     1      19.239  -3.262  13.674  1.00  0.00     0.166 C
BRANCH   4   5
HETATM    5  N3  UNL     1      19.121  -2.217  14.664  1.00  0.00    -0.360 N
HETATM    6  C1  UNL     1      19.103  -2.569  16.063  1.00  0.00     0.182 C
HETATM    7  N1  UNL     1      18.908  -1.616  16.898  1.00  0.00    -0.374 N
HETATM    8  N2  UNL     1      19.293  -3.904  16.476  1.00  0.00    -0.064 NA
ATOM      9  H12 UNL     1      18.896  -1.865  17.888  1.00  0.00     0.158 HD
ATOM     10  H11 UNL     1      18.771  -0.650  16.600  1.00  0.00     0.158 HD
ATOM     11  H3  UNL     1      19.051  -1.241  14.378  1.00  0.00     0.162 HD
ENDBRANCH   4   5
ENDBRANCH   3   4
ENDBRANCH   1   3
BRANCH   1  12
HETATM   12  C4  UNL     1      21.370  -2.871  10.748  1.00  0.00     0.098 C
BRANCH  12  13
HETATM   13  C5  UNL     1      22.503  -3.830  11.090  1.00  0.00    -0.021 A
HETATM   14  C6  UNL     1      23.813  -3.429  10.945  1.00  0.00     0.015 A
HETATM   15  C7  UNL     1      24.818  -4.327  11.273  1.00  0.00     0.041 A
HETATM   16  C8  UNL     1      24.540  -5.605  11.737  1.00  0.00     0.106 A
HETATM   17  C9  UNL     1      23.225  -5.999  11.880  1.00  0.00     0.041 A
HETATM   18  C10 UNL     1      22.216  -5.098  11.551  1.00  0.00     0.015 A
BRANCH  16  19
HETATM   19  O1  UNL     1      25.520  -6.522  12.072  1.00  0.00    -0.200 OA
BRANCH  19  20
HETATM   20  O2  UNL     1      26.805  -6.196  11.823  1.00  0.00    -0.245 OA
ATOM     21  H2  UNL     1      27.425  -6.902  11.679  1.00  0.00     0.254 HD
ENDBRANCH  19  20
ENDBRANCH  16  19
ENDBRANCH  12  13
ENDBRANCH   1  12
TORSDOF 7
ENDMDL