MODEL 5
REMARK VINA RESULT: -6.269502729      1.447      1.982
REMARK  5 active torsions:
REMARK  status: ('A' for Active; 'I' for Inactive)
REMARK       I    between atoms: C1_4  and  N3_6
REMARK    1  A    between atoms: N3_6  and  C2_8
REMARK    2  A    between atoms: C2_8  and  C3_9
REMARK    3  A    between atoms: C3_9  and  N4_10
REMARK    4  A    between atoms: N4_10  and  C4_13
REMARK    5  A    between atoms: C4_13  and  C5_14
ROOT
HETATM    1  N4  UNL     1      23.968  -4.301  10.484  1.00  0.00    -0.073 N
ATOM      2  H41 UNL     1      24.696  -4.117   9.794  1.00  0.00     0.277 HD
ATOM      3  H42 UNL     1      23.491  -5.077  10.023  1.00  0.00     0.277 HD
ENDROOT
BRANCH   1   4
HETATM    4  C3  UNL     1      23.100  -3.181  10.616  1.00  0.00     0.251 C
BRANCH   4   5
HETATM    5  C2  UNL     1      21.805  -3.502   9.867  1.00  0.00     0.150 C
BRANCH   5   6
HETATM    6  N3  UNL     1      20.665  -2.786  10.334  1.00  0.00    -0.363 N
HETATM    7  C1  UNL     1      19.422  -2.741   9.650  1.00  0.00     0.181 C
HETATM    8  N1  UNL     1      19.270  -2.623   8.400  1.00  0.00    -0.374 N
HETATM    9  N2  UNL     1      18.200  -2.826  10.433  1.00  0.00    -0.064 NA
ATOM     10  H12 UNL     1      18.377  -2.591   7.908  1.00  0.00     0.158 HD
ATOM     11  H11 UNL     1      20.127  -2.563   7.850  1.00  0.00     0.158 HD
ATOM     12  H3  UNL     1      20.746  -2.276  11.212  1.00  0.00     0.162 HD
ENDBRANCH   5   6
ENDBRANCH   4   5
ENDBRANCH   1   4
BRANCH   1  13
HETATM   13  C4  UNL     1      24.538  -4.720  11.718  1.00  0.00     0.239 C
BRANCH  13  14
HETATM   14  C5  UNL     1      24.266  -6.199  11.948  1.00  0.00     0.035 C
HETATM   15  C6  UNL     1      24.827  -7.001  10.772  1.00  0.00     0.010 C
HETATM   16  C7  UNL     1      23.982  -8.231  10.613  1.00  0.00     0.027 C
HETATM   17  C8  UNL     1      22.571  -7.845  10.321  1.00  0.00     0.167 C
HETATM   18  O1  UNL     1      22.130  -6.739  10.986  1.00  0.00    -0.391 OA
HETATM   19  C9  UNL     1      22.809  -6.491  12.172  1.00  0.00     0.173 C
ENDBRANCH  13  14
ENDBRANCH   1  13
TORSDOF 5
ENDMDL