MODEL 5
REMARK VINA RESULT: -4.865783171      2.469      4.253
REMARK  5 active torsions:
REMARK  status: ('A' for Active; 'I' for Inactive)
REMARK    1  A    between atoms: C2_2  and  C3_3
REMARK    2  A    between atoms: C5_5  and  N1_6
REMARK    3  A    between atoms: N1_6  and  C6_8
REMARK    4  A    between atoms: C8_11  and  C9_12
REMARK    5  A    between atoms: C9_12  and  N2_13
ROOT
HETATM    1  C3  UNL     1      22.617  -5.541  11.243  1.00  0.00     0.210 C
HETATM    2  C4  UNL     1      22.595  -5.770   9.772  1.00  0.00     0.062 C
HETATM    3  C5  UNL     1      22.391  -4.563   8.932  1.00  0.00     0.088 C
HETATM    4  C7  UNL     1      21.536  -3.501   9.536  1.00  0.00     0.059 C
HETATM    5  C8  UNL     1      21.300  -3.647  11.002  1.00  0.00     0.213 C
HETATM    6  N3  UNL     1      22.499  -4.149  11.624  1.00  0.00    -0.062 N
ATOM      7  H31 UNL     1      23.328  -3.600  11.399  1.00  0.00     0.278 HD
ATOM      8  H32 UNL     1      22.518  -4.005  12.633  1.00  0.00     0.278 HD
ENDROOT
BRANCH   5   9
HETATM    9  C9  UNL     1      20.923  -2.364  11.683  1.00  0.00     0.262 C
BRANCH   9  10
HETATM   10  N2  UNL     1      19.485  -2.343  11.841  1.00  0.00    -0.077 N
ATOM     11  H23 UNL     1      19.004  -1.999  11.010  1.00  0.00     0.274 HD
ATOM     12  H22 UNL     1      19.078  -3.278  11.860  1.00  0.00     0.274 HD
ATOM     13  H21 UNL     1      19.265  -1.801  12.676  1.00  0.00     0.274 HD
ENDBRANCH   9  10
ENDBRANCH   5   9
BRANCH   3  14
HETATM   14  N1  UNL     1      23.689  -4.040   8.496  1.00  0.00    -0.363 N
ATOM     15  H1  UNL     1      24.000  -3.145   8.874  1.00  0.00     0.162 HD
BRANCH  14  16
HETATM   16  C6  UNL     1      24.524  -4.701   7.590  1.00  0.00     0.348 C
HETATM   17  O1  UNL     1      25.614  -4.227   7.187  1.00  0.00    -0.284 OA
ENDBRANCH  14  16
ENDBRANCH   3  14
BRANCH   1  18
HETATM   18  C2  UNL     1      23.809  -6.087  11.918  1.00  0.00    -0.005 C
HETATM   19  C1  UNL     1      24.731  -6.695  11.204  1.00  0.00     0.009 C
ENDBRANCH   1  18
TORSDOF 5
ENDMDL