MODEL 5
REMARK VINA RESULT: -6.035187812      2.668      6.219
REMARK  5 active torsions:
REMARK  status: ('A' for Active; 'I' for Inactive)
REMARK    1  A    between atoms: C2_2  and  C3_3
REMARK    2  A    between atoms: C3_3  and  N1_4
REMARK       I    between atoms: N1_4  and  C4_6
REMARK    3  A    between atoms: N3_8  and  N4_10
REMARK    4  A    between atoms: N4_10  and  C5_11
REMARK    5  A    between atoms: C5_11  and  C6_12
ROOT
HETATM    1  N1  UNL     1      18.320  -2.135  13.966  1.00  0.00    -0.359 N
ATOM      2  H1  UNL     1      18.667  -1.371  14.546  1.00  0.00     0.162 HD
HETATM    3  C4  UNL     1      18.868  -2.381  12.666  1.00  0.00     0.213 C
HETATM    4  N2  UNL     1      17.972  -2.855  11.677  1.00  0.00    -0.061 NA
HETATM    5  N3  UNL     1      20.113  -2.190  12.399  1.00  0.00    -0.207 N
ATOM      6  H3  UNL     1      20.647  -1.851  13.199  1.00  0.00     0.204 HD
ENDROOT
BRANCH   5   7
HETATM    7  N4  UNL     1      20.822  -2.335  11.347  1.00  0.00    -0.332 NA
BRANCH   7   8
HETATM    8  C5  UNL     1      21.426  -2.662  10.389  1.00  0.00     0.260 C
BRANCH   8   9
HETATM    9  C6  UNL     1      22.797  -3.219  10.419  1.00  0.00     0.168 A
HETATM   10  N5  UNL     1      24.029  -2.845  10.822  1.00  0.00    -0.268 N
HETATM   11  N6  UNL     1      24.568  -3.986  10.437  1.00  0.00    -0.239 N
ATOM     12  H5  UNL     1      24.402  -2.001  11.258  1.00  0.00     0.190 HD
HETATM   13  N7  UNL     1      23.373  -4.369  10.038  1.00  0.00    -0.268 N
ATOM     14  H6  UNL     1      25.503  -4.394  10.445  1.00  0.00     0.208 HD
ATOM     15  H7  UNL     1      23.019  -5.221   9.603  1.00  0.00     0.190 HD
ENDBRANCH   8   9
ENDBRANCH   7   8
ENDBRANCH   5   7
BRANCH   1  16
HETATM   16  C3  UNL     1      17.245  -3.014  14.438  1.00  0.00     0.148 C
BRANCH  16  17
HETATM   17  C2  UNL     1      17.847  -4.013  15.356  1.00  0.00    -0.018 C
HETATM   18  C1  UNL     1      18.057  -5.238  14.934  1.00  0.00     0.008 C
ENDBRANCH  16  17
ENDBRANCH   1  16
TORSDOF 5
ENDMDL