MODEL 4
REMARK VINA RESULT: -5.339583073      3.093      5.194
REMARK  4 active torsions:
REMARK  status: ('A' for Active; 'I' for Inactive)
REMARK       I    between atoms: C1_4  and  N3_6
REMARK    1  A    between atoms: N3_6  and  C2_8
REMARK    2  A    between atoms: C5_11  and  C6_12
REMARK    3  A    between atoms: C6_12  and  N4_13
REMARK    4  A    between atoms: N4_13  and  C7_16
ROOT
HETATM    1  C2  UNL     1      19.162  -2.475  12.131  1.00  0.00     0.089 C
HETATM    2  C3  UNL     1      17.833  -2.603  11.416  1.00  0.00     0.026 C
HETATM    3  C4  UNL     1      17.183  -2.268  12.765  1.00  0.00     0.010 C
HETATM    4  C5  UNL     1      18.410  -2.872  13.413  1.00  0.00     0.034 C
ENDROOT
BRANCH   4   5
HETATM    5  C6  UNL     1      18.881  -2.069  14.611  1.00  0.00     0.241 C
BRANCH   5   6
HETATM    6  N4  UNL     1      18.560  -2.763  15.824  1.00  0.00    -0.049 N
ATOM      7  H42 UNL     1      17.603  -3.114  15.825  1.00  0.00     0.280 HD
ATOM      8  H41 UNL     1      19.044  -3.658  15.896  1.00  0.00     0.280 HD
BRANCH   6   9
HETATM    9  C7  UNL     1      18.829  -1.902  16.956  1.00  0.00     0.322 A
HETATM   10  C8  UNL     1      17.932  -1.867  18.111  1.00  0.00     0.111 A
HETATM   11  N5  UNL     1      17.863  -0.867  17.171  1.00  0.00    -0.368 N
ATOM     12  H5  UNL     1      17.430  -0.001  16.852  1.00  0.00     0.161 HD
ENDBRANCH   6   9
ENDBRANCH   5   6
ENDBRANCH   4   5
BRANCH   1  13
HETATM   13  N3  UNL     1      20.192  -3.388  11.734  1.00  0.00    -0.360 N
HETATM   14  C1  UNL     1      21.257  -2.914  10.942  1.00  0.00     0.182 C
HETATM   15  N1  UNL     1      21.301  -2.997   9.666  1.00  0.00    -0.374 N
HETATM   16  N2  UNL     1      22.370  -2.294  11.603  1.00  0.00    -0.064 NA
ATOM     17  H12 UNL     1      22.072  -2.654   9.093  1.00  0.00     0.158 HD
ATOM     18  H11 UNL     1      20.511  -3.437   9.196  1.00  0.00     0.158 HD
ATOM     19  H3  UNL     1      20.154  -4.366  12.020  1.00  0.00     0.162 HD
ENDBRANCH   1  13
TORSDOF 4
ENDMDL