MODEL 2
REMARK VINA RESULT: -5.442053905      2.536      4.813
REMARK  5 active torsions:
REMARK  status: ('A' for Active; 'I' for Inactive)
REMARK    1  A    between atoms: C2_2  and  C3_3
REMARK    2  A    between atoms: C3_3  and  N1_4
REMARK    3  A    between atoms: N1_4  and  C4_7
REMARK    4  A    between atoms: C6_9  and  C7_10
REMARK    5  A    between atoms: C10_15  and  N3_16
ROOT
HETATM    1  C4  UNL     1      23.439  -5.132   9.407  1.00  0.00     0.217 C
HETATM    2  C5  UNL     1      22.237  -4.288   9.546  1.00  0.00     0.048 C
HETATM    3  C6  UNL     1      21.946  -3.799  10.930  1.00  0.00     0.077 C
HETATM    4  C8  UNL     1      23.113  -3.222  11.655  1.00  0.00     0.016 C
HETATM    5  C9  UNL     1      24.369  -3.416  10.864  1.00  0.00     0.036 C
HETATM    6  C10 UNL     1      24.419  -4.906  10.548  1.00  0.00     0.214 C
ENDROOT
BRANCH   1   7
HETATM    7  N1  UNL     1      23.218  -6.543   9.218  1.00  0.00    -0.066 N
ATOM      8  H12 UNL     1      24.103  -7.024   9.061  1.00  0.00     0.278 HD
ATOM      9  H11 UNL     1      22.764  -6.715   8.321  1.00  0.00     0.278 HD
BRANCH   7  10
HETATM   10  C3  UNL     1      22.494  -7.171  10.266  1.00  0.00     0.259 C
BRANCH  10  11
HETATM   11  C2  UNL     1      22.934  -8.547  10.601  1.00  0.00    -0.010 C
HETATM   12  C1  UNL     1      24.227  -8.872  10.625  1.00  0.00     0.008 C
ENDBRANCH  10  11
ENDBRANCH   7  10
ENDBRANCH   1   7
BRANCH   6  13
HETATM   13  N3  UNL     1      25.761  -5.256  10.241  1.00  0.00    -0.073 N
ATOM     14  H33 UNL     1      26.317  -4.419  10.068  1.00  0.00     0.274 HD
ATOM     15  H32 UNL     1      26.236  -5.610  11.072  1.00  0.00     0.274 HD
ATOM     16  H31 UNL     1      25.856  -5.914   9.468  1.00  0.00     0.274 HD
ENDBRANCH   6  13
BRANCH   3  17
HETATM   17  C7  UNL     1      20.956  -2.684  10.819  1.00  0.00     0.235 C
HETATM   18  N2  UNL     1      19.627  -2.755  11.311  1.00  0.00    -0.062 NA
HETATM   19  O1  UNL     1      21.329  -1.619  10.239  1.00  0.00    -0.277 OA
ENDBRANCH   3  17
TORSDOF 5
ENDMDL