MODEL 5
REMARK VINA RESULT: -5.936629184      1.601      6.562
REMARK  4 active torsions:
REMARK  status: ('A' for Active; 'I' for Inactive)
REMARK    1  A    between atoms: C2_2  and  C3_3
REMARK    2  A    between atoms: C3_3  and  N1_4
REMARK       I    between atoms: N1_4  and  C4_6
REMARK       I    between atoms: C4_6  and  N3_10
REMARK    3  A    between atoms: N3_10  and  N4_12
REMARK    4  A    between atoms: C5_14  and  C6_15
ROOT
HETATM    1  N1  UNL     1      19.668  -2.972  12.119  1.00  0.00    -0.201 N
ATOM      2  H1  UNL     1      19.647  -3.862  12.618  1.00  0.00     0.183 HD
HETATM    3  C4  UNL     1      20.647  -2.835  11.126  1.00  0.00     0.690 C
HETATM    4  N2  UNL     1      20.361  -2.431   9.953  1.00  0.00    -0.233 N
ATOM      5  H21 UNL     1      21.073  -2.331   9.230  1.00  0.00     0.174 HD
ATOM      6  H22 UNL     1      19.379  -2.220   9.775  1.00  0.00     0.174 HD
HETATM    7  N3  UNL     1      22.035  -3.134  11.377  1.00  0.00    -0.133 N
ATOM      8  H3  UNL     1      22.613  -2.414  11.812  1.00  0.00     0.205 HD
ENDROOT
BRANCH   7   9
HETATM    9  N4  UNL     1      22.625  -4.340  11.062  1.00  0.00    -0.295 N
HETATM   10  C5  UNL     1      22.187  -5.508  11.339  1.00  0.00     0.138 C
ATOM     11  H4  UNL     1      23.507  -4.295  10.552  1.00  0.00     0.186 HD
BRANCH  10  12
HETATM   12  C6  UNL     1      22.940  -6.706  10.931  1.00  0.00     0.065 A
HETATM   13  C7  UNL     1      24.247  -6.941  11.185  1.00  0.00     0.119 A
HETATM   14  N5  UNL     1      24.536  -8.148  10.639  1.00  0.00    -0.360 N
HETATM   15  C8  UNL     1      23.428  -8.639  10.062  1.00  0.00     0.180 A
ATOM     16  H5  UNL     1      25.445  -8.607  10.663  1.00  0.00     0.166 HD
HETATM   17  N6  UNL     1      22.438  -7.743  10.245  1.00  0.00    -0.350 N
ATOM     18  H6  UNL     1      21.476  -7.837   9.918  1.00  0.00     0.166 HD
ENDBRANCH  10  12
ENDBRANCH   7   9
BRANCH   1  19
HETATM   19  C3  UNL     1      18.716  -2.019  12.499  1.00  0.00     0.105 C
BRANCH  19  20
HETATM   20  C2  UNL     1      17.369  -2.024  11.961  1.00  0.00     0.007 C
HETATM   21  C1  UNL     1      16.892  -2.276  10.782  1.00  0.00     0.012 C
ENDBRANCH  19  20
ENDBRANCH   1  19
TORSDOF 4
ENDMDL