MODEL 1
REMARK VINA RESULT: -5.699550810      0.000      0.000
REMARK  5 active torsions:
REMARK  status: ('A' for Active; 'I' for Inactive)
REMARK    1  A    between atoms: C2_2  and  C3_3
REMARK    2  A    between atoms: C3_3  and  N1_4
REMARK    3  A    between atoms: N1_4  and  C4_7
REMARK    4  A    between atoms: C6_9  and  N2_10
REMARK    5  A    between atoms: C8_15  and  C9_16
ROOT
HETATM    1  C4  UNL     1      22.211  -4.775  10.120  1.00  0.00     0.201 C
HETATM    2  C5  UNL     1      22.758  -5.444   8.862  1.00  0.00     0.066 C
HETATM    3  C6  UNL     1      24.269  -5.126   8.860  1.00  0.00     0.186 C
HETATM    4  C7  UNL     1      24.507  -4.470  10.231  1.00  0.00     0.048 C
HETATM    5  C8  UNL     1      23.213  -3.676  10.304  1.00  0.00     0.107 C
ENDROOT
BRANCH   1   6
HETATM    6  N1  UNL     1      22.130  -5.694  11.201  1.00  0.00    -0.067 N
ATOM      7  H12 UNL     1      21.344  -5.465  11.810  1.00  0.00     0.277 HD
ATOM      8  H11 UNL     1      22.899  -5.550  11.855  1.00  0.00     0.277 HD
BRANCH   6   9
HETATM    9  C3  UNL     1      22.067  -7.050  10.792  1.00  0.00     0.259 C
BRANCH   9  10
HETATM   10  C2  UNL     1      23.190  -7.901  11.230  1.00  0.00    -0.010 C
HETATM   11  C1  UNL     1      23.856  -8.678  10.399  1.00  0.00     0.008 C
ENDBRANCH   9  10
ENDBRANCH   6   9
ENDBRANCH   1   6
BRANCH   5  12
HETATM   12  C9  UNL     1      23.060  -2.823  11.454  1.00  0.00     0.237 C
HETATM   13  N3  UNL     1      21.811  -2.223  11.732  1.00  0.00    -0.062 NA
HETATM   14  O1  UNL     1      24.017  -2.594  12.227  1.00  0.00    -0.276 OA
ENDBRANCH   5  12
BRANCH   3  15
HETATM   15  N2  UNL     1      24.562  -4.127   7.839  1.00  0.00    -0.075 N
ATOM     16  H23 UNL     1      24.553  -3.179   8.216  1.00  0.00     0.274 HD
ATOM     17  H22 UNL     1      25.537  -4.158   7.541  1.00  0.00     0.274 HD
ATOM     18  H21 UNL     1      23.918  -4.233   7.055  1.00  0.00     0.274 HD
ENDBRANCH   3  15
TORSDOF 5
ENDMDL