MODEL 4
REMARK VINA RESULT: -5.462264580      2.635      3.056
REMARK  4 active torsions:
REMARK  status: ('A' for Active; 'I' for Inactive)
REMARK    1  A    between atoms: C3_4  and  C4_5
REMARK    2  A    between atoms: N2_6  and  C5_8
REMARK    3  A    between atoms: C5_8  and  N3_9
REMARK    4  A    between atoms: N3_9  and  C6_11
ROOT
HETATM    1  N1  UNL     1      24.270  -4.574   8.046  1.00  0.00    -0.083 NA
HETATM    2  C1  UNL     1      23.511  -4.049   9.134  1.00  0.00     0.118 A
HETATM    3  C2  UNL     1      22.179  -4.275   9.379  1.00  0.00     0.061 A
HETATM    4  C3  UNL     1      21.875  -3.574  10.525  1.00  0.00     0.023 A
HETATM    5  C7  UNL     1      23.042  -2.936  10.949  1.00  0.00     0.129 A
HETATM    6  N4  UNL     1      23.097  -2.115  12.116  1.00  0.00    -0.082 NA
HETATM    7  N5  UNL     1      24.000  -3.249  10.084  1.00  0.00    -0.333 N
ATOM      8  H5  UNL     1      24.966  -2.926  10.138  1.00  0.00     0.168 HD
ENDROOT
BRANCH   4   9
HETATM    9  C4  UNL     1      20.569  -3.520  11.166  1.00  0.00     0.099 C
HETATM   10  N2  UNL     1      20.060  -2.400  11.592  1.00  0.00    -0.382 N
ATOM     11  H2  UNL     1      20.585  -1.533  11.478  1.00  0.00     0.160 HD
BRANCH  10  12
HETATM   12  C5  UNL     1      18.759  -2.370  12.226  1.00  0.00     0.245 C
BRANCH  12  13
HETATM   13  N3  UNL     1      18.864  -2.163  13.657  1.00  0.00    -0.352 N
ATOM     14  H3  UNL     1      19.519  -1.474  14.027  1.00  0.00     0.163 HD
BRANCH  13  15
HETATM   15  C6  UNL     1      18.058  -2.920  14.541  1.00  0.00     0.349 C
HETATM   16  O1  UNL     1      16.812  -2.790  14.614  1.00  0.00    -0.284 OA
ENDBRANCH  13  15
ENDBRANCH  12  13
ENDBRANCH  10  12
ENDBRANCH   4   9
TORSDOF 4
ENDMDL