MODEL 3
REMARK VINA RESULT: -5.526063122      2.682      5.219
REMARK  4 active torsions:
REMARK  status: ('A' for Active; 'I' for Inactive)
REMARK    1  A    between atoms: C1_4  and  C2_6
REMARK    2  A    between atoms: C5_9  and  N3_10
REMARK    3  A    between atoms: N3_10  and  N4_11
REMARK    4  A    between atoms: N3_10  and  C6_14
ROOT
HETATM    1  C2  UNL     1      23.322  -7.176  10.623  1.00  0.00     0.005 A
HETATM    2  C3  UNL     1      24.378  -6.387  10.205  1.00  0.00     0.017 A
HETATM    3  C4  UNL     1      24.277  -5.029  10.415  1.00  0.00     0.032 A
HETATM    4  C5  UNL     1      23.180  -4.454  11.013  1.00  0.00     0.058 A
HETATM    5  C7  UNL     1      22.138  -5.253  11.423  1.00  0.00     0.032 A
HETATM    6  C8  UNL     1      22.202  -6.638  11.228  1.00  0.00     0.017 A
ENDROOT
BRANCH   4   7
HETATM    7  N3  UNL     1      23.168  -3.046  11.175  1.00  0.00    -0.238 N
BRANCH   7   8
HETATM    8  N4  UNL     1      24.360  -2.413  11.503  1.00  0.00    -0.336 N
ATOM      9  H42 UNL     1      24.526  -1.418  11.345  1.00  0.00     0.177 HD
ATOM     10  H41 UNL     1      25.104  -2.972  11.921  1.00  0.00     0.177 HD
ENDBRANCH   7   8
BRANCH   7  11
HETATM   11  C6  UNL     1      21.950  -2.354  10.997  1.00  0.00     0.376 C
HETATM   12  O1  UNL     1      21.335  -1.977  12.049  1.00  0.00    -0.281 OA
ENDBRANCH   7  11
ENDBRANCH   4   7
BRANCH   1  13
HETATM   13  C1  UNL     1      23.418  -8.619  10.389  1.00  0.00     0.120 C
HETATM   14  N1  UNL     1      24.391  -9.344  10.825  1.00  0.00    -0.387 N
ATOM     15  H12 UNL     1      24.457 -10.348  10.662  1.00  0.00     0.157 HD
ATOM     16  H11 UNL     1      25.124  -8.865  11.348  1.00  0.00     0.157 HD
HETATM   17  N2  UNL     1      22.401  -9.283   9.664  1.00  0.00    -0.082 NA
ENDBRANCH   1  13
TORSDOF 4
ENDMDL