MODEL 5
REMARK VINA RESULT: -5.481461743      3.890      5.399
REMARK  3 active torsions:
REMARK  status: ('A' for Active; 'I' for Inactive)
REMARK    1  A    between atoms: C1_4  and  C2_6
REMARK    2  A    between atoms: C5_9  and  N3_10
REMARK    3  A    between atoms: N3_10  and  S1_12
ROOT
HETATM    1  C2  UNL     1      24.334  -6.525  11.551  1.00  0.00     0.006 A
HETATM    2  C3  UNL     1      23.145  -6.545  12.225  1.00  0.00     0.017 A
HETATM    3  C4  UNL     1      22.302  -5.430  12.290  1.00  0.00     0.033 A
HETATM    4  C5  UNL     1      22.641  -4.255  11.673  1.00  0.00     0.067 A
HETATM    5  C6  UNL     1      23.856  -4.239  10.986  1.00  0.00     0.074 A
HETATM    6  N4  UNL     1      24.216  -3.032  10.345  1.00  0.00    -0.100 NA
HETATM    7  C7  UNL     1      24.685  -5.337  10.923  1.00  0.00     0.043 A
ENDROOT
BRANCH   1   8
HETATM    8  C1  UNL     1      25.219  -7.697  11.483  1.00  0.00     0.120 C
HETATM    9  N1  UNL     1      26.444  -7.666  11.856  1.00  0.00    -0.387 N
ATOM     10  H12 UNL     1      27.058  -8.479  11.809  1.00  0.00     0.157 HD
ATOM     11  H11 UNL     1      26.817  -6.786  12.214  1.00  0.00     0.157 HD
HETATM   12  N2  UNL     1      24.704  -8.912  10.990  1.00  0.00    -0.082 NA
ENDBRANCH   1   8
BRANCH   4  13
HETATM   13  N3  UNL     1      21.842  -3.089  11.684  1.00  0.00    -0.269 N
ATOM     14  H3  UNL     1      22.107  -2.286  11.114  1.00  0.00     0.179 HD
BRANCH  13  15
HETATM   15  S1  UNL     1      20.425  -3.021  12.656  1.00  0.00     0.358 S
HETATM   16  O1  UNL     1      20.672  -2.033  13.749  1.00  0.00    -0.187 OA
HETATM   17  O2  UNL     1      19.215  -2.658  11.839  1.00  0.00    -0.187 OA
ENDBRANCH  13  15
ENDBRANCH   4  13
TORSDOF 3
ENDMDL