MODEL 3
REMARK VINA RESULT: -5.223844949      3.193      6.701
REMARK  3 active torsions:
REMARK  status: ('A' for Active; 'I' for Inactive)
REMARK    1  A    between atoms: N1_2  and  S1_4
REMARK    2  A    between atoms: S1_4  and  C2_7
REMARK    3  A    between atoms: C5_10  and  C6_11
ROOT
HETATM    1  C2  UNL     1      19.982  -3.405  13.436  1.00  0.00     0.079 A
HETATM    2  C3  UNL     1      18.881  -2.576  13.396  1.00  0.00     0.026 A
HETATM    3  C4  UNL     1      17.916  -2.722  14.337  1.00  0.00     0.016 A
HETATM    4  C5  UNL     1      18.023  -3.687  15.331  1.00  0.00     0.005 A
HETATM    5  C7  UNL     1      19.125  -4.500  15.353  1.00  0.00     0.016 A
HETATM    6  C8  UNL     1      20.106  -4.369  14.414  1.00  0.00     0.026 A
ENDROOT
BRANCH   1   7
HETATM    7  S1  UNL     1      21.243  -3.229  12.222  1.00  0.00     0.258 S
HETATM    8  O1  UNL     1      22.170  -2.103  12.568  1.00  0.00    -0.201 OA
HETATM    9  O2  UNL     1      20.551  -2.945  10.918  1.00  0.00    -0.201 OA
BRANCH   7  10
HETATM   10  N1  UNL     1      22.099  -4.696  12.059  1.00  0.00    -0.320 N
HETATM   11  C1  UNL     1      23.424  -4.550  11.535  1.00  0.00     0.159 C
ATOM     12  H1  UNL     1      21.701  -5.600  12.314  1.00  0.00     0.171 HD
ENDBRANCH   7  10
ENDBRANCH   1   7
BRANCH   4  13
HETATM   13  C6  UNL     1      16.978  -3.829  16.333  1.00  0.00     0.120 C
HETATM   14  N2  UNL     1      16.260  -4.851  16.419  1.00  0.00    -0.387 N
ATOM     15  H22 UNL     1      16.409  -5.617  15.763  1.00  0.00     0.157 HD
ATOM     16  H21 UNL     1      15.527  -4.950  17.122  1.00  0.00     0.157 HD
HETATM   17  N3  UNL     1      16.770  -2.763  17.246  1.00  0.00    -0.082 NA
ENDBRANCH   4  13
TORSDOF 3
ENDMDL