MODEL 5
REMARK VINA RESULT: -6.321137580      2.498      3.638
REMARK  3 active torsions:
REMARK  status: ('A' for Active; 'I' for Inactive)
REMARK    1  A    between atoms: C2_2  and  C4_12
REMARK    2  A    between atoms: N1_3  and  N2_5
REMARK       I    between atoms: N2_5  and  C3_7
REMARK    3  A    between atoms: C8_16  and  C9_17
ROOT
HETATM    1  C1  UNL     1      21.366  -2.978   9.933  1.00  0.00     0.070 C
HETATM    2  C2  UNL     1      22.061  -3.478  11.160  1.00  0.00     0.032 C
HETATM    3  N1  UNL     1      21.771  -3.087  12.333  1.00  0.00    -0.302 N
ATOM      4  H1  UNL     1      22.302  -3.486  13.107  1.00  0.00     0.186 HD
ENDROOT
BRANCH   2   5
HETATM    5  C4  UNL     1      23.138  -4.470  11.038  1.00  0.00    -0.012 A
HETATM    6  C5  UNL     1      24.468  -4.085  10.956  1.00  0.00     0.013 A
HETATM    7  C6  UNL     1      25.479  -5.011  10.841  1.00  0.00     0.002 A
HETATM    8  C7  UNL     1      25.196  -6.359  10.804  1.00  0.00     0.017 A
HETATM    9  C8  UNL     1      23.889  -6.784  10.883  1.00  0.00     0.030 A
HETATM   10  C10 UNL     1      22.889  -5.824  10.998  1.00  0.00     0.030 A
BRANCH   9  11
HETATM   11  C9  UNL     1      23.605  -8.199  10.842  1.00  0.00     0.265 C
HETATM   12  N5  UNL     1      24.477  -9.129  11.443  1.00  0.00    -0.057 NA
HETATM   13  O1  UNL     1      22.576  -8.611  10.270  1.00  0.00    -0.271 OA
ENDBRANCH   9  11
ENDBRANCH   2   5
BRANCH   3  14
HETATM   14  N2  UNL     1      20.783  -2.155  12.643  1.00  0.00    -0.274 N
HETATM   15  C3  UNL     1      19.722  -2.593  13.488  1.00  0.00     0.200 C
HETATM   16  N3  UNL     1      18.533  -2.584  12.969  1.00  0.00    -0.372 N
HETATM   17  N4  UNL     1      19.943  -3.019  14.823  1.00  0.00    -0.062 NA
ATOM     18  H32 UNL     1      18.375  -2.279  12.008  1.00  0.00     0.158 HD
ATOM     19  H31 UNL     1      17.774  -2.898  13.574  1.00  0.00     0.158 HD
ATOM     20  H2  UNL     1      20.817  -1.202  12.283  1.00  0.00     0.189 HD
ENDBRANCH   3  14
TORSDOF 3
ENDMDL