MODEL 3
REMARK VINA RESULT: -6.195649489      1.362      1.551
REMARK  3 active torsions:
REMARK  status: ('A' for Active; 'I' for Inactive)
REMARK    1  A    between atoms: O1_2  and  C2_3
REMARK    2  A    between atoms: C7_8  and  C8_9
REMARK    3  A    between atoms: N2_11  and  N3_13
REMARK       I    between atoms: N3_13  and  C9_15
ROOT
HETATM    1  C8  UNL     1      23.355  -3.712  11.310  1.00  0.00     0.143 C
HETATM    2  N1  UNL     1      24.200  -2.843  12.082  1.00  0.00    -0.080 NA
HETATM    3  N2  UNL     1      22.454  -3.157  10.658  1.00  0.00    -0.285 N
ATOM      4  H2  UNL     1      22.481  -2.147  10.798  1.00  0.00     0.188 HD
ENDROOT
BRANCH   1   5
HETATM    5  C7  UNL     1      23.624  -5.128  11.356  1.00  0.00     0.040 A
HETATM    6  C2  UNL     1      24.602  -5.667  10.506  1.00  0.00     0.081 A
HETATM    7  C3  UNL     1      24.924  -7.004  10.481  1.00  0.00     0.038 A
HETATM    8  C4  UNL     1      24.293  -7.904  11.306  1.00  0.00     0.003 A
HETATM    9  C5  UNL     1      23.332  -7.413  12.151  1.00  0.00     0.001 A
HETATM   10  C6  UNL     1      23.006  -6.048  12.172  1.00  0.00     0.018 A
BRANCH   6  11
HETATM   11  O1  UNL     1      25.256  -4.778   9.661  1.00  0.00    -0.355 OA
HETATM   12  C1  UNL     1      25.109  -4.762   8.275  1.00  0.00     0.210 C
ENDBRANCH   6  11
ENDBRANCH   1   5
BRANCH   3  13
HETATM   13  N3  UNL     1      21.453  -3.492   9.824  1.00  0.00    -0.273 N
HETATM   14  C9  UNL     1      20.221  -2.784   9.928  1.00  0.00     0.200 C
HETATM   15  N4  UNL     1      19.760  -2.141   8.920  1.00  0.00    -0.372 N
HETATM   16  N5  UNL     1      19.511  -2.796  11.150  1.00  0.00    -0.062 NA
ATOM     17  H42 UNL     1      20.272  -2.132   8.037  1.00  0.00     0.158 HD
ATOM     18  H41 UNL     1      18.878  -1.634   8.994  1.00  0.00     0.158 HD
ATOM     19  H3  UNL     1      21.573  -4.234   9.135  1.00  0.00     0.189 HD
ENDBRANCH   3  13
TORSDOF 3
ENDMDL