MODEL 4
REMARK VINA RESULT: -6.566269967      3.501      7.334
REMARK  3 active torsions:
REMARK  status: ('A' for Active; 'I' for Inactive)
REMARK    1  A    between atoms: N3_4  and  N4_6
REMARK       I    between atoms: N4_6  and  C2_8
REMARK       I    between atoms: C2_8  and  N5_10
REMARK    2  A    between atoms: N5_10  and  N6_12
REMARK    3  A    between atoms: C3_14  and  C4_15
ROOT
HETATM    1  N4  UNL     1      20.681  -2.756  11.052  1.00  0.00    -0.248 N
ATOM      2  H4  UNL     1      19.994  -3.014  10.344  1.00  0.00     0.192 HD
HETATM    3  C2  UNL     1      20.292  -2.580  12.394  1.00  0.00     0.353 C
HETATM    4  O1  UNL     1      21.110  -2.260  13.306  1.00  0.00    -0.244 OA
HETATM    5  N5  UNL     1      18.937  -2.764  12.751  1.00  0.00    -0.251 N
ATOM      6  H5  UNL     1      18.248  -3.023  12.044  1.00  0.00     0.191 HD
ENDROOT
BRANCH   5   7
HETATM    7  N6  UNL     1      18.552  -2.590  14.075  1.00  0.00    -0.307 N
HETATM    8  C3  UNL     1      18.128  -3.557  14.806  1.00  0.00     0.120 C
ATOM      9  H6  UNL     1      18.609  -1.657  14.483  1.00  0.00     0.186 HD
BRANCH   8  10
HETATM   10  C4  UNL     1      17.743  -3.288  16.188  1.00  0.00     0.005 A
HETATM   11  C5  UNL     1      16.622  -3.713  16.871  1.00  0.00     0.039 A
HETATM   12  C6  UNL     1      16.691  -3.206  18.164  1.00  0.00     0.142 A
HETATM   13  O2  UNL     1      17.791  -2.517  18.248  1.00  0.00    -0.334 OA
HETATM   14  C7  UNL     1      18.454  -2.528  17.120  1.00  0.00     0.154 A
ENDBRANCH   8  10
ENDBRANCH   5   7
BRANCH   1  15
HETATM   15  N3  UNL     1      22.018  -2.573  10.703  1.00  0.00    -0.272 N
HETATM   16  C1  UNL     1      22.888  -3.522  10.696  1.00  0.00     0.215 C
HETATM   17  N1  UNL     1      24.220  -3.201  10.319  1.00  0.00    -0.065 NA
HETATM   18  N2  UNL     1      22.617  -4.871  11.036  1.00  0.00    -0.065 NA
ATOM     19  H3  UNL     1      22.324  -1.636  10.440  1.00  0.00     0.189 HD
ENDBRANCH   1  15
TORSDOF 3
ENDMDL