MODEL 4
REMARK VINA RESULT: -6.438856372      4.092      5.972
REMARK  5 active torsions:
REMARK  status: ('A' for Active; 'I' for Inactive)
REMARK    1  A    between atoms: C2_2  and  O2_4
REMARK    2  A    between atoms: O2_4  and  N1_5
REMARK    3  A    between atoms: N1_5  and  C3_7
REMARK    4  A    between atoms: C3_7  and  C4_11
REMARK    5  A    between atoms: C7_14  and  C8_15
ROOT
HETATM    1  C4  UNL     1      19.529  -3.391  14.795  1.00  0.00     0.009 A
HETATM    2  C5  UNL     1      19.846  -4.727  14.589  1.00  0.00     0.016 A
HETATM    3  C6  UNL     1      20.208  -5.596  15.607  1.00  0.00     0.016 A
HETATM    4  C7  UNL     1      20.258  -5.115  16.891  1.00  0.00     0.004 A
HETATM    5  C9  UNL     1      19.942  -3.763  17.129  1.00  0.00     0.016 A
HETATM    6  C10 UNL     1      19.588  -2.936  16.092  1.00  0.00     0.016 A
ENDROOT
BRANCH   1   7
HETATM    7  C3  UNL     1      19.164  -2.578  13.653  1.00  0.00     0.129 C
HETATM    8  N2  UNL     1      17.952  -2.241  13.480  1.00  0.00    -0.383 N
ATOM      9  H22 UNL     1      17.696  -1.668  12.676  1.00  0.00     0.157 HD
ATOM     10  H21 UNL     1      17.251  -2.549  14.152  1.00  0.00     0.157 HD
BRANCH   7  11
HETATM   11  N1  UNL     1      20.140  -2.149  12.718  1.00  0.00    -0.241 N
ATOM     12  H1  UNL     1      20.462  -1.181  12.734  1.00  0.00     0.196 HD
BRANCH  11  13
HETATM   13  O2  UNL     1      20.659  -3.024  11.787  1.00  0.00    -0.198 OA
BRANCH  13  14
HETATM   14  C2  UNL     1      21.979  -3.004  11.388  1.00  0.00     0.277 C
HETATM   15  C1  UNL     1      22.818  -4.215  11.512  1.00  0.00     0.128 C
HETATM   16  O1  UNL     1      22.472  -1.959  10.918  1.00  0.00    -0.264 OA
ENDBRANCH  13  14
ENDBRANCH  11  13
ENDBRANCH   7  11
ENDBRANCH   1   7
BRANCH   4  17
HETATM   17  C8  UNL     1      20.628  -5.980  17.975  1.00  0.00     0.120 C
HETATM   18  N3  UNL     1      19.820  -6.351  18.874  1.00  0.00    -0.387 N
ATOM     19  H32 UNL     1      18.859  -6.014  18.823  1.00  0.00     0.157 HD
ATOM     20  H31 UNL     1      20.083  -6.966  19.644  1.00  0.00     0.157 HD
HETATM   21  N4  UNL     1      21.963  -6.448  18.046  1.00  0.00    -0.082 NA
ENDBRANCH   4  17
TORSDOF 5
ENDMDL