MODEL 3
REMARK VINA RESULT: -7.545439885      2.167      5.764
REMARK  3 active torsions:
REMARK  status: ('A' for Active; 'I' for Inactive)
REMARK    1  A    between atoms: C4_6  and  C5_7
REMARK    2  A    between atoms: C5_7  and  C6_11
REMARK       I    between atoms: C6_11  and  N3_13
REMARK    3  A    between atoms: N3_13  and  C7_15
ROOT
HETATM    1  C6  UNL     1      21.028  -2.444  12.081  1.00  0.00     0.288 C
HETATM    2  O1  UNL     1      21.886  -2.085  12.926  1.00  0.00    -0.265 OA
HETATM    3  N3  UNL     1      21.431  -2.571  10.687  1.00  0.00    -0.153 N
ATOM      4  H3  UNL     1      20.879  -2.171   9.928  1.00  0.00     0.187 HD
ENDROOT
BRANCH   1   5
HETATM    5  C5  UNL     1      19.653  -2.747  12.372  1.00  0.00     0.122 C
HETATM    6  N2  UNL     1      18.730  -2.485  11.516  1.00  0.00    -0.393 N
ATOM      7  H22 UNL     1      17.754  -2.700  11.723  1.00  0.00     0.156 HD
ATOM      8  H21 UNL     1      19.000  -2.057  10.630  1.00  0.00     0.156 HD
BRANCH   5   9
HETATM    9  C4  UNL     1      19.267  -3.358  13.637  1.00  0.00     0.064 A
HETATM   10  N1  UNL     1      19.888  -4.259  14.412  1.00  0.00    -0.363 N
HETATM   11  C3  UNL     1      19.170  -4.556  15.513  1.00  0.00     0.095 A
ATOM     12  H1  UNL     1      20.795  -4.670  14.194  1.00  0.00     0.165 HD
HETATM   13  C2  UNL     1      18.015  -3.826  15.482  1.00  0.00    -0.044 A
HETATM   14  C1  UNL     1      16.927  -3.833  16.488  1.00  0.00     0.049 C
HETATM   15  C9  UNL     1      18.064  -3.084  14.330  1.00  0.00     0.040 A
ENDBRANCH   5   9
ENDBRANCH   1   5
BRANCH   3  16
HETATM   16  C7  UNL     1      22.543  -3.229  10.462  1.00  0.00     0.700 A
HETATM   17  N4  UNL     1      22.733  -4.275   9.638  1.00  0.00    -0.185 N
HETATM   18  C8  UNL     1      24.038  -4.628   9.727  1.00  0.00     0.215 A
ATOM     19  H4  UNL     1      22.025  -4.720   9.053  1.00  0.00     0.185 HD
HETATM   20  N5  UNL     1      24.658  -3.816  10.595  1.00  0.00    -0.281 N
HETATM   21  N6  UNL     1      23.729  -2.981  11.022  1.00  0.00    -0.131 N
ATOM     22  H5  UNL     1      25.640  -3.838  10.869  1.00  0.00     0.188 HD
ATOM     23  H6  UNL     1      23.897  -2.236  11.698  1.00  0.00     0.205 HD
ENDBRANCH   3  16
TORSDOF 3
ENDMDL