MODEL 5
REMARK VINA RESULT: -5.787673157      3.422      4.452
REMARK  3 active torsions:
REMARK  status: ('A' for Active; 'I' for Inactive)
REMARK    1  A    between atoms: C2_2  and  C4_10
REMARK    2  A    between atoms: N1_3  and  N2_5
REMARK       I    between atoms: N2_5  and  C3_7
REMARK    3  A    between atoms: C7_13  and  C8_14
ROOT
HETATM    1  C4  UNL     1      20.015  -4.901  16.401  1.00  0.00    -0.013 A
HETATM    2  C5  UNL     1      20.265  -5.933  15.517  1.00  0.00     0.014 A
HETATM    3  C6  UNL     1      20.855  -7.084  15.955  1.00  0.00     0.016 A
HETATM    4  C7  UNL     1      21.213  -7.241  17.282  1.00  0.00     0.004 A
HETATM    5  C9  UNL     1      20.960  -6.205  18.161  1.00  0.00     0.016 A
HETATM    6  C10 UNL     1      20.368  -5.044  17.727  1.00  0.00     0.014 A
ENDROOT
BRANCH   1   7
HETATM    7  C2  UNL     1      19.387  -3.686  15.911  1.00  0.00     0.032 C
HETATM    8  C1  UNL     1      19.633  -2.425  16.673  1.00  0.00     0.070 C
HETATM    9  N1  UNL     1      18.655  -3.731  14.864  1.00  0.00    -0.301 N
ATOM     10  H1  UNL     1      18.547  -4.641  14.413  1.00  0.00     0.186 HD
BRANCH   9  11
HETATM   11  N2  UNL     1      18.001  -2.669  14.288  1.00  0.00    -0.254 N
HETATM   12  C3  UNL     1      18.109  -2.310  12.912  1.00  0.00     0.347 C
HETATM   13  N3  UNL     1      17.406  -1.204  12.391  1.00  0.00    -0.038 NA
HETATM   14  O1  UNL     1      18.840  -2.981  12.139  1.00  0.00    -0.249 OA
ATOM     15  H2  UNL     1      17.397  -2.101  14.882  1.00  0.00     0.191 HD
ENDBRANCH   9  11
ENDBRANCH   1   7
BRANCH   4  16
HETATM   16  C8  UNL     1      21.842  -8.472  17.743  1.00  0.00     0.120 C
HETATM   17  N4  UNL     1      21.685  -9.533  17.031  1.00  0.00    -0.387 N
ATOM     18  H42 UNL     1      21.146  -9.558  16.165  1.00  0.00     0.157 HD
ATOM     19  H41 UNL     1      22.126 -10.395  17.354  1.00  0.00     0.157 HD
HETATM   20  N5  UNL     1      22.586  -8.438  18.939  1.00  0.00    -0.082 NA
ENDBRANCH   4  16
TORSDOF 3
ENDMDL