MODEL 2
REMARK VINA RESULT: -6.702742978      0.026      1.225
REMARK  4 active torsions:
REMARK  status: ('A' for Active; 'I' for Inactive)
REMARK    1  A    between atoms: O1_2  and  C2_3
REMARK    2  A    between atoms: C5_6  and  C6_7
REMARK    3  A    between atoms: C6_7  and  N2_11
REMARK    4  A    between atoms: N2_11  and  N3_13
ROOT
HETATM    1  C6  UNL     1      21.553  -2.833  11.160  1.00  0.00     0.123 C
HETATM    2  N1  UNL     1      21.034  -2.414  10.083  1.00  0.00    -0.384 N
ATOM      3  H11 UNL     1      20.308  -1.696  10.081  1.00  0.00     0.157 HD
ATOM      4  H12 UNL     1      21.344  -2.801   9.191  1.00  0.00     0.157 HD
ENDROOT
BRANCH   1   5
HETATM    5  C5  UNL     1      22.584  -3.851  11.163  1.00  0.00     0.009 A
HETATM    6  C4  UNL     1      22.430  -4.997  11.916  1.00  0.00     0.018 A
HETATM    7  C3  UNL     1      23.424  -5.984  11.922  1.00  0.00     0.037 A
HETATM    8  C2  UNL     1      24.575  -5.833  11.179  1.00  0.00     0.068 A
HETATM    9  C9  UNL     1      24.696  -4.675  10.437  1.00  0.00     0.037 A
HETATM   10  C8  UNL     1      23.752  -3.697  10.408  1.00  0.00     0.018 A
BRANCH   8  11
HETATM   11  O1  UNL     1      25.563  -6.798  11.174  1.00  0.00    -0.356 OA
HETATM   12  C1  UNL     1      25.241  -8.148  11.445  1.00  0.00     0.210 C
ENDBRANCH   8  11
ENDBRANCH   1   5
BRANCH   1  13
HETATM   13  N2  UNL     1      21.123  -2.297  12.397  1.00  0.00    -0.283 N
ATOM     14  H2  UNL     1      21.839  -2.007  13.063  1.00  0.00     0.188 HD
BRANCH  13  15
HETATM   15  N3  UNL     1      19.807  -2.138  12.766  1.00  0.00    -0.274 N
HETATM   16  C7  UNL     1      19.303  -2.877  13.685  1.00  0.00     0.215 C
HETATM   17  N4  UNL     1      20.103  -3.857  14.321  1.00  0.00    -0.065 NA
HETATM   18  N5  UNL     1      17.945  -2.729  14.082  1.00  0.00    -0.065 NA
ATOM     19  H3  UNL     1      19.232  -1.432  12.308  1.00  0.00     0.189 HD
ENDBRANCH  13  15
ENDBRANCH   1  13
TORSDOF 4
ENDMDL