MODEL 4
REMARK VINA RESULT: -6.254281414      3.401      6.797
REMARK  2 active torsions:
REMARK  status: ('A' for Active; 'I' for Inactive)
REMARK       I    between atoms: C1_4  and  N2_5
REMARK       I    between atoms: C1_4  and  N5_17
REMARK    1  A    between atoms: N2_5  and  N3_7
REMARK    2  A    between atoms: C2_9  and  C3_10
REMARK       I    between atoms: N5_17  and  C8_19
ROOT
HETATM    1  N1  UNL     1      18.501  -1.692  13.239  1.00  0.00    -0.233 N
ATOM      2  H11 UNL     1      18.215  -1.066  12.487  1.00  0.00     0.174 HD
ATOM      3  H12 UNL     1      17.989  -1.715  14.121  1.00  0.00     0.174 HD
HETATM    4  C1  UNL     1      19.510  -2.450  13.065  1.00  0.00     0.694 C
HETATM    5  N2  UNL     1      19.907  -3.322  14.113  1.00  0.00    -0.133 N
ATOM      6  H2  UNL     1      20.806  -3.173  14.570  1.00  0.00     0.205 HD
HETATM    7  N5  UNL     1      20.219  -2.419  11.843  1.00  0.00    -0.143 N
ATOM      8  H5  UNL     1      19.908  -1.780  11.112  1.00  0.00     0.189 HD
HETATM    9  C8  UNL     1      21.351  -3.243  11.591  1.00  0.00     0.347 C
HETATM   10  N6  UNL     1      22.027  -3.175  10.352  1.00  0.00    -0.039 NA
HETATM   11  O1  UNL     1      21.752  -4.032  12.464  1.00  0.00    -0.250 OA
ENDROOT
BRANCH   5  12
HETATM   12  N3  UNL     1      19.101  -4.370  14.527  1.00  0.00    -0.295 N
HETATM   13  C2  UNL     1      18.670  -4.482  15.716  1.00  0.00     0.137 C
ATOM     14  H3  UNL     1      18.842  -5.084  13.846  1.00  0.00     0.186 HD
BRANCH  13  15
HETATM   15  C3  UNL     1      18.932  -3.573  16.804  1.00  0.00     0.049 A
HETATM   16  C4  UNL     1      19.912  -3.899  17.751  1.00  0.00     0.031 A
HETATM   17  C5  UNL     1      20.152  -3.022  18.782  1.00  0.00     0.004 A
HETATM   18  C6  UNL     1      19.470  -1.826  18.934  1.00  0.00     0.017 A
HETATM   19  C7  UNL     1      18.518  -1.549  17.979  1.00  0.00     0.088 A
HETATM   20  N4  UNL     1      18.296  -2.416  16.978  1.00  0.00    -0.365 N
ATOM     21  H4  UNL     1      17.581  -2.168  16.294  1.00  0.00     0.165 HD
ENDBRANCH  13  15
ENDBRANCH   5  12
TORSDOF 2
ENDMDL