MODEL 1
REMARK VINA RESULT: -7.347950089      0.000      0.000
REMARK  4 active torsions:
REMARK  status: ('A' for Active; 'I' for Inactive)
REMARK    1  A    between atoms: N1_1  and  N2_4
REMARK    2  A    between atoms: N2_4  and  C1_6
REMARK    3  A    between atoms: N3_8  and  C3_9
REMARK    4  A    between atoms: C3_9  and  C4_10
ROOT
HETATM    1  C1  UNL     1       1.770  -3.015  13.736  1.00  0.00     0.139 A
HETATM    2  C2  UNL     1       1.040  -3.930  14.464  1.00  0.00     0.145 A
HETATM    3  N3  UNL     1      -0.158  -4.029  13.865  1.00  0.00    -0.302 N
HETATM    4  C10 UNL     1      -0.205  -3.214  12.797  1.00  0.00     0.328 A
HETATM    5  O1  UNL     1      -1.147  -3.015  11.974  1.00  0.00    -0.246 OA
HETATM    6  N4  UNL     1       0.979  -2.603  12.732  1.00  0.00    -0.292 N
ATOM      7  H4  UNL     1       1.245  -1.921  12.022  1.00  0.00     0.172 HD
ENDROOT
BRANCH   3   8
HETATM    8  C3  UNL     1      -1.229  -4.867  14.286  1.00  0.00     0.171 C
BRANCH   8   9
HETATM    9  C4  UNL     1      -1.199  -6.234  13.740  1.00  0.00    -0.040 A
HETATM   10  C5  UNL     1      -1.983  -6.642  12.685  1.00  0.00     0.009 A
HETATM   11  C6  UNL     1      -1.887  -7.936  12.245  1.00  0.00     0.001 A
HETATM   12  C7  UNL     1      -1.041  -8.841  12.814  1.00  0.00     0.000 A
HETATM   13  C8  UNL     1      -0.244  -8.458  13.873  1.00  0.00     0.001 A
HETATM   14  C9  UNL     1      -0.339  -7.139  14.324  1.00  0.00     0.009 A
ENDBRANCH   8   9
ENDBRANCH   3   8
BRANCH   1  15
HETATM   15  N2  UNL     1       3.104  -2.563  13.965  1.00  0.00    -0.291 N
ATOM     16  H2  UNL     1       3.669  -2.278  13.166  1.00  0.00     0.188 HD
BRANCH  15  17
HETATM   17  N1  UNL     1       3.664  -2.496  15.241  1.00  0.00    -0.344 N
ATOM     18  H12 UNL     1       3.946  -3.372  15.682  1.00  0.00     0.176 HD
ATOM     19  H11 UNL     1       3.797  -1.615  15.736  1.00  0.00     0.176 HD
ENDBRANCH  15  17
ENDBRANCH   1  15
TORSDOF 4
ENDMDL