MODEL 3
REMARK VINA RESULT: -6.042487336      2.543      4.277
REMARK  2 active torsions:
REMARK  status: ('A' for Active; 'I' for Inactive)
REMARK       I    between atoms: C2_2  and  N1_4
REMARK    1  A    between atoms: N1_4  and  C3_6
REMARK    2  A    between atoms: C6_11  and  N3_12
ROOT
HETATM    1  C3  UNL     1      -0.042  -5.462  12.966  1.00  0.00     0.127 A
HETATM    2  C4  UNL     1      -0.484  -4.585  13.971  1.00  0.00     0.055 A
HETATM    3  C5  UNL     1      -1.592  -4.975  14.854  1.00  0.00     0.071 C
HETATM    4  N2  UNL     1       0.113  -3.409  14.108  1.00  0.00    -0.194 N
ATOM      5  H2  UNL     1      -0.225  -2.790  14.845  1.00  0.00     0.184 HD
HETATM    6  C6  UNL     1       1.123  -2.973  13.351  1.00  0.00     0.679 A
HETATM    7  N4  UNL     1       1.562  -3.792  12.386  1.00  0.00    -0.154 N
ATOM      8  H4  UNL     1       2.334  -3.494  11.788  1.00  0.00     0.187 HD
HETATM    9  C7  UNL     1       0.992  -5.025  12.187  1.00  0.00     0.288 A
HETATM   10  O2  UNL     1       1.480  -5.687  11.271  1.00  0.00    -0.265 OA
ENDROOT
BRANCH   1  11
HETATM   11  N1  UNL     1      -0.679  -6.688  12.840  1.00  0.00    -0.321 N
HETATM   12  C2  UNL     1      -0.392  -7.982  13.253  1.00  0.00     0.218 C
HETATM   13  C1  UNL     1      -1.368  -9.090  12.912  1.00  0.00     0.117 C
HETATM   14  O1  UNL     1       0.581  -8.363  13.880  1.00  0.00    -0.274 OA
ATOM     15  H1  UNL     1      -1.558  -6.624  12.326  1.00  0.00     0.169 HD
ENDBRANCH   1  11
BRANCH   6  16
HETATM   16  N3  UNL     1       1.678  -1.836  13.505  1.00  0.00    -0.234 N
ATOM     17  H32 UNL     1       1.392  -1.241  14.283  1.00  0.00     0.174 HD
ATOM     18  H31 UNL     1       2.404  -1.476  12.885  1.00  0.00     0.174 HD
ENDBRANCH   6  16
TORSDOF 2
ENDMDL