MODEL 5
REMARK VINA RESULT: -5.837859882      2.122      5.296
REMARK  3 active torsions:
REMARK  status: ('A' for Active; 'I' for Inactive)
REMARK    1  A    between atoms: N1_1  and  C1_5
REMARK    2  A    between atoms: C1_5  and  C2_6
REMARK    3  A    between atoms: C4_8  and  C5_9
ROOT
HETATM    1  C2  UNL     1       1.393  -6.187  11.218  1.00  0.00    -0.031 A
HETATM    2  C3  UNL     1       0.694  -7.207  11.809  1.00  0.00     0.027 A
HETATM    3  C4  UNL     1      -0.158  -7.019  12.880  1.00  0.00     0.059 A
HETATM    4  C6  UNL     1      -0.301  -5.749  13.363  1.00  0.00     0.079 A
HETATM    5  N3  UNL     1      -1.011  -5.187  14.355  1.00  0.00    -0.296 N
ATOM      6  H3  UNL     1      -1.633  -5.701  14.978  1.00  0.00     0.187 HD
HETATM    7  N4  UNL     1      -0.800  -3.880  14.420  1.00  0.00    -0.265 N
ATOM      8  H4  UNL     1      -1.236  -3.251  15.095  1.00  0.00     0.190 HD
HETATM    9  C7  UNL     1       0.069  -3.504  13.467  1.00  0.00     0.272 A
HETATM   10  O2  UNL     1       0.488  -2.342  13.247  1.00  0.00    -0.266 OA
HETATM   11  C8  UNL     1       0.384  -4.671  12.803  1.00  0.00     0.063 A
HETATM   12  C9  UNL     1       1.218  -4.926  11.737  1.00  0.00     0.028 A
ENDROOT
BRANCH   1  13
HETATM   13  C1  UNL     1       2.313  -6.356  10.070  1.00  0.00     0.268 C
BRANCH  13  14
HETATM   14  N1  UNL     1       2.137  -7.631   9.410  1.00  0.00    -0.075 N
ATOM     15  H13 UNL     1       1.863  -8.356  10.074  1.00  0.00     0.274 HD
ATOM     16  H12 UNL     1       1.304  -7.629   8.821  1.00  0.00     0.274 HD
ATOM     17  H11 UNL     1       2.962  -7.909   8.880  1.00  0.00     0.274 HD
ENDBRANCH  13  14
ENDBRANCH   1  13
BRANCH   3  18
HETATM   18  C5  UNL     1      -0.858  -8.132  13.449  1.00  0.00     0.267 C
HETATM   19  N2  UNL     1      -1.549  -9.071  12.698  1.00  0.00    -0.057 NA
HETATM   20  O1  UNL     1      -0.859  -8.285  14.720  1.00  0.00    -0.271 OA
ENDBRANCH   3  18
TORSDOF 3
ENDMDL