MODEL 5
REMARK VINA RESULT: -5.292241232      1.350      1.452
REMARK  5 active torsions:
REMARK  status: ('A' for Active; 'I' for Inactive)
REMARK    1  A    between atoms: C2_2  and  N1_3
REMARK       I    between atoms: N1_3  and  C3_4
REMARK       I    between atoms: C3_4  and  N2_6
REMARK    2  A    between atoms: N2_6  and  N3_8
REMARK    3  A    between atoms: N3_8  and  C4_10
REMARK    4  A    between atoms: C4_10  and  N4_12
REMARK    5  A    between atoms: N4_12  and  O2_14
ROOT
HETATM    1  N3  UNL     1      -0.870  -3.511  13.442  1.00  0.00    -0.270 N
ATOM      2  H3  UNL     1      -1.472  -2.694  13.545  1.00  0.00     0.189 HD
ENDROOT
BRANCH   1   3
HETATM    3  N2  UNL     1       0.122  -3.548  12.460  1.00  0.00    -0.237 N
HETATM    4  C3  UNL     1       1.277  -2.651  12.477  1.00  0.00     0.411 C
HETATM    5  N1  UNL     1       2.237  -2.727  11.556  1.00  0.00    -0.368 NA
HETATM    6  O1  UNL     1       1.183  -1.845  13.493  1.00  0.00    -0.228 OA
ATOM      7  H2  UNL     1       0.038  -4.225  11.702  1.00  0.00     0.193 HD
BRANCH   5   8
HETATM    8  C2  UNL     1       3.224  -2.805  10.609  1.00  0.00     0.156 C
HETATM    9  C1  UNL     1       4.610  -2.621  11.221  1.00  0.00     0.071 C
ENDBRANCH   5   8
ENDBRANCH   1   3
BRANCH   1  10
HETATM   10  C4  UNL     1      -1.024  -4.648  14.301  1.00  0.00     0.210 C
HETATM   11  S1  UNL     1      -1.608  -4.485  15.792  1.00  0.00    -0.037 SA
BRANCH  10  12
HETATM   12  N4  UNL     1      -0.650  -5.919  13.826  1.00  0.00    -0.240 N
ATOM     13  H4  UNL     1      -1.389  -6.622  13.798  1.00  0.00     0.197 HD
BRANCH  12  14
HETATM   14  O2  UNL     1       0.549  -6.316  13.411  1.00  0.00    -0.283 OA
HETATM   15  C5  UNL     1       0.574  -7.125  12.309  1.00  0.00     0.237 C
ENDBRANCH  12  14
ENDBRANCH  10  12
ENDBRANCH   1  10
TORSDOF 5
ENDMDL