MODEL 3
REMARK VINA RESULT: -5.658156364      2.618      5.060
REMARK  4 active torsions:
REMARK  status: ('A' for Active; 'I' for Inactive)
REMARK    1  A    between atoms: N1_1  and  C1_4
REMARK    2  A    between atoms: C5_13  and  C6_14
REMARK    3  A    between atoms: C6_14  and  C7_15
REMARK    4  A    between atoms: C7_15  and  N4_16
ROOT
HETATM    1  C1  UNL     1       1.408  -2.539  12.858  1.00  0.00     0.115 A
HETATM    2  N2  UNL     1       2.489  -2.429  12.047  1.00  0.00    -0.294 N
ATOM      3  H2  UNL     1       3.043  -1.573  12.049  1.00  0.00     0.172 HD
HETATM    4  C2  UNL     1       2.829  -3.442  11.248  1.00  0.00     0.326 A
HETATM    5  O1  UNL     1       3.847  -3.291  10.509  1.00  0.00    -0.247 OA
HETATM    6  N3  UNL     1       2.115  -4.589  11.224  1.00  0.00    -0.308 N
ATOM      7  H3  UNL     1       2.406  -5.340  10.598  1.00  0.00     0.170 HD
HETATM    8  C3  UNL     1       1.034  -4.769  11.999  1.00  0.00     0.050 A
HETATM    9  C4  UNL     1       0.304  -5.934  11.980  1.00  0.00     0.037 A
HETATM   10  C5  UNL     1      -0.800  -6.112  12.773  1.00  0.00    -0.054 A
HETATM   11  C8  UNL     1      -1.140  -5.057  13.595  1.00  0.00     0.008 A
HETATM   12  C9  UNL     1      -0.412  -3.870  13.627  1.00  0.00     0.018 A
HETATM   13  C10 UNL     1       0.678  -3.720  12.830  1.00  0.00     0.034 A
ENDROOT
BRANCH  10  14
HETATM   14  C6  UNL     1      -1.623  -7.328  12.802  1.00  0.00     0.066 C
BRANCH  14  15
HETATM   15  C7  UNL     1      -0.815  -8.601  12.828  1.00  0.00     0.234 C
BRANCH  15  16
HETATM   16  N4  UNL     1       0.021  -8.529  14.037  1.00  0.00    -0.079 N
ATOM     17  H43 UNL     1      -0.438  -8.069  14.822  1.00  0.00     0.274 HD
ATOM     18  H42 UNL     1       0.161  -9.433  14.488  1.00  0.00     0.274 HD
ATOM     19  H41 UNL     1       0.890  -8.078  13.754  1.00  0.00     0.274 HD
ENDBRANCH  15  16
ENDBRANCH  14  15
ENDBRANCH  10  14
BRANCH   1  20
HETATM   20  N1  UNL     1       1.121  -1.556  13.599  1.00  0.00    -0.385 N
ATOM     21  H12 UNL     1       1.758  -0.779  13.780  1.00  0.00     0.157 HD
ATOM     22  H11 UNL     1       0.201  -1.542  14.039  1.00  0.00     0.157 HD
ENDBRANCH   1  20
TORSDOF 4
ENDMDL