MODEL 5
REMARK VINA RESULT: -6.223715495      3.044      5.847
REMARK  2 active torsions:
REMARK  status: ('A' for Active; 'I' for Inactive)
REMARK    1  A    between atoms: C5_5  and  C6_6
REMARK       I    between atoms: C6_6  and  N1_8
REMARK    2  A    between atoms: N1_8  and  N2_10
REMARK       I    between atoms: N2_10  and  C7_12
ROOT
HETATM    1  C6  UNL     1       2.257  -2.966  12.434  1.00  0.00     0.270 C
HETATM    2  O1  UNL     1       2.601  -3.033  13.662  1.00  0.00    -0.266 OA
HETATM    3  N1  UNL     1       0.913  -2.753  12.140  1.00  0.00    -0.263 N
ATOM      4  H1  UNL     1       0.643  -2.699  11.159  1.00  0.00     0.190 HD
ENDROOT
BRANCH   1   5
HETATM    5  C5  UNL     1       3.254  -3.110  11.386  1.00  0.00     0.033 A
HETATM    6  C4  UNL     1       4.452  -2.452  11.398  1.00  0.00     0.017 A
HETATM    7  C3  UNL     1       5.389  -2.607  10.383  1.00  0.00     0.007 A
HETATM    8  C2  UNL     1       5.106  -3.444   9.337  1.00  0.00    -0.062 A
HETATM    9  C1  UNL     1       6.094  -3.632   8.229  1.00  0.00     0.048 C
HETATM   10  C9  UNL     1       3.905  -4.121   9.299  1.00  0.00     0.007 A
HETATM   11  C8  UNL     1       2.987  -3.960  10.307  1.00  0.00     0.017 A
ENDBRANCH   1   5
BRANCH   3  12
HETATM   12  N2  UNL     1      -0.092  -2.607  13.103  1.00  0.00    -0.271 N
HETATM   13  C7  UNL     1      -0.891  -3.748  13.375  1.00  0.00     0.200 C
HETATM   14  N3  UNL     1      -1.343  -4.561  12.486  1.00  0.00    -0.372 N
HETATM   15  N4  UNL     1      -1.203  -3.996  14.739  1.00  0.00    -0.062 NA
ATOM     16  H32 UNL     1      -1.119  -4.383  11.507  1.00  0.00     0.158 HD
ATOM     17  H31 UNL     1      -1.917  -5.380  12.681  1.00  0.00     0.158 HD
ATOM     18  H2  UNL     1      -0.243  -1.722  13.587  1.00  0.00     0.189 HD
ENDBRANCH   3  12
TORSDOF 2
ENDMDL