MODEL 2
REMARK VINA RESULT: -6.512594700      1.955      4.611
REMARK  4 active torsions:
REMARK  status: ('A' for Active; 'I' for Inactive)
REMARK    1  A    between atoms: N1_2  and  C2_5
REMARK    2  A    between atoms: C2_5  and  C3_6
REMARK    3  A    between atoms: C5_8  and  N2_9
REMARK       I    between atoms: N2_9  and  C6_11
REMARK    4  A    between atoms: C8_16  and  N4_17
ROOT
HETATM    1  C3  UNL     1      -1.127  -5.679  13.180  1.00  0.00     0.055 A
HETATM    2  C4  UNL     1      -0.303  -4.705  12.633  1.00  0.00     0.076 A
HETATM    3  C5  UNL     1      -0.033  -3.530  13.305  1.00  0.00     0.125 A
HETATM    4  N3  UNL     1      -0.611  -3.386  14.510  1.00  0.00    -0.177 N
ATOM      5  H3  UNL     1      -0.438  -2.533  15.042  1.00  0.00     0.185 HD
HETATM    6  C8  UNL     1      -1.420  -4.343  15.045  1.00  0.00     0.677 A
HETATM    7  N5  UNL     1      -1.680  -5.487  14.388  1.00  0.00    -0.194 N
ATOM      8  H5  UNL     1      -2.287  -6.196  14.800  1.00  0.00     0.184 HD
ENDROOT
BRANCH   1   9
HETATM    9  C2  UNL     1      -1.387  -6.913  12.431  1.00  0.00     0.289 C
BRANCH   9  10
HETATM   10  N1  UNL     1      -1.302  -8.111  13.241  1.00  0.00    -0.074 N
HETATM   11  C1  UNL     1       0.119  -8.290  13.567  1.00  0.00     0.267 C
ATOM     12  H12 UNL     1      -1.721  -8.929  12.800  1.00  0.00     0.277 HD
ATOM     13  H11 UNL     1      -1.905  -8.088  14.063  1.00  0.00     0.277 HD
ENDBRANCH   9  10
ENDBRANCH   1   9
BRANCH   3  14
HETATM   14  N2  UNL     1       0.736  -2.623  12.791  1.00  0.00    -0.313 N
HETATM   15  C6  UNL     1       2.123  -2.786  12.624  1.00  0.00     0.219 C
HETATM   16  C7  UNL     1       2.702  -2.838  11.246  1.00  0.00     0.117 C
HETATM   17  O1  UNL     1       2.916  -2.893  13.618  1.00  0.00    -0.274 OA
ATOM     18  H2  UNL     1       0.313  -1.744  12.492  1.00  0.00     0.170 HD
ENDBRANCH   3  14
BRANCH   6  19
HETATM   19  N4  UNL     1      -1.942  -4.151  16.197  1.00  0.00    -0.234 N
ATOM     20  H42 UNL     1      -2.924  -4.383  16.345  1.00  0.00     0.174 HD
ATOM     21  H41 UNL     1      -1.368  -3.767  16.948  1.00  0.00     0.174 HD
ENDBRANCH   6  19
TORSDOF 4
ENDMDL