MODEL 5
REMARK VINA RESULT: -6.711685564      2.134      5.374
REMARK  4 active torsions:
REMARK  status: ('A' for Active; 'I' for Inactive)
REMARK    1  A    between atoms: C4_4  and  N1_5
REMARK    2  A    between atoms: N1_5  and  C5_7
REMARK    3  A    between atoms: C5_7  and  C6_8
REMARK    4  A    between atoms: C9_13  and  N3_14
ROOT
HETATM    1  C6  UNL     1       1.597  -2.844  12.803  1.00  0.00     0.045 A
HETATM    2  C7  UNL     1       2.434  -2.834  11.689  1.00  0.00     0.045 A
HETATM    3  C8  UNL     1       3.789  -2.731  11.845  1.00  0.00     0.108 A
HETATM    4  N2  UNL     1       4.286  -2.640  13.095  1.00  0.00    -0.202 N
ATOM      5  H2  UNL     1       5.295  -2.562  13.223  1.00  0.00     0.183 HD
HETATM    6  C9  UNL     1       3.495  -2.648  14.174  1.00  0.00     0.675 A
HETATM    7  N4  UNL     1       2.170  -2.749  14.020  1.00  0.00    -0.194 N
ATOM      8  H4  UNL     1       1.575  -2.754  14.849  1.00  0.00     0.184 HD
ENDROOT
BRANCH   1   9
HETATM    9  C5  UNL     1       0.155  -2.956  12.569  1.00  0.00     0.179 C
BRANCH   9  10
HETATM   10  N1  UNL     1      -0.426  -3.988  13.406  1.00  0.00    -0.370 N
ATOM     11  H1  UNL     1      -0.879  -3.740  14.285  1.00  0.00     0.161 HD
BRANCH  10  12
HETATM   12  C4  UNL     1      -0.365  -5.241  13.025  1.00  0.00     0.117 A
HETATM   13  C3  UNL     1      -1.156  -6.288  13.450  1.00  0.00     0.075 A
HETATM   14  C2  UNL     1      -0.765  -7.453  12.799  1.00  0.00     0.025 A
HETATM   15  C1  UNL     1      -1.327  -8.823  12.938  1.00  0.00     0.070 C
HETATM   16  N6  UNL     1       0.250  -7.074  12.001  1.00  0.00    -0.304 N
HETATM   17  N5  UNL     1       0.485  -5.779  12.132  1.00  0.00    -0.286 N
ATOM     18  H6  UNL     1       0.765  -7.698  11.382  1.00  0.00     0.186 HD
ATOM     19  H5  UNL     1       1.207  -5.263  11.627  1.00  0.00     0.188 HD
ENDBRANCH  10  12
ENDBRANCH   9  10
ENDBRANCH   1   9
BRANCH   6  20
HETATM   20  N3  UNL     1       4.044  -2.557  15.342  1.00  0.00    -0.234 N
ATOM     21  H32 UNL     1       5.016  -2.819  15.503  1.00  0.00     0.174 HD
ATOM     22  H31 UNL     1       3.479  -2.213  16.118  1.00  0.00     0.174 HD
ENDBRANCH   6  20
TORSDOF 4
ENDMDL