MODEL 4
REMARK VINA RESULT: -5.741937302      2.667      6.067
REMARK  4 active torsions:
REMARK  status: ('A' for Active; 'I' for Inactive)
REMARK    1  A    between atoms: C2_2  and  C3_6
REMARK    2  A    between atoms: C4_7  and  C5_8
REMARK       I    between atoms: C5_8  and  N2_10
REMARK    3  A    between atoms: N2_10  and  N3_12
REMARK    4  A    between atoms: N3_12  and  C6_14
ROOT
HETATM    1  C5  UNL     1      21.518  -2.883  11.025  1.00  0.00     0.259 C
HETATM    2  O1  UNL     1      20.605  -2.839  10.166  1.00  0.00    -0.267 OA
HETATM    3  N2  UNL     1      21.237  -2.465  12.351  1.00  0.00    -0.265 N
ATOM      4  H2  UNL     1      21.971  -2.495  13.060  1.00  0.00     0.190 HD
ENDROOT
BRANCH   1   5
HETATM    5  C4  UNL     1      22.826  -3.354  10.647  1.00  0.00     0.077 C
HETATM    6  C3  UNL     1      23.075  -4.318   9.804  1.00  0.00     0.029 C
BRANCH   6   7
HETATM    7  C2  UNL     1      24.417  -4.730   9.478  1.00  0.00    -0.002 C
HETATM    8  C1  UNL     1      25.202  -5.584  10.417  1.00  0.00     0.067 C
HETATM    9  N1  UNL     1      24.999  -4.388   8.378  1.00  0.00    -0.403 N
ATOM     10  H12 UNL     1      25.949  -4.679   8.147  1.00  0.00     0.156 HD
ATOM     11  H11 UNL     1      24.463  -3.804   7.736  1.00  0.00     0.156 HD
ENDBRANCH   6   7
ENDBRANCH   1   5
BRANCH   3  12
HETATM   12  N3  UNL     1      19.944  -2.007  12.696  1.00  0.00    -0.276 N
ATOM     13  H3  UNL     1      19.760  -1.004  12.745  1.00  0.00     0.189 HD
BRANCH  12  14
HETATM   14  C6  UNL     1      18.915  -2.909  12.971  1.00  0.00     0.199 C
HETATM   15  N4  UNL     1      17.836  -3.048  12.071  1.00  0.00    -0.068 NA
HETATM   16  S1  UNL     1      18.941  -3.807  14.321  1.00  0.00    -0.043 SA
ENDBRANCH  12  14
ENDBRANCH   3  12
TORSDOF 4
ENDMDL