MODEL 5
REMARK VINA RESULT: -6.279615130      3.387      6.041
REMARK  3 active torsions:
REMARK  status: ('A' for Active; 'I' for Inactive)
REMARK    1  A    between atoms: C2_3  and  N5_11
REMARK    2  A    between atoms: N2_4  and  N3_6
REMARK       I    between atoms: N3_6  and  C3_8
REMARK    3  A    between atoms: N5_11  and  C4_13
ROOT
HETATM    1  N1  UNL     1      17.463  -2.485  11.414  1.00  0.00    -0.188 NA
HETATM    2  C1  UNL     1      18.559  -2.559  11.793  1.00  0.00     0.138 C
HETATM    3  C2  UNL     1      19.923  -2.656  12.243  1.00  0.00     0.200 C
HETATM    4  N2  UNL     1      20.844  -2.507  11.354  1.00  0.00    -0.273 N
ATOM      5  H2  UNL     1      20.567  -2.331  10.388  1.00  0.00     0.189 HD
ENDROOT
BRANCH   3   6
HETATM    6  N5  UNL     1      20.182  -2.905  13.614  1.00  0.00    -0.339 N
ATOM      7  H5  UNL     1      21.147  -2.969  13.940  1.00  0.00     0.163 HD
BRANCH   6   8
HETATM    8  C4  UNL     1      19.101  -3.067  14.558  1.00  0.00     0.286 C
HETATM    9  C5  UNL     1      19.016  -4.540  14.893  1.00  0.00     0.056 C
HETATM   10  C6  UNL     1      19.772  -4.596  16.203  1.00  0.00     0.031 C
HETATM   11  C7  UNL     1      19.250  -3.314  16.867  1.00  0.00     0.235 C
HETATM   12  N6  UNL     1      19.337  -2.356  15.775  1.00  0.00    -0.054 N
ATOM     13  H62 UNL     1      20.216  -1.838  15.769  1.00  0.00     0.279 HD
ATOM     14  H61 UNL     1      18.713  -1.558  15.897  1.00  0.00     0.279 HD
ENDBRANCH   6   8
ENDBRANCH   3   6
BRANCH   4  15
HETATM   15  N3  UNL     1      22.207  -2.577  11.655  1.00  0.00    -0.252 N
HETATM   16  C3  UNL     1      23.122  -3.321  10.877  1.00  0.00     0.347 C
HETATM   17  N4  UNL     1      24.496  -3.365  11.217  1.00  0.00    -0.038 NA
HETATM   18  O1  UNL     1      22.680  -3.946   9.869  1.00  0.00    -0.249 OA
ATOM     19  H3  UNL     1      22.554  -2.071  12.470  1.00  0.00     0.191 HD
ENDBRANCH   4  15
TORSDOF 3
ENDMDL