MODEL 2
REMARK VINA RESULT: -6.102846700      0.802      1.182
REMARK  4 active torsions:
REMARK  status: ('A' for Active; 'I' for Inactive)
REMARK    1  A    between atoms: C2_2  and  N1_4
REMARK    2  A    between atoms: C2_2  and  C4_8
REMARK    3  A    between atoms: C4_8  and  C5_9
REMARK    4  A    between atoms: C8_12  and  C9_13
ROOT
HETATM    1  C5  UNL     1      23.862  -5.611  11.153  1.00  0.00     0.189 C
HETATM    2  C6  UNL     1      24.782  -4.506  10.620  1.00  0.00     0.035 C
HETATM    3  C7  UNL     1      24.065  -3.300  11.150  1.00  0.00     0.044 C
HETATM    4  C8  UNL     1      22.669  -3.819  11.661  1.00  0.00     0.274 C
HETATM    5  N3  UNL     1      22.599  -4.990  10.786  1.00  0.00    -0.058 N
ATOM      6  H31 UNL     1      21.765  -5.571  10.871  1.00  0.00     0.278 HD
ATOM      7  H32 UNL     1      22.455  -4.806   9.793  1.00  0.00     0.278 HD
ENDROOT
BRANCH   1   8
HETATM    8  C4  UNL     1      24.234  -6.869  10.474  1.00  0.00     0.070 C
BRANCH   8   9
HETATM    9  C2  UNL     1      23.558  -8.120  10.985  1.00  0.00     0.118 C
HETATM   10  C1  UNL     1      22.967  -7.706  12.344  1.00  0.00     0.045 C
HETATM   11  C3  UNL     1      24.514  -9.240  11.298  1.00  0.00     0.045 C
BRANCH   9  12
HETATM   12  N1  UNL     1      22.583  -8.580  10.070  1.00  0.00    -0.071 N
ATOM     13  H13 UNL     1      21.649  -8.522  10.475  1.00  0.00     0.275 HD
ATOM     14  H12 UNL     1      22.472  -7.924   9.297  1.00  0.00     0.275 HD
ATOM     15  H11 UNL     1      22.769  -9.521   9.723  1.00  0.00     0.275 HD
ENDBRANCH   9  12
ENDBRANCH   8   9
ENDBRANCH   1   8
BRANCH   4  16
HETATM   16  C9  UNL     1      21.758  -2.720  11.290  1.00  0.00     0.262 C
HETATM   17  N2  UNL     1      20.333  -2.826  11.546  1.00  0.00    -0.060 NA
HETATM   18  O1  UNL     1      22.146  -1.696  10.766  1.00  0.00    -0.275 OA
ENDBRANCH   4  16
TORSDOF 4
ENDMDL