MODEL 3
REMARK VINA RESULT: -6.620097228      2.149      3.220
REMARK  2 active torsions:
REMARK  status: ('A' for Active; 'I' for Inactive)
REMARK    1  A    between atoms: C2_2  and  C3_3
REMARK       I    between atoms: C3_3  and  N1_5
REMARK    2  A    between atoms: N1_5  and  N2_7
REMARK       I    between atoms: N2_7  and  C4_9
ROOT
HETATM    1  C3  UNL     1      22.657  -3.374  11.607  1.00  0.00     0.270 C
HETATM    2  O1  UNL     1      23.431  -2.588  12.221  1.00  0.00    -0.268 OA
HETATM    3  N1  UNL     1      21.267  -3.174  11.752  1.00  0.00    -0.265 N
ATOM      4  H1  UNL     1      20.626  -3.798  11.261  1.00  0.00     0.190 HD
ENDROOT
BRANCH   3   5
HETATM    5  N2  UNL     1      20.743  -2.167  12.534  1.00  0.00    -0.271 N
HETATM    6  C4  UNL     1      19.681  -2.383  13.453  1.00  0.00     0.200 C
HETATM    7  N3  UNL     1      18.507  -1.898  13.148  1.00  0.00    -0.372 N
HETATM    8  N4  UNL     1      19.879  -3.102  14.664  1.00  0.00    -0.062 NA
ATOM      9  H32 UNL     1      18.365  -1.382  12.279  1.00  0.00     0.158 HD
ATOM     10  H31 UNL     1      17.745  -2.053  13.807  1.00  0.00     0.158 HD
ATOM     11  H2  UNL     1      21.134  -1.229  12.449  1.00  0.00     0.189 HD
ENDBRANCH   3   5
BRANCH   1  12
HETATM   12  C2  UNL     1      23.270  -4.435  10.789  1.00  0.00     0.139 C
HETATM   13  C1  UNL     1      22.782  -4.435   9.351  1.00  0.00     0.056 C
HETATM   14  C5  UNL     1      22.981  -5.754  11.469  1.00  0.00     0.050 C
HETATM   15  C6  UNL     1      24.380  -6.312  11.666  1.00  0.00     0.030 C
HETATM   16  C7  UNL     1      25.116  -5.561  10.562  1.00  0.00     0.169 C
HETATM   17  O2  UNL     1      24.632  -4.266  10.756  1.00  0.00    -0.371 OA
ENDBRANCH   1  12
TORSDOF 2
ENDMDL