MODEL 2
REMARK VINA RESULT: -4.968196800      2.085      2.394
REMARK  4 active torsions:
REMARK  status: ('A' for Active; 'I' for Inactive)
REMARK    1  A    between atoms: N1_1  and  C1_5
REMARK    2  A    between atoms: C5_11  and  N3_12
REMARK    3  A    between atoms: C6_16  and  C7_17
REMARK    4  A    between atoms: C7_17  and  C8_19
ROOT
HETATM    1  C1  UNL     1      23.169  -5.056  11.781  1.00  0.00     0.198 C
HETATM    2  C2  UNL     1      22.077  -3.980  11.709  1.00  0.00     0.052 C
HETATM    3  C3  UNL     1      22.349  -3.067  10.531  1.00  0.00     0.115 C
HETATM    4  N2  UNL     1      23.741  -3.021  10.175  1.00  0.00    -0.419 N
ATOM      5  H2  UNL     1      24.389  -2.361  10.604  1.00  0.00     0.153 HD
HETATM    6  C4  UNL     1      24.155  -3.954   9.186  1.00  0.00     0.147 C
HETATM    7  C5  UNL     1      24.431  -5.346   9.726  1.00  0.00     0.214 C
HETATM    8  C6  UNL     1      23.184  -5.778  10.457  1.00  0.00     0.118 C
ENDROOT
BRANCH   8   9
HETATM    9  C7  UNL     1      23.064  -7.239  10.575  1.00  0.00     0.139 C
HETATM   10  O1  UNL     1      21.988  -7.774  10.852  1.00  0.00    -0.297 OA
BRANCH   9  11
HETATM   11  C8  UNL     1      24.227  -8.137  10.365  1.00  0.00     0.056 A
HETATM   12  C9  UNL     1      25.273  -8.165  11.488  1.00  0.00     0.013 A
HETATM   13  C10 UNL     1      24.393  -9.363  11.180  1.00  0.00     0.013 A
ENDBRANCH   9  11
ENDBRANCH   8   9
BRANCH   1  14
HETATM   14  N1  UNL     1      22.840  -5.918  12.892  1.00  0.00    -0.074 N
ATOM     15  H13 UNL     1      22.927  -6.909  12.670  1.00  0.00     0.274 HD
ATOM     16  H12 UNL     1      23.533  -5.890  13.639  1.00  0.00     0.274 HD
ATOM     17  H11 UNL     1      21.904  -5.657  13.204  1.00  0.00     0.274 HD
ENDBRANCH   1  14
BRANCH   7  18
HETATM   18  N3  UNL     1      25.609  -5.361  10.527  1.00  0.00    -0.073 N
ATOM     19  H33 UNL     1      25.985  -6.303  10.625  1.00  0.00     0.274 HD
ATOM     20  H32 UNL     1      26.397  -4.929  10.044  1.00  0.00     0.274 HD
ATOM     21  H31 UNL     1      25.441  -4.927  11.435  1.00  0.00     0.274 HD
ENDBRANCH   7  18
TORSDOF 4
ENDMDL