MODEL 5
REMARK VINA RESULT: -5.791621485      6.140      7.230
REMARK  2 active torsions:
REMARK  status: ('A' for Active; 'I' for Inactive)
REMARK       I    between atoms: C1_4  and  N3_6
REMARK    1  A    between atoms: N3_6  and  C2_8
REMARK    2  A    between atoms: C7_13  and  C8_14
ROOT
HETATM    1  C2  UNL     1      17.960  -3.491  15.145  1.00  0.00     0.096 C
HETATM    2  C3  UNL     1      18.592  -4.818  14.787  1.00  0.00     0.026 C
HETATM    3  C4  UNL     1      18.576  -5.711  16.021  1.00  0.00     0.002 C
HETATM    4  C5  UNL     1      19.294  -5.074  17.174  1.00  0.00     0.001 C
HETATM    5  C6  UNL     1      19.744  -3.656  16.840  1.00  0.00     0.015 C
HETATM    6  C7  UNL     1      18.591  -2.826  16.320  1.00  0.00     0.097 C
ENDROOT
BRANCH   1   7
HETATM    7  N3  UNL     1      17.874  -2.645  13.983  1.00  0.00    -0.359 N
HETATM    8  C1  UNL     1      18.841  -2.522  12.985  1.00  0.00     0.182 C
HETATM    9  N1  UNL     1      20.043  -2.232  13.284  1.00  0.00    -0.374 N
HETATM   10  N2  UNL     1      18.476  -2.720  11.639  1.00  0.00    -0.064 NA
ATOM     11  H12 UNL     1      20.751  -2.142  12.555  1.00  0.00     0.158 HD
ATOM     12  H11 UNL     1      20.308  -2.089  14.259  1.00  0.00     0.158 HD
ATOM     13  H3  UNL     1      17.028  -2.084  13.880  1.00  0.00     0.162 HD
ENDBRANCH   1   7
BRANCH   6  14
HETATM   14  C8  UNL     1      17.625  -2.661  17.437  1.00  0.00     0.237 C
HETATM   15  N4  UNL     1      16.256  -2.883  17.148  1.00  0.00    -0.062 NA
HETATM   16  O1  UNL     1      18.001  -2.338  18.589  1.00  0.00    -0.276 OA
ENDBRANCH   6  14
TORSDOF 2
ENDMDL