MODEL 3
REMARK VINA RESULT: -5.242701234      1.827      2.631
REMARK  5 active torsions:
REMARK  status: ('A' for Active; 'I' for Inactive)
REMARK    1  A    between atoms: N1_1  and  C1_5
REMARK    2  A    between atoms: C1_5  and  C2_6
REMARK    3  A    between atoms: C2_6  and  C3_7
REMARK       I    between atoms: C3_7  and  N2_9
REMARK    4  A    between atoms: N2_9  and  C4_11
REMARK    5  A    between atoms: C8_15  and  N3_16
ROOT
HETATM    1  C4  UNL     1      23.252  -6.032  10.644  1.00  0.00     0.086 C
HETATM    2  C5  UNL     1      22.406  -7.262  10.679  1.00  0.00     0.025 C
HETATM    3  C6  UNL     1      23.131  -8.550  10.723  1.00  0.00     0.004 C
HETATM    4  C7  UNL     1      24.609  -8.313  10.440  1.00  0.00     0.033 C
HETATM    5  C8  UNL     1      25.066  -7.464  11.611  1.00  0.00     0.185 C
HETATM    6  C9  UNL     1      24.526  -6.094  11.386  1.00  0.00     0.057 C
ENDROOT
BRANCH   1   7
HETATM    7  N2  UNL     1      22.474  -4.881  11.060  1.00  0.00    -0.356 N
HETATM    8  C3  UNL     1      22.807  -3.552  10.709  1.00  0.00     0.219 C
HETATM    9  O1  UNL     1      23.812  -3.263  10.003  1.00  0.00    -0.274 OA
ATOM     10  H2  UNL     1      21.646  -5.037  11.634  1.00  0.00     0.162 HD
BRANCH   8  11
HETATM   11  C2  UNL     1      21.964  -2.437  11.173  1.00  0.00     0.130 C
BRANCH  11  12
HETATM   12  C1  UNL     1      21.043  -2.809  12.287  1.00  0.00     0.238 C
BRANCH  12  13
HETATM   13  N1  UNL     1      19.678  -2.417  11.923  1.00  0.00    -0.079 N
ATOM     14  H13 UNL     1      19.071  -2.315  12.736  1.00  0.00     0.274 HD
ATOM     15  H12 UNL     1      19.625  -1.457  11.585  1.00  0.00     0.274 HD
ATOM     16  H11 UNL     1      19.312  -3.089  11.248  1.00  0.00     0.274 HD
ENDBRANCH  12  13
ENDBRANCH  11  12
ENDBRANCH   8  11
ENDBRANCH   1   7
BRANCH   5  17
HETATM   17  N3  UNL     1      26.499  -7.510  11.700  1.00  0.00    -0.075 N
ATOM     18  H33 UNL     1      26.855  -8.466  11.708  1.00  0.00     0.274 HD
ATOM     19  H32 UNL     1      26.950  -7.196  10.841  1.00  0.00     0.274 HD
ATOM     20  H31 UNL     1      26.803  -6.977  12.514  1.00  0.00     0.274 HD
ENDBRANCH   5  17
TORSDOF 5
ENDMDL