MODEL 5
REMARK VINA RESULT: -5.971965218      1.001      1.001
REMARK  4 active torsions:
REMARK  status: ('A' for Active; 'I' for Inactive)
REMARK    1  A    between atoms: N1_1  and  C1_5
REMARK    2  A    between atoms: C1_5  and  C2_6
REMARK    3  A    between atoms: C6_10  and  C7_11
REMARK       I    between atoms: C7_11  and  N2_13
REMARK       I    between atoms: N2_13  and  C8_15
REMARK       I    between atoms: C8_15  and  N3_17
REMARK    4  A    between atoms: N3_17  and  N4_19
ROOT
HETATM    1  C7  UNL     1      22.224  -5.793  11.977  1.00  0.00     0.230 C
HETATM    2  O1  UNL     1      21.487  -6.410  12.781  1.00  0.00    -0.273 OA
HETATM    3  N2  UNL     1      22.149  -4.394  11.812  1.00  0.00    -0.278 N
ATOM      4  H2  UNL     1      22.790  -3.987  11.131  1.00  0.00     0.173 HD
HETATM    5  C8  UNL     1      21.304  -3.505  12.467  1.00  0.00     0.341 C
HETATM    6  O2  UNL     1      21.421  -2.259  12.146  1.00  0.00    -0.245 OA
HETATM    7  N3  UNL     1      20.333  -3.781  13.440  1.00  0.00    -0.258 N
ATOM      8  H3  UNL     1      20.195  -4.748  13.734  1.00  0.00     0.191 HD
ENDROOT
BRANCH   1   9
HETATM    9  C6  UNL     1      23.186  -6.616  11.201  1.00  0.00     0.084 C
HETATM   10  C2  UNL     1      24.607  -6.244  11.442  1.00  0.00     0.024 C
HETATM   11  C3  UNL     1      25.412  -7.533  11.426  1.00  0.00     0.007 C
HETATM   12  C4  UNL     1      24.410  -8.601  11.003  1.00  0.00     0.001 C
HETATM   13  C5  UNL     1      23.143  -8.067  11.685  1.00  0.00     0.014 C
BRANCH  10  14
HETATM   14  C1  UNL     1      25.165  -5.335  10.365  1.00  0.00     0.235 C
BRANCH  14  15
HETATM   15  N1  UNL     1      24.986  -3.941  10.708  1.00  0.00    -0.079 N
ATOM     16  H13 UNL     1      25.078  -3.340   9.889  1.00  0.00     0.274 HD
ATOM     17  H12 UNL     1      24.016  -3.736  10.945  1.00  0.00     0.274 HD
ATOM     18  H11 UNL     1      25.622  -3.658  11.453  1.00  0.00     0.274 HD
ENDBRANCH  14  15
ENDBRANCH  10  14
ENDBRANCH   1   9
BRANCH   7  19
HETATM   19  N4  UNL     1      19.550  -2.785  14.020  1.00  0.00    -0.341 N
ATOM     20  H42 UNL     1      19.502  -2.751  15.037  1.00  0.00     0.177 HD
ATOM     21  H41 UNL     1      19.034  -2.102  13.465  1.00  0.00     0.177 HD
ENDBRANCH   7  19
TORSDOF 4
ENDMDL