MODEL 3
REMARK VINA RESULT: -5.371227768      2.550      5.994
REMARK  3 active torsions:
REMARK  status: ('A' for Active; 'I' for Inactive)
REMARK       I    between atoms: C1_4  and  N3_6
REMARK       I    between atoms: N3_6  and  C2_7
REMARK       I    between atoms: C2_7  and  N4_9
REMARK    1  A    between atoms: C5_12  and  C6_13
REMARK    2  A    between atoms: C6_13  and  C7_14
REMARK    3  A    between atoms: C7_14  and  N5_15
ROOT
HETATM    1  N1  UNL     1      23.141  -6.482  12.379  1.00  0.00    -0.362 N
ATOM      2  H11 UNL     1      22.404  -6.446  13.083  1.00  0.00     0.159 HD
ATOM      3  H12 UNL     1      23.826  -7.210  12.179  1.00  0.00     0.159 HD
HETATM    4  C1  UNL     1      23.178  -5.369  11.626  1.00  0.00     0.266 C
HETATM    5  N2  UNL     1      24.192  -5.418  10.657  1.00  0.00    -0.049 NA
HETATM    6  N3  UNL     1      22.280  -4.413  11.887  1.00  0.00    -0.319 NA
HETATM    7  C2  UNL     1      21.353  -3.427  12.158  1.00  0.00     0.399 C
HETATM    8  O1  UNL     1      21.297  -2.309  11.535  1.00  0.00    -0.230 OA
HETATM    9  N4  UNL     1      20.347  -3.578  13.190  1.00  0.00    -0.317 N
HETATM   10  C3  UNL     1      19.966  -4.593  14.141  1.00  0.00     0.131 C
HETATM   11  C4  UNL     1      19.485  -3.502  15.049  1.00  0.00     0.045 C
HETATM   12  C5  UNL     1      19.301  -2.746  13.730  1.00  0.00     0.093 C
ENDROOT
BRANCH  12  13
HETATM   13  C6  UNL     1      17.964  -2.950  13.083  1.00  0.00     0.052 C
BRANCH  13  14
HETATM   14  C7  UNL     1      17.715  -1.904  12.006  1.00  0.00     0.231 C
BRANCH  14  15
HETATM   15  N5  UNL     1      18.164  -2.340  10.733  1.00  0.00    -0.079 N
ATOM     16  H53 UNL     1      18.688  -3.213  10.804  1.00  0.00     0.274 HD
ATOM     17  H52 UNL     1      17.388  -2.665  10.157  1.00  0.00     0.274 HD
ATOM     18  H51 UNL     1      18.704  -1.620  10.254  1.00  0.00     0.274 HD
ENDBRANCH  14  15
ENDBRANCH  13  14
ENDBRANCH  12  13
TORSDOF 3
ENDMDL