MODEL 3
REMARK VINA RESULT: -6.124354698      1.631      1.853
REMARK  4 active torsions:
REMARK  status: ('A' for Active; 'I' for Inactive)
REMARK    1  A    between atoms: C2_2  and  C3_3
REMARK       I    between atoms: C3_3  and  N1_5
REMARK    2  A    between atoms: N1_5  and  C4_7
REMARK    3  A    between atoms: C4_7  and  N2_9
REMARK    4  A    between atoms: N2_9  and  N3_11
REMARK       I    between atoms: N3_11  and  C5_12
ROOT
HETATM    1  C4  UNL     1      23.133  -4.377  10.548  1.00  0.00     0.203 C
HETATM    2  S1  UNL     1      24.439  -3.607  11.244  1.00  0.00    -0.038 SA
ENDROOT
BRANCH   1   3
HETATM    3  N1  UNL     1      23.296  -5.725  10.312  1.00  0.00    -0.302 N
HETATM    4  C3  UNL     1      22.757  -6.830  11.062  1.00  0.00     0.223 C
HETATM    5  O1  UNL     1      22.061  -6.708  12.039  1.00  0.00    -0.273 OA
ATOM      6  H1  UNL     1      23.870  -5.971   9.506  1.00  0.00     0.171 HD
BRANCH   4   7
HETATM    7  C2  UNL     1      23.107  -8.213  10.529  1.00  0.00     0.099 C
HETATM    8  C1  UNL     1      24.599  -8.507  10.810  1.00  0.00     0.014 C
ENDBRANCH   4   7
ENDBRANCH   1   3
BRANCH   1   9
HETATM    9  N2  UNL     1      21.984  -3.575  10.361  1.00  0.00    -0.204 N
ATOM     10  H2  UNL     1      21.749  -3.309   9.405  1.00  0.00     0.204 HD
BRANCH   9  11
HETATM   11  N3  UNL     1      21.181  -3.137  11.334  1.00  0.00    -0.265 NA
HETATM   12  C5  UNL     1      20.380  -2.701  12.308  1.00  0.00     0.424 C
HETATM   13  N4  UNL     1      18.979  -2.733  12.026  1.00  0.00    -0.024 NA
HETATM   14  O2  UNL     1      20.681  -2.258  13.439  1.00  0.00    -0.232 OA
ENDBRANCH   9  11
ENDBRANCH   1   9
TORSDOF 4
ENDMDL