MODEL 4
REMARK VINA RESULT: -9.072745403      1.921      3.142
REMARK  11 active torsions:
REMARK  status: ('A' for Active; 'I' for Inactive)
REMARK    1  A    between atoms: C3_3  and  O1_4
REMARK    2  A    between atoms: O1_4  and  C4_5
REMARK    3  A    between atoms: C4_5  and  C5_6
REMARK    4  A    between atoms: C5_6  and  C6_7
REMARK    5  A    between atoms: C6_7  and  C7_8
REMARK    6  A    between atoms: C7_8  and  C8_9
REMARK    7  A    between atoms: C8_9  and  C9_10
REMARK    8  A    between atoms: C9_10  and  C10_11
REMARK    9  A    between atoms: C10_11  and  C11_12
REMARK   10  A    between atoms: C11_12  and  C12_13
REMARK   11  A    between atoms: C18_22  and  C19_23
ROOT
HETATM    1  C1  UNL     1      21.589   3.818   7.198  1.00  0.00     0.004 A
HETATM    2  C2  UNL     1      22.453   3.008   7.936  1.00  0.00     0.037 A
HETATM    3  C3  UNL     1      22.865   3.390   9.193  1.00  0.00     0.069 A
HETATM    4  C17 UNL     1      22.395   4.614   9.718  1.00  0.00     0.050 A
HETATM    5  C18 UNL     1      21.547   5.418   9.004  1.00  0.00    -0.004 A
HETATM    6  C25 UNL     1      21.154   5.005   7.746  1.00  0.00     0.014 A
ENDROOT
BRANCH   3   7
HETATM    7  O1  UNL     1      23.700   2.665   9.967  1.00  0.00    -0.351 OA
BRANCH   7   8
HETATM    8  C4  UNL     1      24.120   1.362   9.989  1.00  0.00     0.175 C
BRANCH   8   9
HETATM    9  C5  UNL     1      25.552   1.088  10.265  1.00  0.00     0.027 C
BRANCH   9  10
HETATM   10  C6  UNL     1      26.027  -0.058   9.391  1.00  0.00     0.002 C
BRANCH  10  11
HETATM   11  C7  UNL     1      26.890   0.349   8.245  1.00  0.00     0.000 C
BRANCH  11  12
HETATM   12  C8  UNL     1      27.041  -0.801   7.284  1.00  0.00     0.000 C
BRANCH  12  13
HETATM   13  C9  UNL     1      27.937  -1.842   7.844  1.00  0.00     0.000 C
BRANCH  13  14
HETATM   14  C10 UNL     1      29.403  -1.437   7.791  1.00  0.00     0.000 C
BRANCH  14  15
HETATM   15  C11 UNL     1      30.135  -2.144   6.686  1.00  0.00     0.005 C
BRANCH  15  16
HETATM   16  C12 UNL     1      31.281  -1.287   6.221  1.00  0.00    -0.011 C
HETATM   17  C13 UNL     1      30.985   0.183   6.340  1.00  0.00     0.032 C
HETATM   18  C14 UNL     1      31.406   0.954   5.121  1.00  0.00     0.232 C
HETATM   19  N1  UNL     1      32.734   0.539   4.704  1.00  0.00    -0.075 N
HETATM   20  C15 UNL     1      32.771  -0.837   4.263  1.00  0.00     0.232 C
ATOM     21  H12 UNL     1      33.106   1.164   3.989  1.00  0.00     0.277 HD
ATOM     22  H11 UNL     1      33.419   0.706   5.442  1.00  0.00     0.277 HD
HETATM   23  C16 UNL     1      31.551  -1.601   4.764  1.00  0.00     0.032 C
ENDBRANCH  15  16
ENDBRANCH  14  15
ENDBRANCH  13  14
ENDBRANCH  12  13
ENDBRANCH  11  12
ENDBRANCH  10  11
ENDBRANCH   9  10
ENDBRANCH   8   9
ENDBRANCH   7   8
ENDBRANCH   3   7
BRANCH   5  24
HETATM   24  C19 UNL     1      21.037   6.689   9.508  1.00  0.00     0.071 A
HETATM   25  N2  UNL     1      21.696   7.838   9.252  1.00  0.00    -0.363 N
HETATM   26  C20 UNL     1      21.263   9.039   9.697  1.00  0.00     0.090 A
ATOM     27  H2  UNL     1      22.553   7.798   8.701  1.00  0.00     0.165 HD
HETATM   28  C21 UNL     1      20.111   9.164  10.447  1.00  0.00     0.049 A
HETATM   29  C22 UNL     1      19.407   8.004  10.730  1.00  0.00     0.063 A
HETATM   30  N3  UNL     1      18.266   7.792  11.425  1.00  0.00    -0.350 N
HETATM   31  C24 UNL     1      19.882   6.791  10.257  1.00  0.00     0.088 A
HETATM   32  C23 UNL     1      18.027   6.465  11.389  1.00  0.00     0.181 A
ATOM     33  H3  UNL     1      17.695   8.500  11.888  1.00  0.00     0.166 HD
HETATM   34  N4  UNL     1      19.005   5.864  10.683  1.00  0.00    -0.349 N
ATOM     35  H4  UNL     1      19.070   4.862  10.500  1.00  0.00     0.167 HD
ENDBRANCH   5  24
TORSDOF 11
ENDMDL