MODEL 4
REMARK VINA RESULT: -10.741894640      0.994      1.394
REMARK  11 active torsions:
REMARK  status: ('A' for Active; 'I' for Inactive)
REMARK    1  A    between atoms: C2_2  and  C3_3
REMARK    2  A    between atoms: C3_3  and  C4_4
REMARK    3  A    between atoms: C4_4  and  C5_5
REMARK    4  A    between atoms: C5_5  and  C6_6
REMARK    5  A    between atoms: C6_6  and  C7_7
REMARK    6  A    between atoms: C7_7  and  C8_8
REMARK    7  A    between atoms: C8_8  and  N1_9
REMARK    8  A    between atoms: N1_9  and  C9_11
REMARK    9  A    between atoms: C12_14  and  C13_15
REMARK   10  A    between atoms: C13_15  and  C14_16
REMARK   11  A    between atoms: C14_16  and  C15_17
ROOT
HETATM    1  N1  UNL     1      24.346   0.281   9.442  1.00  0.00    -0.390 N
ATOM      2  H1  UNL     1      24.150  -0.516  10.048  1.00  0.00     0.159 HD
ENDROOT
BRANCH   1   3
HETATM    3  C8  UNL     1      25.653   0.419   8.847  1.00  0.00     0.119 C
BRANCH   3   4
HETATM    4  C7  UNL     1      26.633  -0.373   9.759  1.00  0.00     0.020 C
BRANCH   4   5
HETATM    5  C6  UNL     1      26.831  -1.678   9.134  1.00  0.00     0.002 C
BRANCH   5   6
HETATM    6  C5  UNL     1      27.347  -1.778   7.773  1.00  0.00     0.000 C
BRANCH   6   7
HETATM    7  C4  UNL     1      28.734  -1.485   7.508  1.00  0.00     0.004 C
BRANCH   7   8
HETATM    8  C3  UNL     1      29.588  -2.017   6.442  1.00  0.00     0.036 C
BRANCH   8   9
HETATM    9  C2  UNL     1      30.618  -1.116   5.920  1.00  0.00    -0.061 A
HETATM   10  C1  UNL     1      31.617  -1.648   5.178  1.00  0.00     0.018 A
HETATM   11  C24 UNL     1      32.693  -0.887   4.604  1.00  0.00    -0.009 A
HETATM   12  C19 UNL     1      32.730   0.474   4.807  1.00  0.00     0.038 A
HETATM   13  C23 UNL     1      33.706  -1.440   3.851  1.00  0.00     0.013 A
HETATM   14  N6  UNL     1      31.706   1.060   5.572  1.00  0.00    -0.385 N
HETATM   15  C20 UNL     1      33.769   1.220   4.253  1.00  0.00     0.030 A
HETATM   16  C18 UNL     1      30.666   0.315   6.214  1.00  0.00     0.154 A
ATOM     17  H6  UNL     1      31.704   2.074   5.676  1.00  0.00     0.160 HD
HETATM   18  C21 UNL     1      34.772   0.648   3.503  1.00  0.00     0.002 A
HETATM   19  C22 UNL     1      34.734  -0.715   3.302  1.00  0.00     0.001 A
ENDBRANCH   8   9
ENDBRANCH   7   8
ENDBRANCH   6   7
ENDBRANCH   5   6
ENDBRANCH   4   5
ENDBRANCH   3   4
ENDBRANCH   1   3
BRANCH   1  20
HETATM   20  C9  UNL     1      23.312   1.261   9.191  1.00  0.00     0.027 A
HETATM   21  C10 UNL     1      23.370   2.101   8.105  1.00  0.00     0.029 A
HETATM   22  C11 UNL     1      22.383   3.037   7.862  1.00  0.00     0.009 A
HETATM   23  C12 UNL     1      21.297   3.167   8.705  1.00  0.00    -0.058 A
HETATM   24  C16 UNL     1      21.244   2.320   9.795  1.00  0.00     0.009 A
HETATM   25  C17 UNL     1      22.233   1.383  10.036  1.00  0.00     0.029 A
BRANCH  23  26
HETATM   26  C13 UNL     1      20.241   4.179   8.431  1.00  0.00     0.046 C
BRANCH  26  27
HETATM   27  C14 UNL     1      20.172   5.080   9.649  1.00  0.00     0.084 C
BRANCH  27  28
HETATM   28  C15 UNL     1      21.005   6.296   9.475  1.00  0.00     0.113 A
HETATM   29  N2  UNL     1      22.275   6.433   9.089  1.00  0.00    -0.272 N
HETATM   30  N3  UNL     1      22.535   7.728   9.101  1.00  0.00    -0.227 N
ATOM     31  H2  UNL     1      22.919   5.684   8.834  1.00  0.00     0.190 HD
HETATM   32  N4  UNL     1      21.486   8.414   9.479  1.00  0.00    -0.227 N
ATOM     33  H3  UNL     1      23.434   8.140   8.850  1.00  0.00     0.210 HD
HETATM   34  N5  UNL     1      20.537   7.531   9.712  1.00  0.00    -0.272 N
ATOM     35  H4  UNL     1      21.418   9.428   9.573  1.00  0.00     0.210 HD
ATOM     36  H5  UNL     1      19.591   7.752  10.024  1.00  0.00     0.190 HD
ENDBRANCH  27  28
ENDBRANCH  26  27
ENDBRANCH  23  26
ENDBRANCH   1  20
TORSDOF 11
ENDMDL