MODEL 2
REMARK VINA RESULT: -9.778345331      0.141      3.284
REMARK  11 active torsions:
REMARK  status: ('A' for Active; 'I' for Inactive)
REMARK    1  A    between atoms: C4_4  and  N1_5
REMARK    2  A    between atoms: N1_5  and  C5_7
REMARK    3  A    between atoms: C5_7  and  C6_8
REMARK    4  A    between atoms: C6_8  and  N2_9
REMARK    5  A    between atoms: N2_9  and  C7_11
REMARK    6  A    between atoms: C7_11  and  C8_12
REMARK    7  A    between atoms: C8_12  and  C9_13
REMARK    8  A    between atoms: C9_13  and  C10_14
REMARK    9  A    between atoms: C10_14  and  N3_15
REMARK   10  A    between atoms: N3_15  and  C11_17
REMARK   11  A    between atoms: C11_17  and  C12_18
ROOT
HETATM    1  N3  UNL     1      24.386   1.916   7.755  1.00  0.00    -0.398 N
ATOM      2  H3  UNL     1      24.068   2.248   6.845  1.00  0.00     0.158 HD
ENDROOT
BRANCH   1   3
HETATM    3  C10 UNL     1      25.239   0.702   8.041  1.00  0.00     0.119 C
BRANCH   3   4
HETATM    4  C9  UNL     1      25.696   0.749   9.453  1.00  0.00     0.021 C
BRANCH   4   5
HETATM    5  C8  UNL     1      26.472  -0.457   9.850  1.00  0.00     0.021 C
BRANCH   5   6
HETATM    6  C7  UNL     1      26.116  -1.742   9.182  1.00  0.00     0.113 C
BRANCH   6   7
HETATM    7  N2  UNL     1      27.162  -2.457   8.549  1.00  0.00    -0.420 N
ATOM      8  H2  UNL     1      27.476  -3.364   8.896  1.00  0.00     0.153 HD
BRANCH   7   9
HETATM    9  C6  UNL     1      27.752  -1.849   7.405  1.00  0.00     0.133 C
BRANCH   9  10
HETATM   10  C5  UNL     1      29.141  -1.304   7.689  1.00  0.00     0.139 C
BRANCH  10  11
HETATM   11  N1  UNL     1      29.492  -0.290   6.697  1.00  0.00    -0.388 N
ATOM     12  H1  UNL     1      28.896   0.531   6.597  1.00  0.00     0.159 HD
BRANCH  11  13
HETATM   13  C4  UNL     1      30.628  -0.413   5.875  1.00  0.00     0.028 A
HETATM   14  C3  UNL     1      31.385   0.698   5.508  1.00  0.00     0.029 A
HETATM   15  C2  UNL     1      32.495   0.615   4.712  1.00  0.00     0.002 A
HETATM   16  C1  UNL     1      32.892  -0.625   4.244  1.00  0.00     0.000 A
HETATM   17  C27 UNL     1      32.151  -1.732   4.601  1.00  0.00     0.002 A
HETATM   18  C26 UNL     1      31.047  -1.627   5.397  1.00  0.00     0.029 A
ENDBRANCH  11  13
ENDBRANCH  10  11
ENDBRANCH   9  10
ENDBRANCH   7   9
ENDBRANCH   6   7
ENDBRANCH   5   6
ENDBRANCH   4   5
ENDBRANCH   3   4
ENDBRANCH   1   3
BRANCH   1  19
HETATM   19  C11 UNL     1      24.127   2.484   9.002  1.00  0.00     0.096 C
BRANCH  19  20
HETATM   20  C12 UNL     1      22.937   3.251   9.337  1.00  0.00     0.001 A
HETATM   21  C13 UNL     1      21.913   2.494   9.988  1.00  0.00    -0.013 A
HETATM   22  C14 UNL     1      22.120   1.156  10.245  1.00  0.00     0.013 A
HETATM   23  C18 UNL     1      20.746   3.076  10.354  1.00  0.00    -0.024 A
HETATM   24  C15 UNL     1      21.118   0.430  10.881  1.00  0.00     0.001 A
HETATM   25  C16 UNL     1      19.928   1.009  11.258  1.00  0.00     0.001 A
HETATM   26  C17 UNL     1      19.738   2.345  10.993  1.00  0.00     0.012 A
HETATM   27  C19 UNL     1      20.551   4.406  10.095  1.00  0.00     0.024 A
HETATM   28  C20 UNL     1      21.532   5.152   9.469  1.00  0.00    -0.024 A
HETATM   29  C21 UNL     1      21.315   6.498   9.237  1.00  0.00     0.012 A
HETATM   30  C25 UNL     1      22.755   4.582   9.076  1.00  0.00    -0.013 A
HETATM   31  C22 UNL     1      22.261   7.286   8.637  1.00  0.00     0.001 A
HETATM   32  C23 UNL     1      23.451   6.723   8.261  1.00  0.00     0.001 A
HETATM   33  C24 UNL     1      23.706   5.380   8.475  1.00  0.00     0.013 A
ENDBRANCH  19  20
ENDBRANCH   1  19
TORSDOF 11
ENDMDL