MODEL 4
REMARK VINA RESULT: -9.861772801      1.135      1.408
REMARK  12 active torsions:
REMARK  status: ('A' for Active; 'I' for Inactive)
REMARK    1  A    between atoms: C5_8  and  N3_9
REMARK    2  A    between atoms: N3_9  and  C6_11
REMARK    3  A    between atoms: C6_11  and  C7_12
REMARK    4  A    between atoms: C7_12  and  C8_13
REMARK    5  A    between atoms: C8_13  and  C9_14
REMARK    6  A    between atoms: C9_14  and  C10_15
REMARK    7  A    between atoms: C10_15  and  C11_16
REMARK    8  A    between atoms: C10_15  and  C12_19
REMARK    9  A    between atoms: C11_16  and  O1_17
REMARK   10  A    between atoms: C13_20  and  C14_21
REMARK   11  A    between atoms: C14_21  and  C15_22
REMARK   12  A    between atoms: C15_22  and  C16_23
ROOT
HETATM    1  C8  UNL     1      25.592   0.829   9.670  1.00  0.00     0.006 C
ENDROOT
BRANCH   1   2
HETATM    2  C7  UNL     1      24.136   1.184   9.387  1.00  0.00     0.020 C
BRANCH   2   3
HETATM    3  C6  UNL     1      24.027   1.654   7.980  1.00  0.00     0.121 C
BRANCH   3   4
HETATM    4  N3  UNL     1      22.739   2.204   7.643  1.00  0.00    -0.370 N
ATOM      5  H3  UNL     1      22.049   1.628   7.162  1.00  0.00     0.161 HD
BRANCH   4   6
HETATM    6  C5  UNL     1      22.453   3.453   7.956  1.00  0.00     0.145 A
HETATM    7  N2  UNL     1      21.263   4.045   7.925  1.00  0.00    -0.336 N
HETATM    8  C4  UNL     1      21.179   5.301   8.276  1.00  0.00     0.051 A
ATOM      9  H2  UNL     1      20.432   3.529   7.633  1.00  0.00     0.168 HD
HETATM   10  C3  UNL     1      20.018   6.093   8.308  1.00  0.00     0.033 A
HETATM   11  C22 UNL     1      22.324   5.940   8.657  1.00  0.00     0.037 A
HETATM   12  C2  UNL     1      20.029   7.399   8.688  1.00  0.00     0.029 A
HETATM   13  C1  UNL     1      21.182   8.028   9.068  1.00  0.00     0.047 A
HETATM   14  N1  UNL     1      21.146   9.385   9.456  1.00  0.00    -0.102 NA
HETATM   15  C23 UNL     1      22.345   7.288   9.051  1.00  0.00     0.048 A
HETATM   16  S1  UNL     1      23.488   4.698   8.494  1.00  0.00    -0.052 SA
ENDBRANCH   4   6
ENDBRANCH   3   4
ENDBRANCH   2   3
ENDBRANCH   1   2
BRANCH   1  17
HETATM   17  C9  UNL     1      25.788  -0.642   9.925  1.00  0.00     0.036 C
BRANCH  17  18
HETATM   18  C10 UNL     1      27.116  -1.079   9.301  1.00  0.00    -0.057 C
BRANCH  18  19
HETATM   19  C11 UNL     1      26.949  -2.207   8.390  1.00  0.00     0.198 C
BRANCH  19  20
HETATM   20  O1  UNL     1      25.705  -2.770   8.439  1.00  0.00    -0.397 OA
ATOM     21  H1  UNL     1      25.569  -3.324   9.198  1.00  0.00     0.209 HD
ENDBRANCH  19  20
ENDBRANCH  18  19
BRANCH  18  22
HETATM   22  C12 UNL     1      28.027   0.041   9.045  1.00  0.00     0.001 C
HETATM   23  C13 UNL     1      29.089  -0.018   8.064  1.00  0.00    -0.026 C
BRANCH  23  24
HETATM   24  C14 UNL     1      30.336  -0.768   8.107  1.00  0.00     0.027 C
BRANCH  24  25
HETATM   25  C15 UNL     1      30.945  -1.274   6.875  1.00  0.00     0.008 C
BRANCH  25  26
HETATM   26  C16 UNL     1      30.609  -0.940   5.515  1.00  0.00    -0.014 C
HETATM   27  C17 UNL     1      30.839   0.420   4.978  1.00  0.00     0.004 C
HETATM   28  C18 UNL     1      32.313   0.813   5.148  1.00  0.00     0.000 C
HETATM   29  C19 UNL     1      33.083  -0.043   4.170  1.00  0.00     0.000 C
HETATM   30  C20 UNL     1      32.854  -1.488   4.545  1.00  0.00     0.000 C
HETATM   31  C21 UNL     1      31.404  -1.885   4.568  1.00  0.00     0.004 C
ENDBRANCH  25  26
ENDBRANCH  24  25
ENDBRANCH  23  24
ENDBRANCH  18  22
ENDBRANCH  17  18
ENDBRANCH   1  17
TORSDOF 12
ENDMDL