MODEL 1
REMARK VINA RESULT: -9.965305091      0.000      0.000
REMARK  12 active torsions:
REMARK  status: ('A' for Active; 'I' for Inactive)
REMARK    1  A    between atoms: N1_1  and  C1_4
REMARK    2  A    between atoms: N4_14  and  C7_15
REMARK    3  A    between atoms: C7_15  and  C8_16
REMARK    4  A    between atoms: C8_16  and  C9_17
REMARK    5  A    between atoms: C9_17  and  C10_18
REMARK    6  A    between atoms: C10_18  and  C11_19
REMARK    7  A    between atoms: C11_19  and  C12_20
REMARK    8  A    between atoms: C12_20  and  C13_21
REMARK    9  A    between atoms: C13_21  and  C14_22
REMARK   10  A    between atoms: C14_22  and  C15_23
REMARK   11  A    between atoms: C15_23  and  N5_24
REMARK   12  A    between atoms: N5_24  and  C16_26
ROOT
HETATM    1  C1  UNL     1      21.100   3.980   9.500  1.00  0.00     0.049 A
HETATM    2  C2  UNL     1      21.863   5.062   9.062  1.00  0.00    -0.008 A
HETATM    3  C3  UNL     1      23.186   4.828   8.724  1.00  0.00     0.019 A
HETATM    4  N2  UNL     1      23.715   3.597   8.817  1.00  0.00    -0.343 N
ATOM      5  H2  UNL     1      24.692   3.454   8.562  1.00  0.00     0.167 HD
HETATM    6  C4  UNL     1      22.988   2.546   9.239  1.00  0.00     0.136 A
HETATM    7  C5  UNL     1      21.662   2.711   9.591  1.00  0.00     0.053 A
HETATM    8  C6  UNL     1      21.214   1.465   9.970  1.00  0.00     0.125 A
HETATM    9  N3  UNL     1      22.229   0.630   9.842  1.00  0.00    -0.307 N
ATOM     10  H3  UNL     1      22.177  -0.366  10.057  1.00  0.00     0.186 HD
HETATM   11  N4  UNL     1      23.317   1.233   9.405  1.00  0.00    -0.276 N
HETATM   12  C22 UNL     1      23.838   6.100   8.276  1.00  0.00     0.058 A
HETATM   13  C23 UNL     1      22.748   7.117   8.315  1.00  0.00     0.011 A
HETATM   14  C24 UNL     1      21.511   6.492   8.884  1.00  0.00     0.043 A
ENDROOT
BRANCH  11  15
HETATM   15  C7  UNL     1      24.598   0.669   9.150  1.00  0.00     0.151 C
BRANCH  15  16
HETATM   16  C8  UNL     1      24.907   0.424   7.706  1.00  0.00     0.022 C
BRANCH  16  17
HETATM   17  C9  UNL     1      24.537  -0.963   7.303  1.00  0.00     0.002 C
BRANCH  17  18
HETATM   18  C10 UNL     1      25.680  -1.849   6.936  1.00  0.00     0.000 C
BRANCH  18  19
HETATM   19  C11 UNL     1      26.451  -2.208   8.214  1.00  0.00     0.000 C
BRANCH  19  20
HETATM   20  C12 UNL     1      27.942  -1.981   7.994  1.00  0.00     0.000 C
BRANCH  20  21
HETATM   21  C13 UNL     1      28.368  -0.650   8.496  1.00  0.00     0.002 C
BRANCH  21  22
HETATM   22  C14 UNL     1      29.819  -0.316   8.346  1.00  0.00     0.019 C
BRANCH  22  23
HETATM   23  C15 UNL     1      30.644  -1.478   7.898  1.00  0.00     0.114 C
BRANCH  23  24
HETATM   24  N5  UNL     1      31.317  -1.323   6.656  1.00  0.00    -0.417 N
ATOM     25  H5  UNL     1      32.331  -1.216   6.637  1.00  0.00     0.153 HD
BRANCH  24  26
HETATM   26  C16 UNL     1      30.587  -1.318   5.454  1.00  0.00     0.076 C
HETATM   27  C17 UNL     1      30.307   0.148   5.055  1.00  0.00     0.024 C
HETATM   28  C18 UNL     1      31.589   0.894   5.119  1.00  0.00     0.002 C
HETATM   29  C19 UNL     1      32.803   0.273   4.550  1.00  0.00     0.000 C
HETATM   30  C20 UNL     1      32.811  -1.198   4.342  1.00  0.00     0.002 C
HETATM   31  C21 UNL     1      31.443  -1.830   4.292  1.00  0.00     0.024 C
ENDBRANCH  24  26
ENDBRANCH  23  24
ENDBRANCH  22  23
ENDBRANCH  21  22
ENDBRANCH  20  21
ENDBRANCH  19  20
ENDBRANCH  18  19
ENDBRANCH  17  18
ENDBRANCH  16  17
ENDBRANCH  15  16
ENDBRANCH  11  15
BRANCH   1  32
HETATM   32  N1  UNL     1      19.876   4.154   9.815  1.00  0.00    -0.398 N
ATOM     33  H12 UNL     1      19.215   4.484   9.111  1.00  0.00     0.156 HD
ATOM     34  H11 UNL     1      19.566   3.966  10.769  1.00  0.00     0.156 HD
ENDBRANCH   1  32
TORSDOF 12
ENDMDL