MODEL 1
REMARK VINA RESULT: -9.409474880      0.000      0.000
REMARK  10 active torsions:
REMARK  status: ('A' for Active; 'I' for Inactive)
REMARK    1  A    between atoms: C2_3  and  C3_4
REMARK    2  A    between atoms: C2_3  and  C12_20
REMARK    3  A    between atoms: C3_4  and  C4_5
REMARK    4  A    between atoms: C4_5  and  C5_6
REMARK    5  A    between atoms: C5_6  and  C6_7
REMARK    6  A    between atoms: C6_7  and  C7_8
REMARK    7  A    between atoms: C7_8  and  N2_9
REMARK    8  A    between atoms: N2_9  and  C8_12
REMARK    9  A    between atoms: C8_12  and  C9_13
REMARK   10  A    between atoms: C14_22  and  C15_23
ROOT
HETATM    1  N1  UNL     1      24.657  -1.965   6.797  1.00  0.00    -0.197 NA
HETATM    2  C1  UNL     1      25.482  -1.290   7.234  1.00  0.00     0.070 C
HETATM    3  C2  UNL     1      26.567  -0.359   7.812  1.00  0.00     0.142 C
ENDROOT
BRANCH   3   4
HETATM    4  C3  UNL     1      27.525  -1.265   8.431  1.00  0.00     0.025 C
BRANCH   4   5
HETATM    5  C4  UNL     1      28.956  -0.712   8.613  1.00  0.00     0.002 C
BRANCH   5   6
HETATM    6  C5  UNL     1      29.315   0.104   7.439  1.00  0.00     0.002 C
BRANCH   6   7
HETATM    7  C6  UNL     1      30.184  -0.470   6.406  1.00  0.00     0.027 C
BRANCH   7   8
HETATM    8  C7  UNL     1      31.103  -1.577   6.728  1.00  0.00     0.232 C
BRANCH   8   9
HETATM    9  N2  UNL     1      31.760  -2.287   5.717  1.00  0.00    -0.069 N
ATOM     10  H22 UNL     1      32.675  -2.604   6.037  1.00  0.00     0.277 HD
ATOM     11  H21 UNL     1      31.310  -3.190   5.561  1.00  0.00     0.277 HD
BRANCH   9  12
HETATM   12  C8  UNL     1      31.879  -1.560   4.478  1.00  0.00     0.308 C
BRANCH  12  13
HETATM   13  C9  UNL     1      33.113  -0.860   4.157  1.00  0.00     0.106 A
HETATM   14  N3  UNL     1      34.273  -1.162   3.573  1.00  0.00    -0.353 N
HETATM   15  C10 UNL     1      35.075  -0.085   3.445  1.00  0.00     0.106 A
ATOM     16  H3  UNL     1      34.525  -2.099   3.260  1.00  0.00     0.166 HD
HETATM   17  C11 UNL     1      34.358   0.980   3.994  1.00  0.00     0.106 A
HETATM   18  N4  UNL     1      33.195   0.505   4.410  1.00  0.00    -0.353 N
ATOM     19  H4  UNL     1      32.463   1.060   4.854  1.00  0.00     0.166 HD
ENDBRANCH  12  13
ENDBRANCH   9  12
ENDBRANCH   8   9
ENDBRANCH   7   8
ENDBRANCH   6   7
ENDBRANCH   5   6
ENDBRANCH   4   5
ENDBRANCH   3   4
BRANCH   3  20
HETATM   20  C12 UNL     1      25.790   0.515   8.762  1.00  0.00     0.027 A
HETATM   21  C13 UNL     1      24.536   1.030   8.469  1.00  0.00     0.040 A
HETATM   22  C14 UNL     1      24.097   1.734   9.599  1.00  0.00    -0.008 A
HETATM   23  C24 UNL     1      25.117   1.609  10.510  1.00  0.00     0.100 A
HETATM   24  N6  UNL     1      26.136   0.870   9.994  1.00  0.00    -0.367 N
ATOM     25  H6  UNL     1      27.007   0.632  10.467  1.00  0.00     0.165 HD
BRANCH  22  26
HETATM   26  C15 UNL     1      22.794   2.398   9.729  1.00  0.00    -0.013 A
HETATM   27  C16 UNL     1      21.733   1.671  10.292  1.00  0.00     0.013 A
HETATM   28  C17 UNL     1      20.492   2.241  10.353  1.00  0.00     0.002 A
HETATM   29  C18 UNL     1      20.336   3.517   9.852  1.00  0.00     0.013 A
HETATM   30  C19 UNL     1      21.362   4.244   9.298  1.00  0.00    -0.010 A
HETATM   31  C20 UNL     1      21.106   5.534   8.844  1.00  0.00     0.099 A
HETATM   32  C23 UNL     1      22.623   3.670   9.235  1.00  0.00    -0.012 A
HETATM   33  N5  UNL     1      22.153   6.224   8.327  1.00  0.00    -0.374 N
HETATM   34  C21 UNL     1      23.379   5.697   8.257  1.00  0.00     0.088 A
ATOM     35  H5  UNL     1      22.000   7.171   7.981  1.00  0.00     0.164 HD
HETATM   36  C22 UNL     1      23.655   4.404   8.709  1.00  0.00     0.030 A
ENDBRANCH  22  26
ENDBRANCH   3  20
TORSDOF 10
ENDMDL