MODEL 4
REMARK VINA RESULT: -9.280284382      3.071     10.508
REMARK  11 active torsions:
REMARK  status: ('A' for Active; 'I' for Inactive)
REMARK    1  A    between atoms: C5_8  and  C6_9
REMARK    2  A    between atoms: C6_9  and  C7_10
REMARK    3  A    between atoms: C7_10  and  C8_11
REMARK    4  A    between atoms: C8_11  and  C9_12
REMARK    5  A    between atoms: C9_12  and  C10_13
REMARK    6  A    between atoms: C10_13  and  C11_14
REMARK    7  A    between atoms: C11_14  and  C12_15
REMARK    8  A    between atoms: C12_15  and  C13_16
REMARK    9  A    between atoms: C13_16  and  C14_17
REMARK   10  A    between atoms: C14_17  and  C15_18
REMARK   11  A    between atoms: C15_18  and  N2_19
ROOT
HETATM    1  C12 UNL     1      24.607   0.034   7.722  1.00  0.00     0.000 C
ENDROOT
BRANCH   1   2
HETATM    2  C11 UNL     1      24.943   0.410   9.157  1.00  0.00     0.000 C
BRANCH   2   3
HETATM    3  C10 UNL     1      23.863   1.237   9.788  1.00  0.00     0.000 C
BRANCH   3   4
HETATM    4  C9  UNL     1      24.398   2.272  10.737  1.00  0.00     0.000 C
BRANCH   4   5
HETATM    5  C8  UNL     1      23.868   3.665  10.466  1.00  0.00     0.000 C
BRANCH   5   6
HETATM    6  C7  UNL     1      23.377   3.827   9.069  1.00  0.00     0.002 C
BRANCH   6   7
HETATM    7  C6  UNL     1      23.720   5.118   8.412  1.00  0.00     0.025 C
BRANCH   7   8
HETATM    8  C5  UNL     1      22.561   6.023   8.141  1.00  0.00     0.082 C
HETATM    9  C4  UNL     1      21.261   5.250   8.230  1.00  0.00     0.025 C
HETATM   10  C3  UNL     1      20.059   6.143   8.306  1.00  0.00     0.009 C
HETATM   11  C2  UNL     1      20.119   7.164   9.384  1.00  0.00     0.075 C
HETATM   12  C1  UNL     1      21.392   7.913   9.273  1.00  0.00     0.070 C
HETATM   13  N1  UNL     1      21.412   9.193   9.401  1.00  0.00    -0.389 N
HETATM   14  N4  UNL     1      22.577   7.176   9.021  1.00  0.00    -0.376 N
ATOM     15  H12 UNL     1      20.560   9.723   9.582  1.00  0.00     0.157 HD
ATOM     16  H11 UNL     1      22.289   9.709   9.324  1.00  0.00     0.157 HD
ATOM     17  H4  UNL     1      23.451   7.459   9.464  1.00  0.00     0.161 HD
ENDBRANCH   7   8
ENDBRANCH   6   7
ENDBRANCH   5   6
ENDBRANCH   4   5
ENDBRANCH   3   4
ENDBRANCH   2   3
ENDBRANCH   1   2
BRANCH   1  18
HETATM   18  C13 UNL     1      25.296  -1.208   7.282  1.00  0.00     0.002 C
BRANCH  18  19
HETATM   19  C14 UNL     1      25.878  -2.043   8.354  1.00  0.00     0.020 C
BRANCH  19  20
HETATM   20  C15 UNL     1      27.346  -2.201   8.416  1.00  0.00     0.121 C
BRANCH  20  21
HETATM   21  N2  UNL     1      28.125  -1.051   8.710  1.00  0.00    -0.379 N
HETATM   22  C16 UNL     1      29.178  -0.826   8.005  1.00  0.00     0.084 C
HETATM   23  C17 UNL     1      29.961   0.392   8.351  1.00  0.00     0.160 C
HETATM   24  N3  UNL     1      29.636  -1.627   6.950  1.00  0.00    -0.345 N
HETATM   25  C18 UNL     1      30.842   0.822   7.257  1.00  0.00     0.168 C
HETATM   26  O1  UNL     1      31.244   2.015   7.246  1.00  0.00    -0.292 OA
HETATM   27  C19 UNL     1      31.286  -0.038   6.179  1.00  0.00     0.037 A
HETATM   28  C20 UNL     1      32.290   0.319   5.298  1.00  0.00     0.017 A
HETATM   29  C24 UNL     1      30.672  -1.259   6.041  1.00  0.00     0.047 A
HETATM   30  C21 UNL     1      32.693  -0.537   4.268  1.00  0.00     0.001 A
HETATM   31  C22 UNL     1      32.077  -1.764   4.127  1.00  0.00     0.002 A
HETATM   32  C23 UNL     1      31.080  -2.102   5.014  1.00  0.00     0.030 A
ATOM     33  H3  UNL     1      29.197  -2.539   6.823  1.00  0.00     0.167 HD
ATOM     34  H2  UNL     1      27.855  -0.418   9.463  1.00  0.00     0.160 HD
ENDBRANCH  20  21
ENDBRANCH  19  20
ENDBRANCH  18  19
ENDBRANCH   1  18
TORSDOF 11
ENDMDL