MODEL 3
REMARK VINA RESULT: -9.814671676      0.777      1.026
REMARK  11 active torsions:
REMARK  status: ('A' for Active; 'I' for Inactive)
REMARK    1  A    between atoms: O1_1  and  C1_3
REMARK    2  A    between atoms: C4_6  and  C5_7
REMARK    3  A    between atoms: C5_7  and  N1_8
REMARK    4  A    between atoms: N1_8  and  C6_10
REMARK    5  A    between atoms: C6_10  and  C7_11
REMARK    6  A    between atoms: C7_11  and  C8_12
REMARK    7  A    between atoms: C8_12  and  C9_13
REMARK    8  A    between atoms: C9_13  and  C10_14
REMARK    9  A    between atoms: N2_15  and  C11_17
REMARK   10  A    between atoms: C11_17  and  C12_18
REMARK   11  A    between atoms: C21_27  and  C22_28
ROOT
HETATM    1  N1  UNL     1      24.652  -0.656   8.001  1.00  0.00    -0.398 N
ATOM      2  H1  UNL     1      24.245  -1.250   8.723  1.00  0.00     0.158 HD
ENDROOT
BRANCH   1   3
HETATM    3  C5  UNL     1      24.155   0.684   7.778  1.00  0.00     0.158 C
BRANCH   3   4
HETATM    4  C4  UNL     1      24.185   1.554   8.968  1.00  0.00    -0.023 A
HETATM    5  C3  UNL     1      25.094   1.331   9.969  1.00  0.00     0.013 A
HETATM    6  C2  UNL     1      25.148   2.215  11.047  1.00  0.00     0.038 A
HETATM    7  C1  UNL     1      24.304   3.268  11.078  1.00  0.00     0.073 A
HETATM    8  C19 UNL     1      23.364   3.520  10.077  1.00  0.00    -0.006 A
HETATM    9  C18 UNL     1      23.331   2.653   9.028  1.00  0.00     0.018 A
HETATM   10  C20 UNL     1      22.372   4.589  10.025  1.00  0.00     0.058 C
HETATM   11  S1  UNL     1      22.075   3.223   7.931  1.00  0.00    -0.123 SA
HETATM   12  C21 UNL     1      22.103   4.957   8.579  1.00  0.00     0.061 C
BRANCH   7  13
HETATM   13  O1  UNL     1      24.416   4.112  12.168  1.00  0.00    -0.360 OA
ATOM     14  H1  UNL     1      23.782   3.987  12.865  1.00  0.00     0.217 HD
ENDBRANCH   7  13
BRANCH  12  15
HETATM   15  C22 UNL     1      20.849   5.698   8.327  1.00  0.00    -0.000 A
HETATM   16  C23 UNL     1      20.963   7.230   8.479  1.00  0.00     0.006 A
HETATM   17  C24 UNL     1      20.155   6.449   9.417  1.00  0.00     0.006 A
ENDBRANCH  12  15
ENDBRANCH   3   4
ENDBRANCH   1   3
BRANCH   1  18
HETATM   18  C6  UNL     1      25.708  -1.121   7.199  1.00  0.00     0.056 C
BRANCH  18  19
HETATM   19  C7  UNL     1      27.058  -0.679   7.496  1.00  0.00     0.044 C
BRANCH  19  20
HETATM   20  C8  UNL     1      27.714  -0.975   8.795  1.00  0.00     0.010 C
BRANCH  20  21
HETATM   21  C9  UNL     1      29.244  -0.747   8.538  1.00  0.00     0.044 C
BRANCH  21  22
HETATM   22  C10 UNL     1      29.573  -1.540   7.338  1.00  0.00     0.056 C
HETATM   23  N2  UNL     1      30.598  -1.343   6.471  1.00  0.00    -0.398 N
ATOM     24  H2  UNL     1      31.478  -1.844   6.587  1.00  0.00     0.158 HD
BRANCH  23  25
HETATM   25  C11 UNL     1      30.419  -0.400   5.366  1.00  0.00     0.157 C
BRANCH  25  26
HETATM   26  C12 UNL     1      31.918  -0.312   4.902  1.00  0.00    -0.041 A
HETATM   27  C13 UNL     1      32.487  -1.451   4.390  1.00  0.00     0.009 A
HETATM   28  C14 UNL     1      33.745  -1.444   3.786  1.00  0.00     0.001 A
HETATM   29  C15 UNL     1      34.404  -0.263   3.711  1.00  0.00     0.000 A
HETATM   30  C16 UNL     1      33.818   0.886   4.232  1.00  0.00     0.001 A
HETATM   31  C17 UNL     1      32.566   0.872   4.829  1.00  0.00     0.009 A
ENDBRANCH  25  26
ENDBRANCH  23  25
ENDBRANCH  21  22
ENDBRANCH  20  21
ENDBRANCH  19  20
ENDBRANCH  18  19
ENDBRANCH   1  18
TORSDOF 11
ENDMDL