MODEL 1
REMARK VINA RESULT: -10.341679453      0.000      0.000
REMARK  12 active torsions:
REMARK  status: ('A' for Active; 'I' for Inactive)
REMARK    1  A    between atoms: N1_1  and  C1_5
REMARK    2  A    between atoms: C1_5  and  C2_6
REMARK    3  A    between atoms: C2_6  and  C3_7
REMARK    4  A    between atoms: C3_7  and  C4_8
REMARK    5  A    between atoms: C4_8  and  C5_9
REMARK    6  A    between atoms: C5_9  and  C6_10
REMARK    7  A    between atoms: C6_10  and  C7_11
REMARK    8  A    between atoms: C10_14  and  C11_15
REMARK    9  A    between atoms: C11_15  and  C12_16
REMARK   10  A    between atoms: C12_16  and  N2_17
REMARK   11  A    between atoms: N2_17  and  C13_19
REMARK   12  A    between atoms: C16_22  and  C17_23
ROOT
HETATM    1  N2  UNL     1      25.655  -0.921   9.260  1.00  0.00    -0.390 N
ATOM      2  H2  UNL     1      26.270  -1.028  10.067  1.00  0.00     0.159 HD
ENDROOT
BRANCH   1   3
HETATM    3  C12 UNL     1      25.598  -2.015   8.344  1.00  0.00     0.120 C
BRANCH   3   4
HETATM    4  C11 UNL     1      26.472  -1.833   7.117  1.00  0.00     0.024 C
BRANCH   4   5
HETATM    5  C10 UNL     1      27.739  -1.149   7.593  1.00  0.00    -0.012 C
HETATM    6  C9  UNL     1      28.125   0.012   6.758  1.00  0.00     0.005 C
HETATM    7  C8  UNL     1      29.486  -0.275   6.203  1.00  0.00     0.009 C
HETATM    8  C7  UNL     1      30.097  -1.245   7.289  1.00  0.00     0.008 C
HETATM    9  C25 UNL     1      28.925  -2.088   7.536  1.00  0.00     0.013 C
BRANCH   8  10
HETATM   10  C6  UNL     1      31.365  -1.730   6.765  1.00  0.00    -0.022 C
BRANCH  10  11
HETATM   11  C5  UNL     1      31.571  -2.202   5.424  1.00  0.00    -0.008 C
BRANCH  11  12
HETATM   12  C4  UNL     1      32.166  -1.610   4.255  1.00  0.00    -0.027 C
BRANCH  12  13
HETATM   13  C3  UNL     1      33.042  -0.438   4.225  1.00  0.00     0.028 C
BRANCH  13  14
HETATM   14  C2  UNL     1      34.373  -0.712   3.506  1.00  0.00     0.031 C
BRANCH  14  15
HETATM   15  C1  UNL     1      35.283   0.464   3.462  1.00  0.00     0.230 C
BRANCH  15  16
HETATM   16  N1  UNL     1      35.971   0.545   2.170  1.00  0.00    -0.079 N
ATOM     17  H13 UNL     1      36.909   0.934   2.267  1.00  0.00     0.274 HD
ATOM     18  H12 UNL     1      36.223  -0.379   1.818  1.00  0.00     0.274 HD
ATOM     19  H11 UNL     1      35.415   1.068   1.493  1.00  0.00     0.274 HD
ENDBRANCH  15  16
ENDBRANCH  14  15
ENDBRANCH  13  14
ENDBRANCH  12  13
ENDBRANCH  11  12
ENDBRANCH  10  11
ENDBRANCH   8  10
ENDBRANCH   4   5
ENDBRANCH   3   4
ENDBRANCH   1   3
BRANCH   1  20
HETATM   20  C13 UNL     1      24.944   0.293   9.157  1.00  0.00     0.028 A
HETATM   21  C14 UNL     1      24.230   0.653   8.024  1.00  0.00     0.030 A
HETATM   22  C15 UNL     1      23.557   1.857   7.964  1.00  0.00     0.017 A
HETATM   23  C16 UNL     1      23.580   2.718   9.022  1.00  0.00     0.008 A
HETATM   24  C23 UNL     1      24.275   2.398  10.161  1.00  0.00     0.017 A
HETATM   25  C24 UNL     1      24.942   1.195  10.210  1.00  0.00     0.030 A
BRANCH  23  26
HETATM   26  C17 UNL     1      22.856   3.999   8.939  1.00  0.00     0.117 A
HETATM   27  N3  UNL     1      23.335   5.228   9.190  1.00  0.00    -0.326 N
HETATM   28  C18 UNL     1      22.387   6.168   9.012  1.00  0.00     0.134 A
ATOM     29  H3  UNL     1      24.293   5.425   9.479  1.00  0.00     0.169 HD
HETATM   30  N4  UNL     1      22.346   7.508   9.128  1.00  0.00    -0.350 N
HETATM   31  C22 UNL     1      21.246   5.474   8.625  1.00  0.00     0.078 A
HETATM   32  C19 UNL     1      21.219   8.198   8.876  1.00  0.00     0.090 A
ATOM     33  H4  UNL     1      23.187   8.011   9.413  1.00  0.00     0.166 HD
HETATM   34  C20 UNL     1      20.049   7.570   8.486  1.00  0.00     0.019 A
HETATM   35  C21 UNL     1      20.099   6.198   8.370  1.00  0.00     0.035 A
HETATM   36  N5  UNL     1      21.569   4.167   8.592  1.00  0.00    -0.339 N
ATOM     37  H5  UNL     1      20.929   3.413   8.340  1.00  0.00     0.167 HD
ENDBRANCH  23  26
ENDBRANCH   1  20
TORSDOF 12
ENDMDL