MODEL 5
REMARK VINA RESULT: -7.389107433      2.707      3.681
REMARK  13 active torsions:
REMARK  status: ('A' for Active; 'I' for Inactive)
REMARK    1  A    between atoms: N1_1  and  C1_4
REMARK    2  A    between atoms: C3_8  and  C4_9
REMARK       I    between atoms: C4_9  and  N3_11
REMARK    3  A    between atoms: N3_11  and  C5_13
REMARK    4  A    between atoms: C6_18  and  C7_19
REMARK    5  A    between atoms: C7_19  and  C8_20
REMARK    6  A    between atoms: C8_20  and  S1_21
REMARK    7  A    between atoms: S1_21  and  C9_22
REMARK    8  A    between atoms: C9_22  and  C10_23
REMARK    9  A    between atoms: C10_23  and  C11_24
REMARK   10  A    between atoms: N7_32  and  C16_33
REMARK   11  A    between atoms: C16_33  and  O2_34
REMARK   12  A    between atoms: O2_34  and  C17_35
REMARK   13  A    between atoms: C17_35  and  C18_36
ROOT
HETATM    1  C5  UNL     1       9.845  18.010  17.152  1.00  0.00     0.705 A
HETATM    2  N4  UNL     1       9.068  18.365  16.104  1.00  0.00    -0.130 N
ATOM      3  H4  UNL     1       8.179  17.943  15.836  1.00  0.00     0.205 HD
HETATM    4  N5  UNL     1       9.673  19.353  15.501  1.00  0.00    -0.274 N
ATOM      5  H5  UNL     1       9.305  19.819  14.671  1.00  0.00     0.189 HD
HETATM    6  C6  UNL     1      10.827  19.688  16.088  1.00  0.00     0.117 A
HETATM    7  N7  UNL     1      10.917  18.817  17.138  1.00  0.00    -0.147 N
ENDROOT
BRANCH   1   8
HETATM    8  N3  UNL     1       9.613  17.091  18.024  1.00  0.00    -0.153 N
HETATM    9  C4  UNL     1       8.355  16.459  18.093  1.00  0.00     0.278 C
HETATM   10  O1  UNL     1       8.189  15.318  17.644  1.00  0.00    -0.266 OA
ATOM     11  H3  UNL     1      10.350  16.816  18.673  1.00  0.00     0.187 HD
BRANCH   9  12
HETATM   12  C3  UNL     1       7.242  17.205  18.721  1.00  0.00     0.092 A
HETATM   13  C2  UNL     1       7.243  17.863  19.923  1.00  0.00     0.115 A
HETATM   14  N2  UNL     1       6.143  18.462  20.289  1.00  0.00    -0.345 N
HETATM   15  C1  UNL     1       5.086  18.404  19.482  1.00  0.00     0.142 A
ATOM     16  H2  UNL     1       6.095  18.964  21.175  1.00  0.00     0.167 HD
HETATM   17  S2  UNL     1       5.653  17.480  18.168  1.00  0.00    -0.048 SA
BRANCH  15  18
HETATM   18  N1  UNL     1       3.893  18.928  19.648  1.00  0.00    -0.380 N
ATOM     19  H12 UNL     1       3.530  19.799  19.260  1.00  0.00     0.158 HD
ATOM     20  H11 UNL     1       3.106  18.571  20.190  1.00  0.00     0.158 HD
ENDBRANCH  15  18
ENDBRANCH   9  12
ENDBRANCH   1   8
BRANCH   7  21
HETATM   21  C16 UNL     1      12.039  18.785  18.049  1.00  0.00     0.318 C
BRANCH  21  22
HETATM   22  O2  UNL     1      11.708  19.345  19.246  1.00  0.00    -0.370 OA
BRANCH  22  23
HETATM   23  C17 UNL     1      12.304  20.539  19.569  1.00  0.00     0.180 C
BRANCH  23  24
HETATM   24  C18 UNL     1      11.191  21.604  19.454  1.00  0.00     0.111 C
HETATM   25 BR2  UNL     1       9.506  20.895  20.013  1.00  0.00    -0.094 Br
ENDBRANCH  23  24
ENDBRANCH  22  23
ENDBRANCH  21  22
ENDBRANCH   7  21
BRANCH   6  26
HETATM   26  C7  UNL     1      11.840  20.694  15.793  1.00  0.00     0.089 C
BRANCH  26  27
HETATM   27  C8  UNL     1      12.787  20.504  14.686  1.00  0.00     0.081 C
BRANCH  27  28
HETATM   28  S1  UNL     1      14.330  19.765  15.044  1.00  0.00    -0.168 SA
BRANCH  28  29
HETATM   29  C9  UNL     1      15.803  20.686  15.221  1.00  0.00     0.080 C
BRANCH  29  30
HETATM   30  C10 UNL     1      15.566  22.193  15.200  1.00  0.00     0.067 C
BRANCH  30  31
HETATM   31  C11 UNL     1      15.579  22.736  16.585  1.00  0.00     0.009 A
HETATM   32  C12 UNL     1      14.425  22.967  17.267  1.00  0.00     0.026 A
HETATM   33  C13 UNL     1      14.483  23.477  18.559  1.00  0.00     0.022 A
HETATM   34  C14 UNL     1      15.681  23.749  19.148  1.00  0.00     0.026 A
HETATM   35 BR1  UNL     1      15.798  24.451  20.918  1.00  0.00    -0.050 Br
HETATM   36  C15 UNL     1      16.833  23.502  18.424  1.00  0.00     0.107 A
HETATM   37  N6  UNL     1      16.759  23.010  17.180  1.00  0.00    -0.368 N
ATOM     38  H6  UNL     1      17.622  22.837  16.666  1.00  0.00     0.165 HD
ENDBRANCH  30  31
ENDBRANCH  29  30
ENDBRANCH  28  29
ENDBRANCH  27  28
ENDBRANCH  26  27
ENDBRANCH   6  26
TORSDOF 13
ENDMDL