MODEL 4
REMARK VINA RESULT: -8.656504824      2.949     10.504
REMARK  13 active torsions:
REMARK  status: ('A' for Active; 'I' for Inactive)
REMARK    1  A    between atoms: O1_2  and  C2_3
REMARK    2  A    between atoms: C2_3  and  C3_4
REMARK    3  A    between atoms: C3_4  and  O2_5
REMARK    4  A    between atoms: O2_5  and  C4_6
REMARK    5  A    between atoms: C4_6  and  N1_7
REMARK    6  A    between atoms: C4_6  and  C5_11
REMARK    7  A    between atoms: C5_11  and  N2_12
REMARK       I    between atoms: N2_12  and  C6_14
REMARK    8  A    between atoms: C6_14  and  C7_16
REMARK    9  A    between atoms: C13_25  and  C14_26
REMARK   10  A    between atoms: C14_26  and  N5_27
REMARK   11  A    between atoms: N5_27  and  C16_29
REMARK   12  A    between atoms: C16_29  and  C17_30
REMARK       I    between atoms: C17_30  and  N6_32
REMARK   13  A    between atoms: N6_32  and  C18_33
ROOT
HETATM    1  C7  UNL     1      13.795  22.032  18.297  1.00  0.00     0.056 A
HETATM    2  C8  UNL     1      14.728  21.972  17.236  1.00  0.00     0.051 A
HETATM    3  C9  UNL     1      14.403  21.451  16.032  1.00  0.00     0.063 A
HETATM    4  C10 UNL     1      13.161  20.953  15.788  1.00  0.00     0.019 A
HETATM    5  C11 UNL     1      13.087  20.467  14.495  1.00  0.00     0.121 A
HETATM    6  N3  UNL     1      14.280  20.672  13.959  1.00  0.00    -0.309 N
ATOM      7  H3  UNL     1      14.547  20.421  13.006  1.00  0.00     0.186 HD
HETATM    8  N4  UNL     1      15.084  21.259  14.855  1.00  0.00    -0.296 N
HETATM    9  C12 UNL     1      16.474  21.620  14.750  1.00  0.00     0.178 C
HETATM   10  C13 UNL     1      12.258  21.009  16.858  1.00  0.00    -0.004 A
HETATM   11  C26 UNL     1      12.574  21.539  18.075  1.00  0.00     0.058 A
HETATM   12 CL2  UNL     1      11.343  21.613  19.336  1.00  0.00    -0.083 Cl
ENDROOT
BRANCH  10  13
HETATM   13  C14 UNL     1      10.868  20.481  16.488  1.00  0.00     0.158 C
BRANCH  13  14
HETATM   14  N5  UNL     1      10.732  19.268  17.132  1.00  0.00    -0.403 N
HETATM   15  C15 UNL     1      10.835  18.244  15.921  1.00  0.00     0.144 C
BRANCH  14  16
HETATM   16  C16 UNL     1      10.166  18.619  18.133  1.00  0.00     0.236 C
BRANCH  16  17
HETATM   17  C17 UNL     1       8.587  18.768  18.134  1.00  0.00     0.311 C
HETATM   18  O4  UNL     1       8.230  19.830  18.765  1.00  0.00    -0.255 OA
HETATM   19  N6  UNL     1       7.845  17.912  17.537  1.00  0.00    -0.350 NA
BRANCH  19  20
HETATM   20  C18 UNL     1       7.148  17.084  16.990  1.00  0.00     0.190 A
HETATM   21  N7  UNL     1       7.692  16.428  15.885  1.00  0.00    -0.334 N
HETATM   22  C19 UNL     1       7.097  15.415  15.285  1.00  0.00     0.015 A
ATOM     23  H7  UNL     1       8.592  16.747  15.525  1.00  0.00     0.168 HD
HETATM   24  C20 UNL     1       7.796  14.735  14.145  1.00  0.00     0.069 C
HETATM   25  C21 UNL     1       5.887  14.912  15.687  1.00  0.00    -0.017 A
HETATM   26  C22 UNL     1       5.263  13.766  14.991  1.00  0.00     0.052 C
HETATM   27  C23 UNL     1       5.305  15.549  16.799  1.00  0.00     0.052 A
HETATM   28 CL1  UNL     1       3.796  14.915  17.365  1.00  0.00    -0.083 Cl
HETATM   29  C24 UNL     1       5.941  16.607  17.414  1.00  0.00     0.019 A
HETATM   30  C25 UNL     1       5.234  17.295  18.544  1.00  0.00     0.055 C
ENDBRANCH  19  20
ENDBRANCH  16  17
ENDBRANCH  14  16
ENDBRANCH  13  14
ENDBRANCH  10  13
BRANCH   1  31
HETATM   31  C6  UNL     1      14.254  22.955  19.399  1.00  0.00     0.253 C
HETATM   32  N2  UNL     1      14.724  24.184  18.889  1.00  0.00    -0.353 N
ATOM     33  H2  UNL     1      14.619  24.261  17.877  1.00  0.00     0.162 HD
HETATM   34  O3  UNL     1      14.209  22.566  20.544  1.00  0.00    -0.268 OA
BRANCH  32  35
HETATM   35  C5  UNL     1      15.314  25.345  19.479  1.00  0.00     0.184 C
BRANCH  35  36
HETATM   36  C4  UNL     1      16.752  24.887  19.852  1.00  0.00     0.336 C
BRANCH  36  37
HETATM   37  O2  UNL     1      17.309  23.914  19.106  1.00  0.00    -0.356 OA
BRANCH  37  38
HETATM   38  C3  UNL     1      18.235  24.556  18.200  1.00  0.00     0.196 C
BRANCH  38  39
HETATM   39  C2  UNL     1      18.326  23.892  16.883  1.00  0.00     0.193 C
BRANCH  39  40
HETATM   40  O1  UNL     1      18.321  24.835  15.852  1.00  0.00    -0.394 OA
HETATM   41  C1  UNL     1      18.311  26.138  16.342  1.00  0.00     0.201 C
ENDBRANCH  39  40
ENDBRANCH  38  39
ENDBRANCH  37  38
ENDBRANCH  36  37
BRANCH  36  42
HETATM   42  N1  UNL     1      16.749  24.463  21.233  1.00  0.00    -0.051 N
ATOM     43  H13 UNL     1      15.806  24.322  21.597  1.00  0.00     0.277 HD
ATOM     44  H12 UNL     1      17.089  23.509  21.350  1.00  0.00     0.277 HD
ATOM     45  H11 UNL     1      17.282  25.138  21.781  1.00  0.00     0.277 HD
ENDBRANCH  36  42
ENDBRANCH  35  36
ENDBRANCH  32  35
ENDBRANCH   1  31
TORSDOF 13
ENDMDL