MODEL 4
REMARK VINA RESULT: -8.992520496      5.666     11.894
REMARK  14 active torsions:
REMARK  status: ('A' for Active; 'I' for Inactive)
REMARK    1  A    between atoms: C2_2  and  C3_3
REMARK    2  A    between atoms: C3_3  and  N1_4
REMARK    3  A    between atoms: C7_10  and  N3_11
REMARK    4  A    between atoms: N4_14  and  C10_15
REMARK    5  A    between atoms: C10_15  and  C11_16
REMARK    6  A    between atoms: C11_16  and  N5_17
REMARK    7  A    between atoms: C12_19  and  N6_20
REMARK    8  A    between atoms: C12_19  and  C14_23
REMARK    9  A    between atoms: C17_31  and  N8_32
REMARK   10  A    between atoms: N8_32  and  C18_34
REMARK   11  A    between atoms: C18_34  and  C19_35
REMARK   12  A    between atoms: C19_35  and  C20_36
REMARK   13  A    between atoms: C23_39  and  O1_40
REMARK   14  A    between atoms: C25_42  and  O2_43
ROOT
HETATM    1  N1  UNL     1      15.259  22.918  19.439  1.00  0.00    -0.408 N
HETATM    2  C4  UNL     1      13.998  23.346  19.931  1.00  0.00     0.123 C
HETATM    3  C5  UNL     1      13.262  22.157  20.515  1.00  0.00     0.078 C
HETATM    4  C6  UNL     1      12.992  21.255  19.373  1.00  0.00     0.040 A
HETATM    5  N2  UNL     1      11.806  20.695  19.121  1.00  0.00    -0.195 N
ATOM      6  H2  UNL     1      11.019  20.883  19.742  1.00  0.00     0.184 HD
HETATM    7  C7  UNL     1      11.633  19.876  18.045  1.00  0.00     0.682 A
HETATM    8  N7  UNL     1      12.692  19.647  17.247  1.00  0.00    -0.176 N
ATOM      9  H7  UNL     1      12.542  19.031  16.447  1.00  0.00     0.186 HD
HETATM   10  C17 UNL     1      13.910  20.145  17.399  1.00  0.00     0.130 A
HETATM   11  C28 UNL     1      14.043  20.992  18.530  1.00  0.00     0.027 A
HETATM   12  C29 UNL     1      15.340  21.629  18.855  1.00  0.00     0.161 C
ENDROOT
BRANCH   7  13
HETATM   13  N3  UNL     1      10.369  19.304  17.802  1.00  0.00    -0.211 N
HETATM   14  C8  UNL     1       9.443  19.092  18.881  1.00  0.00     0.185 C
HETATM   15  C9  UNL     1       8.030  18.924  18.410  1.00  0.00     0.079 C
HETATM   16  N4  UNL     1       7.852  17.995  17.366  1.00  0.00    -0.386 N
HETATM   17  C15 UNL     1       9.053  17.628  16.718  1.00  0.00     0.143 C
HETATM   18  C16 UNL     1       9.898  18.881  16.480  1.00  0.00     0.161 C
BRANCH  16  19
HETATM   19  C10 UNL     1       6.946  16.916  17.612  1.00  0.00     0.166 C
BRANCH  19  20
HETATM   20  C11 UNL     1       7.572  15.541  17.453  1.00  0.00     0.082 C
BRANCH  20  21
HETATM   21  N5  UNL     1       6.859  14.725  16.553  1.00  0.00    -0.351 N
HETATM   22  C12 UNL     1       6.907  14.420  15.355  1.00  0.00     0.185 C
ATOM     23  H5  UNL     1       6.086  14.251  17.021  1.00  0.00     0.166 HD
BRANCH  22  24
HETATM   24  N6  UNL     1       5.913  13.488  14.829  1.00  0.00    -0.377 N
HETATM   25  C13 UNL     1       4.724  13.269  15.587  1.00  0.00     0.147 C
ATOM     26  H6  UNL     1       6.065  13.007  13.943  1.00  0.00     0.160 HD
ENDBRANCH  22  24
BRANCH  22  27
HETATM   27  C14 UNL     1       7.904  14.935  14.401  1.00  0.00     0.448 C
HETATM   28  F1  UNL     1       7.627  16.284  14.164  1.00  0.00    -0.163 F
HETATM   29  F2  UNL     1       9.166  14.771  14.864  1.00  0.00    -0.163 F
HETATM   30  F3  UNL     1       7.789  14.284  13.177  1.00  0.00    -0.163 F
ENDBRANCH  22  27
ENDBRANCH  20  21
ENDBRANCH  19  20
ENDBRANCH  16  19
ENDBRANCH   7  13
BRANCH  10  31
HETATM   31  N8  UNL     1      14.940  19.967  16.696  1.00  0.00    -0.355 N
ATOM     32  H8  UNL     1      15.712  19.502  17.174  1.00  0.00     0.166 HD
BRANCH  31  33
HETATM   33  C18 UNL     1      15.190  20.303  15.373  1.00  0.00     0.067 C
BRANCH  33  34
HETATM   34  C19 UNL     1      14.512  21.575  14.940  1.00  0.00     0.083 C
BRANCH  34  35
HETATM   35  C20 UNL     1      15.614  22.494  14.518  1.00  0.00    -0.051 A
HETATM   36  C21 UNL     1      15.641  22.958  13.242  1.00  0.00     0.010 A
HETATM   37  C22 UNL     1      16.666  23.816  12.874  1.00  0.00     0.040 A
HETATM   38  C23 UNL     1      17.634  24.189  13.778  1.00  0.00     0.101 A
HETATM   39  C25 UNL     1      17.558  23.691  15.057  1.00  0.00     0.102 A
HETATM   40  C27 UNL     1      16.557  22.846  15.439  1.00  0.00     0.047 A
BRANCH  38  41
HETATM   41  O1  UNL     1      18.631  25.043  13.361  1.00  0.00    -0.353 OA
HETATM   42  C24 UNL     1      18.454  26.403  13.092  1.00  0.00     0.210 C
ENDBRANCH  38  41
BRANCH  39  43
HETATM   43  O2  UNL     1      18.536  24.063  15.982  1.00  0.00    -0.353 OA
HETATM   44  C26 UNL     1      18.422  25.294  16.685  1.00  0.00     0.210 C
ENDBRANCH  39  43
ENDBRANCH  34  35
ENDBRANCH  33  34
ENDBRANCH  31  33
ENDBRANCH  10  31
BRANCH   1  45
HETATM   45  C3  UNL     1      16.016  23.930  18.740  1.00  0.00     0.117 C
BRANCH  45  46
HETATM   46  C2  UNL     1      15.757  25.254  19.405  1.00  0.00     0.015 C
HETATM   47  C1  UNL     1      16.839  25.669  20.342  1.00  0.00     0.006 C
ENDBRANCH  45  46
ENDBRANCH   1  45
TORSDOF 14
ENDMDL