MODEL 1
REMARK VINA RESULT: -9.204008578      0.000      0.000
REMARK  14 active torsions:
REMARK  status: ('A' for Active; 'I' for Inactive)
REMARK    1  A    between atoms: N2_13  and  C8_14
REMARK    2  A    between atoms: C8_14  and  C9_15
REMARK    3  A    between atoms: C9_15  and  C10_16
REMARK    4  A    between atoms: C10_16  and  C11_17
REMARK    5  A    between atoms: C12_18  and  N3_19
REMARK    6  A    between atoms: N3_19  and  C13_21
REMARK    7  A    between atoms: C17_29  and  C18_30
REMARK    8  A    between atoms: C18_30  and  O3_31
REMARK    9  A    between atoms: C19_33  and  O4_34
REMARK   10  A    between atoms: O4_34  and  C20_35
REMARK   11  A    between atoms: C20_35  and  C21_36
REMARK   12  A    between atoms: C21_36  and  O5_37
REMARK   13  A    between atoms: C21_36  and  C22_39
REMARK   14  A    between atoms: C22_39  and  O6_40
ROOT
HETATM    1  C13 UNL     1      12.412  19.315  18.610  1.00  0.00     0.120 A
HETATM    2  N4  UNL     1      11.792  18.248  18.142  1.00  0.00    -0.338 N
ATOM      3  H4  UNL     1      11.179  17.733  18.774  1.00  0.00     0.168 HD
HETATM    4  C14 UNL     1      11.923  17.801  16.885  1.00  0.00     0.182 A
HETATM    5  N5  UNL     1      12.729  18.491  16.040  1.00  0.00    -0.351 N
ATOM      6  H5  UNL     1      12.841  18.176  15.076  1.00  0.00     0.166 HD
HETATM    7  C15 UNL     1      13.388  19.597  16.471  1.00  0.00     0.049 A
HETATM    8  C16 UNL     1      14.139  20.345  15.573  1.00  0.00     0.042 A
HETATM    9  C17 UNL     1      14.736  21.494  16.008  1.00  0.00     0.002 A
HETATM   10  C19 UNL     1      14.643  21.960  17.303  1.00  0.00     0.095 A
HETATM   11  C23 UNL     1      13.874  21.204  18.209  1.00  0.00     0.061 A
HETATM   12 BR1  UNL     1      13.636  21.801  19.984  1.00  0.00    -0.047 Br
HETATM   13  C24 UNL     1      13.259  20.040  17.774  1.00  0.00     0.055 A
ENDROOT
BRANCH   1  14
HETATM   14  N3  UNL     1      11.922  20.042  19.660  1.00  0.00    -0.352 N
ATOM     15  H3  UNL     1      12.237  20.979  19.910  1.00  0.00     0.166 HD
BRANCH  14  16
HETATM   16  C12 UNL     1      10.925  19.323  20.352  1.00  0.00     0.085 C
HETATM   17  C11 UNL     1      10.048  19.439  21.408  1.00  0.00    -0.010 C
BRANCH  17  18
HETATM   18  C10 UNL     1       8.827  20.341  21.546  1.00  0.00     0.030 C
BRANCH  18  19
HETATM   19  C9  UNL     1       7.761  19.509  20.946  1.00  0.00     0.024 C
BRANCH  19  20
HETATM   20  C8  UNL     1       6.873  19.904  19.834  1.00  0.00     0.136 C
BRANCH  20  21
HETATM   21  N2  UNL     1       7.064  18.764  18.861  1.00  0.00    -0.279 N
HETATM   22  C1  UNL     1       6.232  17.630  18.670  1.00  0.00     0.263 A
HETATM   23  O1  UNL     1       5.219  17.376  19.381  1.00  0.00    -0.267 OA
HETATM   24  C2  UNL     1       6.747  16.844  17.535  1.00  0.00     0.066 A
HETATM   25  C3  UNL     1       6.278  15.698  16.933  1.00  0.00     0.045 A
HETATM   26  C6  UNL     1       7.895  17.496  17.044  1.00  0.00     0.117 A
HETATM   27  C4  UNL     1       6.936  15.144  15.822  1.00  0.00     0.050 A
HETATM   28 CL1  UNL     1       6.364  13.702  15.064  1.00  0.00    -0.083 Cl
HETATM   29  C5  UNL     1       8.049  15.808  15.385  1.00  0.00     0.112 A
HETATM   30  N1  UNL     1       8.494  16.935  15.981  1.00  0.00    -0.359 N
ATOM     31  H1  UNL     1       9.329  17.383  15.605  1.00  0.00     0.165 HD
HETATM   32  C7  UNL     1       8.082  18.689  17.875  1.00  0.00     0.278 A
HETATM   33  O2  UNL     1       8.990  19.544  17.767  1.00  0.00    -0.265 OA
ENDBRANCH  20  21
ENDBRANCH  19  20
ENDBRANCH  18  19
ENDBRANCH  17  18
ENDBRANCH  14  16
ENDBRANCH   1  14
BRANCH  10  34
HETATM   34  O4  UNL     1      15.266  23.113  17.640  1.00  0.00    -0.346 OA
BRANCH  34  35
HETATM   35  C20 UNL     1      16.285  23.260  18.589  1.00  0.00     0.209 C
BRANCH  35  36
HETATM   36  C21 UNL     1      17.543  23.906  18.183  1.00  0.00     0.166 C
BRANCH  36  37
HETATM   37  O5  UNL     1      18.518  23.056  17.723  1.00  0.00    -0.391 OA
ATOM     38  H5  UNL     1      19.403  23.401  17.746  1.00  0.00     0.210 HD
ENDBRANCH  36  37
BRANCH  36  39
HETATM   39  C22 UNL     1      17.959  25.058  19.020  1.00  0.00     0.198 C
BRANCH  39  40
HETATM   40  O6  UNL     1      17.955  24.641  20.386  1.00  0.00    -0.398 OA
ATOM     41  H6  UNL     1      17.139  24.182  20.553  1.00  0.00     0.209 HD
ENDBRANCH  39  40
ENDBRANCH  36  39
ENDBRANCH  35  36
ENDBRANCH  34  35
ENDBRANCH  10  34
BRANCH   9  42
HETATM   42  C18 UNL     1      15.557  22.375  15.103  1.00  0.00     0.205 C
BRANCH  42  43
HETATM   43  O3  UNL     1      16.934  22.133  15.274  1.00  0.00    -0.396 OA
ATOM     44  H3  UNL     1      17.423  22.376  14.497  1.00  0.00     0.209 HD
ENDBRANCH  42  43
ENDBRANCH   9  42
TORSDOF 14
ENDMDL