MODEL 2
REMARK VINA RESULT: -8.407229044      1.206      1.368
REMARK  11 active torsions:
REMARK  status: ('A' for Active; 'I' for Inactive)
REMARK    1  A    between atoms: C2_2  and  C3_3
REMARK    2  A    between atoms: C3_3  and  S1_4
REMARK    3  A    between atoms: S1_4  and  N1_7
REMARK    4  A    between atoms: N2_9  and  C4_11
REMARK       I    between atoms: N3_15  and  C7_17
REMARK       I    between atoms: C7_17  and  N4_19
REMARK    5  A    between atoms: N4_19  and  S2_21
REMARK    6  A    between atoms: S2_21  and  C8_24
REMARK    7  A    between atoms: N6_32  and  C13_33
REMARK    8  A    between atoms: C13_33  and  C14_34
REMARK    9  A    between atoms: C14_34  and  C15_35
REMARK   10  A    between atoms: C15_35  and  C16_36
REMARK   11  A    between atoms: C16_36  and  C17_37
ROOT
HETATM    1  C4  UNL     1      12.765  19.067  17.603  1.00  0.00     0.142 A
HETATM    2  C5  UNL     1      11.707  18.295  17.425  1.00  0.00     0.112 A
HETATM    3 CL1  UNL     1      11.641  17.117  16.127  1.00  0.00    -0.078 Cl
HETATM    4  C6  UNL     1      10.685  18.570  18.415  1.00  0.00     0.139 A
HETATM    5  N3  UNL     1       9.550  18.055  18.566  1.00  0.00    -0.292 N
ATOM      6  H3  UNL     1       8.994  18.410  19.343  1.00  0.00     0.172 HD
HETATM    7  C7  UNL     1       8.958  17.047  17.788  1.00  0.00     0.335 C
HETATM    8  O3  UNL     1       8.904  15.863  18.270  1.00  0.00    -0.246 OA
HETATM    9  N4  UNL     1       8.408  17.268  16.498  1.00  0.00    -0.232 N
ATOM     10  H4  UNL     1       8.450  18.203  16.093  1.00  0.00     0.183 HD
HETATM   11  N6  UNL     1      11.193  19.608  19.260  1.00  0.00    -0.297 N
HETATM   12  C18 UNL     1      12.487  19.925  18.762  1.00  0.00     0.279 A
HETATM   13  O8  UNL     1      13.227  20.801  19.267  1.00  0.00    -0.265 OA
ENDROOT
BRANCH  11  14
HETATM   14  C13 UNL     1      10.540  20.239  20.405  1.00  0.00     0.134 C
BRANCH  14  15
HETATM   15  C14 UNL     1       9.479  21.192  19.960  1.00  0.00     0.021 C
BRANCH  15  16
HETATM   16  C15 UNL     1       8.084  20.680  20.080  1.00  0.00     0.012 C
BRANCH  16  17
HETATM   17  C16 UNL     1       7.860  20.109  21.455  1.00  0.00     0.113 C
BRANCH  17  18
HETATM   18  C17 UNL     1       7.320  18.733  21.329  1.00  0.00     0.172 C
HETATM   19  O6  UNL     1       8.107  17.795  21.080  1.00  0.00    -0.648 OA
HETATM   20  O7  UNL     1       5.968  18.478  21.485  1.00  0.00    -0.648 OA
ENDBRANCH  17  18
ENDBRANCH  16  17
ENDBRANCH  15  16
ENDBRANCH  14  15
ENDBRANCH  11  14
BRANCH   1  21
HETATM   21  N2  UNL     1      13.955  19.108  16.856  1.00  0.00    -0.285 N
HETATM   22  N1  UNL     1      14.279  19.861  15.935  1.00  0.00    -0.226 N
ATOM     23  H1  UNL     1      15.204  19.707  15.534  1.00  0.00     0.200 HD
ATOM     24  H2  UNL     1      14.654  18.411  17.115  1.00  0.00     0.188 HD
BRANCH  22  25
HETATM   25  S1  UNL     1      13.372  21.126  15.253  1.00  0.00     0.243 S
HETATM   26  O1  UNL     1      13.238  22.252  16.257  1.00  0.00    -0.204 OA
HETATM   27  O2  UNL     1      12.015  20.645  14.894  1.00  0.00    -0.204 OA
BRANCH  25  28
HETATM   28  C3  UNL     1      14.178  21.791  13.801  1.00  0.00     0.164 C
BRANCH  28  29
HETATM   29  C2  UNL     1      15.481  22.416  14.253  1.00  0.00     0.012 C
HETATM   30  C1  UNL     1      15.959  23.452  13.246  1.00  0.00     0.006 C
ENDBRANCH  28  29
ENDBRANCH  25  28
ENDBRANCH  22  25
ENDBRANCH   1  21
BRANCH   9  31
HETATM   31  S2  UNL     1       7.677  16.002  15.602  1.00  0.00     0.270 S
HETATM   32  O4  UNL     1       7.622  16.443  14.144  1.00  0.00    -0.200 OA
HETATM   33  O5  UNL     1       8.556  14.769  15.594  1.00  0.00    -0.200 OA
BRANCH  31  34
HETATM   34  C8  UNL     1       6.064  15.616  16.117  1.00  0.00     0.125 A
HETATM   35  C9  UNL     1       5.252  16.266  17.018  1.00  0.00     0.074 A
HETATM   36 CL2  UNL     1       5.659  17.731  17.893  1.00  0.00    -0.081 Cl
HETATM   37  C10 UNL     1       4.048  15.569  17.111  1.00  0.00     0.113 A
HETATM   38  N5  UNL     1       4.127  14.513  16.279  1.00  0.00    -0.366 N
HETATM   39  C11 UNL     1       5.325  14.516  15.669  1.00  0.00     0.030 A
ATOM     40  H5  UNL     1       3.393  13.820  16.133  1.00  0.00     0.165 HD
HETATM   41  C12 UNL     1       5.814  13.536  14.688  1.00  0.00     0.070 C
ENDBRANCH  31  34
ENDBRANCH   9  31
TORSDOF 11
ENDMDL