MODEL 2
REMARK VINA RESULT: -9.535012874      3.759     11.404
REMARK  12 active torsions:
REMARK  status: ('A' for Active; 'I' for Inactive)
REMARK       I    between atoms: C3_3  and  N1_5
REMARK    1  A    between atoms: N1_5  and  C4_7
REMARK    2  A    between atoms: C8_14  and  C9_15
REMARK    3  A    between atoms: C11_17  and  N4_18
REMARK    4  A    between atoms: N4_18  and  C12_20
REMARK    5  A    between atoms: C12_20  and  C13_21
REMARK    6  A    between atoms: C13_21  and  N5_22
REMARK    7  A    between atoms: N5_22  and  C14_23
REMARK    8  A    between atoms: N5_22  and  C18_28
REMARK    9  A    between atoms: C14_23  and  C15_24
REMARK   10  A    between atoms: C15_24  and  N6_25
REMARK   11  A    between atoms: C22_33  and  N7_34
REMARK       I    between atoms: N7_34  and  C23_36
REMARK   12  A    between atoms: C23_36  and  C24_38
ROOT
HETATM    1  C1  UNL     1      17.768  23.803  12.308  1.00  0.00     0.022 C
HETATM    2  C2  UNL     1      17.599  23.492  13.453  1.00  0.00    -0.016 C
HETATM    3  C3  UNL     1      17.372  23.116  14.870  1.00  0.00     0.300 C
HETATM    4  O1  UNL     1      18.394  22.732  15.470  1.00  0.00    -0.258 OA
HETATM    5  N1  UNL     1      16.102  23.209  15.410  1.00  0.00    -0.316 N
ATOM      6  H1  UNL     1      15.379  23.538  14.770  1.00  0.00     0.170 HD
ENDROOT
BRANCH   5   7
HETATM    7  C4  UNL     1      15.666  22.916  16.707  1.00  0.00     0.040 A
HETATM    8  C5  UNL     1      16.071  23.643  17.799  1.00  0.00     0.070 A
HETATM    9  C6  UNL     1      15.580  23.243  19.043  1.00  0.00     0.116 A
HETATM   10  C7  UNL     1      16.029  24.021  20.173  1.00  0.00     0.117 C
HETATM   11  N3  UNL     1      14.746  22.198  19.196  1.00  0.00    -0.346 N
HETATM   12  N2  UNL     1      16.377  24.645  21.106  1.00  0.00    -0.190 NA
HETATM   13  C8  UNL     1      14.326  21.460  18.150  1.00  0.00     0.062 A
ATOM     14  H3  UNL     1      14.422  21.957  20.133  1.00  0.00     0.167 HD
HETATM   15  C28 UNL     1      14.791  21.829  16.922  1.00  0.00     0.061 A
BRANCH  13  16
HETATM   16  C9  UNL     1      13.420  20.333  18.330  1.00  0.00     0.064 A
HETATM   17  C10 UNL     1      13.103  19.427  17.363  1.00  0.00     0.080 A
HETATM   18  C11 UNL     1      12.217  18.362  17.576  1.00  0.00     0.104 A
HETATM   19  N8  UNL     1      11.680  18.268  18.799  1.00  0.00    -0.333 N
HETATM   20  C26 UNL     1      11.976  19.156  19.787  1.00  0.00     0.079 A
ATOM     21  H8  UNL     1      11.030  17.507  18.995  1.00  0.00     0.168 HD
HETATM   22  C27 UNL     1      11.314  18.949  21.118  1.00  0.00     0.089 C
HETATM   23  N9  UNL     1      12.825  20.156  19.548  1.00  0.00    -0.344 N
ATOM     24  H9  UNL     1      13.037  20.812  20.299  1.00  0.00     0.167 HD
BRANCH  18  25
HETATM   25  N4  UNL     1      11.968  17.536  16.611  1.00  0.00    -0.375 N
ATOM     26  H4  UNL     1      12.557  16.706  16.550  1.00  0.00     0.161 HD
BRANCH  25  27
HETATM   27  C12 UNL     1      10.941  17.682  15.621  1.00  0.00     0.141 C
BRANCH  27  28
HETATM   28  C13 UNL     1       9.754  18.462  16.094  1.00  0.00     0.142 C
BRANCH  28  29
HETATM   29  N5  UNL     1       8.803  17.775  16.896  1.00  0.00    -0.378 N
BRANCH  29  30
HETATM   30  C14 UNL     1       8.400  16.407  16.860  1.00  0.00     0.153 C
BRANCH  30  31
HETATM   31  C15 UNL     1       7.732  15.886  15.650  1.00  0.00     0.291 C
BRANCH  31  32
HETATM   32  N6  UNL     1       6.553  15.056  16.012  1.00  0.00     0.081 N
HETATM   33  C16 UNL     1       5.360  15.901  15.785  1.00  0.00     0.309 C
HETATM   34  C17 UNL     1       6.460  13.958  15.063  1.00  0.00     0.309 C
ENDBRANCH  31  32
ENDBRANCH  30  31
ENDBRANCH  29  30
BRANCH  29  35
HETATM   35  C18 UNL     1       8.115  18.577  17.918  1.00  0.00     0.034 A
HETATM   36  C19 UNL     1       8.795  19.555  18.605  1.00  0.00     0.053 A
HETATM   37  C20 UNL     1       8.099  20.280  19.558  1.00  0.00     0.038 A
HETATM   38 CL1  UNL     1       8.900  21.546  20.476  1.00  0.00    -0.084 Cl
HETATM   39  C21 UNL     1       6.748  20.007  19.797  1.00  0.00     0.053 A
HETATM   40  C22 UNL     1       6.076  19.034  19.110  1.00  0.00     0.038 A
HETATM   41  C25 UNL     1       6.799  18.322  18.158  1.00  0.00     0.059 A
BRANCH  40  42
HETATM   42  N7  UNL     1       4.733  18.664  19.289  1.00  0.00    -0.326 N
HETATM   43  C23 UNL     1       4.268  18.054  20.456  1.00  0.00     0.235 C
HETATM   44  O2  UNL     1       4.990  17.759  21.456  1.00  0.00    -0.272 OA
ATOM     45  H7  UNL     1       4.070  18.847  18.536  1.00  0.00     0.169 HD
BRANCH  43  46
HETATM   46  C24 UNL     1       2.819  17.706  20.575  1.00  0.00     0.217 C
HETATM   47 CL2  UNL     1       1.911  18.457  19.271  1.00  0.00    -0.121 Cl
ENDBRANCH  43  46
ENDBRANCH  40  42
ENDBRANCH  29  35
ENDBRANCH  28  29
ENDBRANCH  27  28
ENDBRANCH  25  27
ENDBRANCH  18  25
ENDBRANCH  13  16
ENDBRANCH   5   7
TORSDOF 12
ENDMDL