MODEL 3
REMARK VINA RESULT: -8.227932572      1.366      1.439
REMARK  14 active torsions:
REMARK  status: ('A' for Active; 'I' for Inactive)
REMARK    1  A    between atoms: C2_2  and  N1_3
REMARK    2  A    between atoms: C5_8  and  N3_9
REMARK    3  A    between atoms: N3_9  and  C6_11
REMARK    4  A    between atoms: C6_11  and  C7_12
REMARK    5  A    between atoms: C11_17  and  O1_18
REMARK    6  A    between atoms: C14_24  and  N5_25
REMARK    7  A    between atoms: N5_25  and  C15_27
REMARK    8  A    between atoms: C15_27  and  C16_28
REMARK    9  A    between atoms: C16_28  and  C17_29
REMARK   10  A    between atoms: C17_29  and  N6_30
REMARK   11  A    between atoms: N7_33  and  C20_34
REMARK   12  A    between atoms: C20_34  and  C21_35
REMARK   13  A    between atoms: C21_35  and  C22_36
REMARK   14  A    between atoms: C22_36  and  N8_37
ROOT
HETATM    1  N1  UNL     1      11.785  18.741  15.923  1.00  0.00    -0.327 N
HETATM    2  C3  UNL     1      12.452  19.663  15.219  1.00  0.00     0.185 A
HETATM    3  N2  UNL     1      12.985  20.564  16.057  1.00  0.00    -0.346 N
ATOM      4  H2  UNL     1      13.542  21.369  15.773  1.00  0.00     0.167 HD
HETATM    5  C4  UNL     1      12.673  20.246  17.326  1.00  0.00     0.123 A
HETATM    6  C5  UNL     1      12.926  20.778  18.583  1.00  0.00     0.148 A
HETATM    7  N4  UNL     1      12.448  20.195  19.692  1.00  0.00    -0.175 N
ATOM      8  H4  UNL     1      12.644  20.600  20.608  1.00  0.00     0.186 HD
HETATM    9  C14 UNL     1      11.707  19.071  19.594  1.00  0.00     0.681 A
HETATM   10  N9  UNL     1      11.465  18.557  18.378  1.00  0.00    -0.174 N
ATOM     11  H9  UNL     1      10.905  17.706  18.324  1.00  0.00     0.186 HD
HETATM   12  C25 UNL     1      11.915  19.091  17.219  1.00  0.00     0.155 A
ENDROOT
BRANCH   9  13
HETATM   13  N5  UNL     1      11.250  18.525  20.696  1.00  0.00    -0.226 N
ATOM     14  H5  UNL     1      11.725  17.698  21.060  1.00  0.00     0.177 HD
BRANCH  13  15
HETATM   15  C15 UNL     1      10.112  19.034  21.415  1.00  0.00     0.140 C
BRANCH  15  16
HETATM   16  C16 UNL     1       8.931  19.270  20.457  1.00  0.00     0.050 C
BRANCH  16  17
HETATM   17  C17 UNL     1       8.319  17.875  20.286  1.00  0.00     0.274 C
BRANCH  17  18
HETATM   18  N6  UNL     1       8.400  17.578  18.860  1.00  0.00     0.091 N
HETATM   19  C18 UNL     1       7.407  18.335  18.116  1.00  0.00     0.302 C
HETATM   20  C19 UNL     1       6.016  17.865  18.390  1.00  0.00     0.302 C
HETATM   21  N7  UNL     1       5.846  16.461  18.016  1.00  0.00     0.091 N
HETATM   22  C23 UNL     1       7.126  15.877  17.656  1.00  0.00     0.302 C
HETATM   23  C24 UNL     1       8.148  16.150  18.748  1.00  0.00     0.302 C
BRANCH  21  24
HETATM   24  C20 UNL     1       4.977  16.360  16.855  1.00  0.00     0.274 C
BRANCH  24  25
HETATM   25  C21 UNL     1       5.629  15.487  15.834  1.00  0.00     0.057 C
BRANCH  25  26
HETATM   26  C22 UNL     1       4.731  14.275  15.535  1.00  0.00     0.231 C
BRANCH  26  27
HETATM   27  N8  UNL     1       5.551  13.190  15.087  1.00  0.00    -0.079 N
ATOM     28  H83 UNL     1       5.260  12.832  14.177  1.00  0.00     0.274 HD
ATOM     29  H82 UNL     1       6.490  13.493  14.827  1.00  0.00     0.274 HD
ATOM     30  H81 UNL     1       5.561  12.466  15.806  1.00  0.00     0.274 HD
ENDBRANCH  26  27
ENDBRANCH  25  26
ENDBRANCH  24  25
ENDBRANCH  21  24
ENDBRANCH  17  18
ENDBRANCH  16  17
ENDBRANCH  15  16
ENDBRANCH  13  15
ENDBRANCH   9  13
BRANCH   6  31
HETATM   31  N3  UNL     1      13.631  21.850  18.712  1.00  0.00    -0.370 N
ATOM     32  H3  UNL     1      13.174  22.732  18.480  1.00  0.00     0.161 HD
BRANCH  31  33
HETATM   33  C6  UNL     1      14.976  21.922  19.145  1.00  0.00     0.163 C
BRANCH  33  34
HETATM   34  C7  UNL     1      15.589  23.259  19.205  1.00  0.00     0.001 A
HETATM   35  C8  UNL     1      15.442  23.986  20.405  1.00  0.00     0.043 A
HETATM   36 CL1  UNL     1      14.567  23.314  21.770  1.00  0.00    -0.084 Cl
HETATM   37  C9  UNL     1      15.988  25.239  20.517  1.00  0.00     0.027 A
HETATM   38  C10 UNL     1      16.686  25.833  19.495  1.00  0.00     0.040 A
HETATM   39  C11 UNL     1      16.845  25.141  18.310  1.00  0.00     0.086 A
HETATM   40  C13 UNL     1      16.286  23.873  18.213  1.00  0.00     0.053 A
HETATM   41 BR1  UNL     1      16.548  22.981  16.552  1.00  0.00    -0.047 Br
BRANCH  39  42
HETATM   42  O1  UNL     1      17.546  25.736  17.283  1.00  0.00    -0.355 OA
HETATM   43  C12 UNL     1      18.169  26.981  17.485  1.00  0.00     0.210 C
ENDBRANCH  39  42
ENDBRANCH  33  34
ENDBRANCH  31  33
ENDBRANCH   6  31
BRANCH   1  44
HETATM   44  C2  UNL     1      11.057  17.582  15.485  1.00  0.00     0.127 C
HETATM   45  C1  UNL     1       9.588  17.748  15.377  1.00  0.00     0.027 C
ENDBRANCH   1  44
TORSDOF 14
ENDMDL