MODEL 1
REMARK VINA RESULT: -9.027637736      0.000      0.000
REMARK  13 active torsions:
REMARK  status: ('A' for Active; 'I' for Inactive)
REMARK    1  A    between atoms: C4_5  and  N2_6
REMARK       I    between atoms: N2_6  and  C5_8
REMARK    2  A    between atoms: C5_8  and  C6_10
REMARK    3  A    between atoms: C6_10  and  C7_11
REMARK    4  A    between atoms: C7_11  and  C8_12
REMARK    5  A    between atoms: C8_12  and  C9_13
REMARK    6  A    between atoms: C9_13  and  N3_14
REMARK       I    between atoms: N3_14  and  C10_16
REMARK    7  A    between atoms: C10_16  and  C11_18
REMARK    8  A    between atoms: N5_27  and  C16_28
REMARK       I    between atoms: N6_31  and  C19_32
REMARK    9  A    between atoms: C19_32  and  O4_34
REMARK   10  A    between atoms: O4_34  and  C20_35
REMARK   11  A    between atoms: C20_35  and  C21_36
REMARK   12  A    between atoms: C21_36  and  C22_37
REMARK   13  A    between atoms: C22_37  and  C23_38
ROOT
HETATM    1  N1  UNL     1      18.720  21.544  13.960  1.00  0.00    -0.190 NA
HETATM    2  C1  UNL     1      17.648  21.495  14.402  1.00  0.00     0.119 C
HETATM    3  C2  UNL     1      16.336  21.444  14.960  1.00  0.00     0.132 A
HETATM    4  C3  UNL     1      15.219  21.038  14.248  1.00  0.00     0.092 A
HETATM    5  C4  UNL     1      14.165  21.131  15.134  1.00  0.00     0.128 A
HETATM    6  N5  UNL     1      14.625  21.574  16.334  1.00  0.00    -0.271 N
HETATM    7  N7  UNL     1      15.911  21.746  16.186  1.00  0.00    -0.286 N
ATOM      8  H7  UNL     1      16.525  22.077  16.931  1.00  0.00     0.188 HD
ENDROOT
BRANCH   5   9
HETATM    9  N2  UNL     1      12.936  20.850  14.889  1.00  0.00    -0.312 N
HETATM   10  C5  UNL     1      12.197  19.847  15.588  1.00  0.00     0.223 C
HETATM   11  O1  UNL     1      12.744  18.747  15.756  1.00  0.00    -0.273 OA
ATOM     12  H2  UNL     1      12.460  21.374  14.154  1.00  0.00     0.170 HD
BRANCH  10  13
HETATM   13  C6  UNL     1      10.829  20.104  16.095  1.00  0.00     0.103 C
BRANCH  13  14
HETATM   14  C7  UNL     1      10.734  19.351  17.468  1.00  0.00     0.011 C
BRANCH  14  15
HETATM   15  C8  UNL     1       9.644  19.906  18.266  1.00  0.00     0.020 C
BRANCH  15  16
HETATM   16  C9  UNL     1       8.350  19.221  18.309  1.00  0.00     0.123 C
BRANCH  16  17
HETATM   17  N3  UNL     1       8.010  18.272  17.306  1.00  0.00    -0.357 N
HETATM   18  C10 UNL     1       8.244  16.896  17.292  1.00  0.00     0.255 C
HETATM   19  O2  UNL     1       8.786  16.358  18.315  1.00  0.00    -0.268 OA
ATOM     20  H3  UNL     1       7.530  18.647  16.488  1.00  0.00     0.162 HD
BRANCH  18  21
HETATM   21  C11 UNL     1       7.914  16.004  16.200  1.00  0.00     0.078 A
HETATM   22  C12 UNL     1       8.674  15.818  15.105  1.00  0.00     0.066 A
HETATM   23 CL1  UNL     1      10.266  16.519  14.893  1.00  0.00    -0.082 Cl
HETATM   24  C13 UNL     1       8.191  14.971  14.100  1.00  0.00     0.112 A
HETATM   25  N4  UNL     1       7.018  14.344  14.186  1.00  0.00    -0.372 N
HETATM   26  C14 UNL     1       6.232  14.504  15.268  1.00  0.00     0.112 A
ATOM     27  H4  UNL     1       6.713  13.737  13.426  1.00  0.00     0.164 HD
HETATM   28  C15 UNL     1       6.685  15.322  16.249  1.00  0.00     0.066 A
HETATM   29 CL2  UNL     1       5.700  15.558  17.667  1.00  0.00    -0.082 Cl
ENDBRANCH  18  21
ENDBRANCH  16  17
ENDBRANCH  15  16
ENDBRANCH  14  15
ENDBRANCH  13  14
ENDBRANCH  10  13
ENDBRANCH   5   9
BRANCH   6  30
HETATM   30  C16 UNL     1      13.793  21.795  17.522  1.00  0.00     0.113 C
HETATM   31  C17 UNL     1      13.332  23.201  17.635  1.00  0.00     0.047 C
HETATM   32  C18 UNL     1      14.063  24.034  18.648  1.00  0.00     0.130 C
HETATM   33  N6  UNL     1      14.340  23.333  19.865  1.00  0.00    -0.328 N
HETATM   34  C19 UNL     1      14.996  23.923  20.970  1.00  0.00     0.362 C
HETATM   35  C24 UNL     1      13.921  21.949  19.951  1.00  0.00     0.130 C
HETATM   36  O3  UNL     1      15.241  23.329  22.027  1.00  0.00    -0.238 OA
HETATM   37  C25 UNL     1      14.493  21.250  18.745  1.00  0.00     0.047 C
BRANCH  34  38
HETATM   38  O4  UNL     1      15.398  25.264  20.881  1.00  0.00    -0.304 OA
BRANCH  38  39
HETATM   39  C20 UNL     1      16.784  25.591  20.697  1.00  0.00     0.181 C
BRANCH  39  40
HETATM   40  C21 UNL     1      16.925  25.854  19.189  1.00  0.00     0.037 C
BRANCH  40  41
HETATM   41  C22 UNL     1      18.290  25.441  18.719  1.00  0.00     0.115 C
BRANCH  41  42
HETATM   42  C23 UNL     1      18.162  24.225  17.893  1.00  0.00     0.172 C
HETATM   43  O5  UNL     1      17.457  23.272  18.290  1.00  0.00    -0.648 OA
HETATM   44  O6  UNL     1      18.810  24.109  16.675  1.00  0.00    -0.648 OA
ENDBRANCH  41  42
ENDBRANCH  40  41
ENDBRANCH  39  40
ENDBRANCH  38  39
ENDBRANCH  34  38
ENDBRANCH   6  30
TORSDOF 13
ENDMDL