MODEL 5
REMARK VINA RESULT: -8.302468324      0.868      2.162
REMARK  13 active torsions:
REMARK  status: ('A' for Active; 'I' for Inactive)
REMARK    1  A    between atoms: O1_2  and  C2_3
REMARK    2  A    between atoms: C2_3  and  C3_4
REMARK    3  A    between atoms: C3_4  and  O2_5
REMARK    4  A    between atoms: O2_5  and  C4_6
REMARK    5  A    between atoms: C4_6  and  C5_7
REMARK    6  A    between atoms: C5_7  and  N1_8
REMARK    7  A    between atoms: C6_11  and  N3_12
REMARK       I    between atoms: N3_12  and  C7_14
REMARK    8  A    between atoms: C7_14  and  C8_16
REMARK    9  A    between atoms: C10_18  and  C11_19
REMARK   10  A    between atoms: C13_24  and  C14_25
REMARK   11  A    between atoms: C14_25  and  N4_26
REMARK       I    between atoms: N4_26  and  C15_28
REMARK   12  A    between atoms: C15_28  and  C16_30
REMARK   13  A    between atoms: C20_37  and  N6_38
ROOT
HETATM    1  N1  UNL     1       9.248  19.868  19.122  1.00  0.00    -0.292 N
HETATM    2  N2  UNL     1       8.591  19.358  18.097  1.00  0.00    -0.282 N
ATOM      3  H2  UNL     1       7.599  19.512  17.915  1.00  0.00     0.189 HD
HETATM    4  C6  UNL     1       9.418  18.590  17.305  1.00  0.00     0.133 A
HETATM    5  C13 UNL     1      10.625  18.682  17.915  1.00  0.00     0.029 A
HETATM    6  C25 UNL     1      10.499  19.460  19.036  1.00  0.00     0.036 A
HETATM    7  C26 UNL     1      11.551  19.660  20.106  1.00  0.00     0.070 C
ENDROOT
BRANCH   5   8
HETATM    8  C14 UNL     1      11.910  17.980  17.497  1.00  0.00     0.167 C
BRANCH   8   9
HETATM    9  N4  UNL     1      12.885  19.063  17.392  1.00  0.00    -0.352 N
HETATM   10  C15 UNL     1      12.959  20.203  16.684  1.00  0.00     0.254 C
HETATM   11  O4  UNL     1      12.063  20.499  15.821  1.00  0.00    -0.268 OA
ATOM     12  H4  UNL     1      13.695  18.922  17.995  1.00  0.00     0.163 HD
BRANCH  10  13
HETATM   13  C16 UNL     1      14.044  21.223  16.803  1.00  0.00     0.062 A
HETATM   14  C17 UNL     1      14.144  22.174  17.773  1.00  0.00     0.025 A
HETATM   15  C18 UNL     1      13.256  22.260  18.947  1.00  0.00     0.069 C
HETATM   16  N5  UNL     1      15.135  23.126  17.771  1.00  0.00    -0.325 N
HETATM   17  C19 UNL     1      16.041  23.150  16.826  1.00  0.00     0.272 A
ATOM     18  H5  UNL     1      15.165  23.823  18.515  1.00  0.00     0.169 HD
HETATM   19  O5  UNL     1      16.968  23.998  16.786  1.00  0.00    -0.266 OA
HETATM   20  C20 UNL     1      16.047  22.216  15.779  1.00  0.00     0.105 A
HETATM   21  C23 UNL     1      15.035  21.290  15.813  1.00  0.00    -0.012 A
HETATM   22  C24 UNL     1      14.943  20.410  14.601  1.00  0.00     0.052 C
BRANCH  20  23
HETATM   23  N6  UNL     1      17.095  22.264  14.863  1.00  0.00    -0.385 N
HETATM   24  C21 UNL     1      18.331  21.576  14.750  1.00  0.00     0.149 C
HETATM   25  C22 UNL     1      16.782  23.142  13.668  1.00  0.00     0.149 C
ENDBRANCH  20  23
ENDBRANCH  10  13
ENDBRANCH   8   9
ENDBRANCH   5   8
BRANCH   4  26
HETATM   26  N3  UNL     1       8.967  18.036  16.288  1.00  0.00    -0.307 N
HETATM   27  C7  UNL     1       9.000  16.926  15.535  1.00  0.00     0.264 C
HETATM   28  O3  UNL     1       9.942  16.460  14.914  1.00  0.00    -0.267 OA
ATOM     29  H3  UNL     1       8.311  18.682  15.851  1.00  0.00     0.170 HD
BRANCH  27  30
HETATM   30  C8  UNL     1       7.704  16.134  15.438  1.00  0.00     0.075 A
HETATM   31  C9  UNL     1       6.500  16.398  15.941  1.00  0.00     0.036 A
HETATM   32  C10 UNL     1       5.484  15.502  15.688  1.00  0.00     0.000 A
HETATM   33  C12 UNL     1       5.832  14.414  14.919  1.00  0.00     0.084 A
HETATM   34 CL1  UNL     1       4.816  13.020  14.434  1.00  0.00    -0.076 Cl
HETATM   35  S1  UNL     1       7.474  14.666  14.602  1.00  0.00    -0.072 SA
BRANCH  32  36
HETATM   36  C11 UNL     1       4.068  15.755  16.166  1.00  0.00     0.263 C
HETATM   37  F1  UNL     1       3.211  16.112  15.157  1.00  0.00    -0.251 F
ENDBRANCH  32  36
ENDBRANCH  27  30
ENDBRANCH   4  26
BRANCH   1  38
HETATM   38  C5  UNL     1       8.671  20.702  20.155  1.00  0.00     0.175 C
BRANCH  38  39
HETATM   39  C4  UNL     1       8.044  19.949  21.325  1.00  0.00     0.189 C
BRANCH  39  40
HETATM   40  O2  UNL     1       7.448  18.833  20.795  1.00  0.00    -0.387 OA
BRANCH  40  41
HETATM   41  C3  UNL     1       6.107  18.675  20.870  1.00  0.00     0.193 C
BRANCH  41  42
HETATM   42  C2  UNL     1       5.606  18.562  19.424  1.00  0.00     0.193 C
BRANCH  42  43
HETATM   43  O1  UNL     1       5.474  19.732  18.792  1.00  0.00    -0.394 OA
HETATM   44  C1  UNL     1       4.443  20.557  19.110  1.00  0.00     0.201 C
ENDBRANCH  42  43
ENDBRANCH  41  42
ENDBRANCH  40  41
ENDBRANCH  39  40
ENDBRANCH  38  39
ENDBRANCH   1  38
TORSDOF 13
ENDMDL