MODEL 5
REMARK VINA RESULT: -9.055937911      2.752     10.862
REMARK  14 active torsions:
REMARK  status: ('A' for Active; 'I' for Inactive)
REMARK    1  A    between atoms: C4_5  and  N1_6
REMARK       I    between atoms: N1_6  and  C5_8
REMARK       I    between atoms: C5_8  and  N2_10
REMARK    2  A    between atoms: N2_10  and  C6_12
REMARK    3  A    between atoms: C7_17  and  C8_18
REMARK    4  A    between atoms: C8_18  and  C9_19
REMARK    5  A    between atoms: C9_19  and  C10_20
REMARK    6  A    between atoms: C10_20  and  C11_21
REMARK    7  A    between atoms: C11_21  and  C12_22
REMARK       I    between atoms: N7_28  and  C14_30
REMARK    8  A    between atoms: C14_30  and  C15_32
REMARK    9  A    between atoms: C15_32  and  C16_33
REMARK   10  A    between atoms: C16_33  and  C17_34
REMARK   11  A    between atoms: C17_34  and  C18_35
REMARK   12  A    between atoms: C18_35  and  C19_36
REMARK   13  A    between atoms: C19_36  and  C20_37
REMARK       I    between atoms: C20_37  and  N8_39
REMARK   14  A    between atoms: N8_39  and  C21_41
ROOT
HETATM    1  C11 UNL     1      10.099  19.385  20.169  1.00  0.00     0.066 C
ENDROOT
BRANCH   1   2
HETATM    2  C10 UNL     1      10.326  20.760  19.696  1.00  0.00     0.007 C
BRANCH   2   3
HETATM    3  C9  UNL     1      11.737  21.217  19.581  1.00  0.00     0.007 C
BRANCH   3   4
HETATM    4  C8  UNL     1      12.161  21.846  18.327  1.00  0.00     0.066 C
BRANCH   4   5
HETATM    5  C7  UNL     1      13.601  22.222  18.274  1.00  0.00     0.069 A
HETATM    6  N4  UNL     1      14.560  21.573  17.594  1.00  0.00    -0.296 N
HETATM    7  N3  UNL     1      15.745  21.980  17.626  1.00  0.00    -0.279 N
ATOM      8  H4  UNL     1      14.323  20.745  17.047  1.00  0.00     0.187 HD
HETATM    9  C6  UNL     1      16.051  23.069  18.346  1.00  0.00     0.169 A
ATOM     10  H3  UNL     1      16.472  21.486  17.109  1.00  0.00     0.189 HD
HETATM   11  S3  UNL     1      14.518  23.479  18.981  1.00  0.00    -0.038 SA
BRANCH   9  12
HETATM   12  N2  UNL     1      17.235  23.617  18.477  1.00  0.00    -0.287 N
HETATM   13  C5  UNL     1      17.443  24.792  19.193  1.00  0.00     0.328 C
HETATM   14  N1  UNL     1      17.152  26.098  18.706  1.00  0.00    -0.288 N
HETATM   15  O1  UNL     1      17.931  24.674  20.369  1.00  0.00    -0.247 OA
ATOM     16  H1  UNL     1      16.426  26.661  19.148  1.00  0.00     0.172 HD
ATOM     17  H2  UNL     1      18.036  23.163  18.037  1.00  0.00     0.172 HD
BRANCH  14  18
HETATM   18  C4  UNL     1      17.826  26.575  17.680  1.00  0.00     0.152 A
HETATM   19  S1  UNL     1      19.157  27.635  17.673  1.00  0.00    -0.064 SA
HETATM   20  C3  UNL     1      19.392  27.728  15.988  1.00  0.00     0.077 A
HETATM   21  C2  UNL     1      18.402  26.914  15.510  1.00  0.00     0.014 A
HETATM   22  C1  UNL     1      18.230  26.691  14.007  1.00  0.00     0.068 C
HETATM   23  N9  UNL     1      17.614  26.335  16.388  1.00  0.00    -0.340 N
ATOM     24  H9  UNL     1      16.859  25.719  16.087  1.00  0.00     0.167 HD
ENDBRANCH  14  18
ENDBRANCH   9  12
ENDBRANCH   4   5
ENDBRANCH   3   4
ENDBRANCH   2   3
ENDBRANCH   1   2
BRANCH   1  25
HETATM   25  C12 UNL     1       9.102  18.609  19.393  1.00  0.00     0.069 A
HETATM   26  N5  UNL     1       9.086  17.424  18.831  1.00  0.00    -0.296 N
HETATM   27  N6  UNL     1       8.068  17.002  18.198  1.00  0.00    -0.279 N
ATOM     28  H5  UNL     1       9.911  16.828  18.902  1.00  0.00     0.187 HD
HETATM   29  C13 UNL     1       6.990  17.781  18.107  1.00  0.00     0.167 A
ATOM     30  H6  UNL     1       8.075  16.077  17.767  1.00  0.00     0.189 HD
HETATM   31  N7  UNL     1       5.848  17.596  17.521  1.00  0.00    -0.306 N
HETATM   32  S2  UNL     1       7.516  19.175  18.986  1.00  0.00    -0.038 SA
HETATM   33  C14 UNL     1       5.602  16.384  16.824  1.00  0.00     0.223 C
ATOM     34  H7  UNL     1       5.130  18.318  17.560  1.00  0.00     0.171 HD
HETATM   35  O2  UNL     1       4.915  15.460  17.304  1.00  0.00    -0.273 OA
BRANCH  33  36
HETATM   36  C15 UNL     1       6.199  16.264  15.485  1.00  0.00     0.103 C
BRANCH  36  37
HETATM   37  C16 UNL     1       6.658  14.895  15.172  1.00  0.00     0.009 C
BRANCH  37  38
HETATM   38  C17 UNL     1       7.886  14.756  14.335  1.00  0.00     0.001 C
BRANCH  38  39
HETATM   39  C18 UNL     1       9.087  15.283  15.101  1.00  0.00     0.009 C
BRANCH  39  40
HETATM   40  C19 UNL     1       9.813  16.392  14.415  1.00  0.00     0.103 C
BRANCH  40  41
HETATM   41  C20 UNL     1      10.205  17.446  15.417  1.00  0.00     0.221 C
HETATM   42  O3  UNL     1       9.394  18.307  15.809  1.00  0.00    -0.273 OA
HETATM   43  N8  UNL     1      11.527  17.466  15.933  1.00  0.00    -0.306 N
ATOM     44  H8  UNL     1      12.197  16.763  15.621  1.00  0.00     0.167 HD
BRANCH  43  45
HETATM   45  C21 UNL     1      11.942  18.464  16.895  1.00  0.00     0.460 C
HETATM   46  F1  UNL     1      13.013  19.149  16.319  1.00  0.00    -0.191 F
HETATM   47  F2  UNL     1      12.378  17.932  18.083  1.00  0.00    -0.191 F
ENDBRANCH  43  45
ENDBRANCH  40  41
ENDBRANCH  39  40
ENDBRANCH  38  39
ENDBRANCH  37  38
ENDBRANCH  36  37
ENDBRANCH  33  36
ENDBRANCH   1  25
TORSDOF 14
ENDMDL