MODEL 3
REMARK VINA RESULT: -9.816738821      1.531      1.555
REMARK  13 active torsions:
REMARK  status: ('A' for Active; 'I' for Inactive)
REMARK    1  A    between atoms: N3_9  and  C4_10
REMARK    2  A    between atoms: C5_12  and  N4_13
REMARK    3  A    between atoms: C6_16  and  N6_17
REMARK    4  A    between atoms: C9_25  and  N8_26
REMARK    5  A    between atoms: C11_32  and  O5_33
REMARK    6  A    between atoms: O5_33  and  C12_34
REMARK    7  A    between atoms: C12_34  and  C13_35
REMARK    8  A    between atoms: C12_34  and  C14_38
REMARK    9  A    between atoms: C13_35  and  O6_36
REMARK   10  A    between atoms: C14_38  and  N10_39
REMARK   11  A    between atoms: C14_38  and  C15_43
REMARK   12  A    between atoms: C15_43  and  O7_44
REMARK   13  A    between atoms: C16_46  and  O8_47
ROOT
HETATM    1  C4  UNL     1     -28.188   6.986  -5.623  1.00  0.00     0.271 C
HETATM    2  O3  UNL     1     -26.891   6.437  -5.792  1.00  0.00    -0.334 OA
HETATM    3  C5  UNL     1     -26.249   7.603  -6.280  1.00  0.00     0.280 C
HETATM    4  C11 UNL     1     -26.552   8.623  -5.265  1.00  0.00     0.205 C
HETATM    5  C16 UNL     1     -27.863   8.093  -4.655  1.00  0.00     0.201 C
ENDROOT
BRANCH   3   6
HETATM    6  N4  UNL     1     -24.883   7.367  -6.587  1.00  0.00    -0.241 N
HETATM    7  N5  UNL     1     -23.806   7.562  -5.857  1.00  0.00    -0.279 N
HETATM    8  C6  UNL     1     -22.695   7.214  -6.506  1.00  0.00     0.133 A
ATOM      9  H5  UNL     1     -23.819   7.934  -4.907  1.00  0.00     0.189 HD
HETATM   10  C7  UNL     1     -23.081   6.762  -7.748  1.00  0.00     0.123 A
HETATM   11  C8  UNL     1     -22.377   6.275  -8.839  1.00  0.00     0.277 A
HETATM   12  C10 UNL     1     -24.457   6.872  -7.762  1.00  0.00     0.160 A
HETATM   13  O4  UNL     1     -21.126   6.181  -8.812  1.00  0.00    -0.266 OA
HETATM   14  N7  UNL     1     -23.048   5.901  -9.941  1.00  0.00    -0.155 N
HETATM   15  C9  UNL     1     -24.390   6.004  -9.965  1.00  0.00     0.680 A
ATOM     16  H7  UNL     1     -22.545   5.541 -10.753  1.00  0.00     0.187 HD
HETATM   17  N9  UNL     1     -25.076   6.477  -8.908  1.00  0.00    -0.174 N
ATOM     18  H9  UNL     1     -26.091   6.541  -8.968  1.00  0.00     0.186 HD
BRANCH   8  19
HETATM   19  N6  UNL     1     -21.474   7.297  -6.033  1.00  0.00    -0.384 N
ATOM     20  H62 UNL     1     -20.846   8.099  -6.081  1.00  0.00     0.157 HD
ATOM     21  H61 UNL     1     -20.975   6.557  -5.541  1.00  0.00     0.157 HD
ENDBRANCH   8  19
BRANCH  15  22
HETATM   22  N8  UNL     1     -25.022   5.634 -11.044  1.00  0.00    -0.234 N
ATOM     23  H82 UNL     1     -24.502   5.276 -11.846  1.00  0.00     0.174 HD
ATOM     24  H81 UNL     1     -26.039   5.711 -11.062  1.00  0.00     0.174 HD
ENDBRANCH  15  22
ENDBRANCH   3   6
BRANCH   4  25
HETATM   25  O5  UNL     1     -25.679   8.789  -4.241  1.00  0.00    -0.369 OA
BRANCH  25  26
HETATM   26  C12 UNL     1     -25.464  10.199  -4.103  1.00  0.00     0.178 C
BRANCH  26  27
HETATM   27  C13 UNL     1     -26.495  10.734  -3.138  1.00  0.00     0.198 C
BRANCH  27  28
HETATM   28  O6  UNL     1     -26.051  11.827  -2.462  1.00  0.00    -0.398 OA
ATOM     29  H6  UNL     1     -26.763  12.378  -2.158  1.00  0.00     0.209 HD
ENDBRANCH  27  28
ENDBRANCH  26  27
BRANCH  26  30
HETATM   30  C14 UNL     1     -25.611  10.853  -5.443  1.00  0.00     0.237 C
BRANCH  30  31
HETATM   31  N10 UNL     1     -26.461  12.005  -5.467  1.00  0.00    -0.070 N
ATOM     32 3H10 UNL     1     -25.916  12.840  -5.682  1.00  0.00     0.274 HD
ATOM     33 2H10 UNL     1     -27.071  11.976  -6.284  1.00  0.00     0.274 HD
ATOM     34 1H10 UNL     1     -27.013  12.154  -4.621  1.00  0.00     0.274 HD
ENDBRANCH  30  31
BRANCH  30  35
HETATM   35  C15 UNL     1     -24.302  11.101  -6.144  1.00  0.00     0.199 C
BRANCH  35  36
HETATM   36  O7  UNL     1     -23.247  10.468  -5.466  1.00  0.00    -0.399 OA
ATOM     37  H7  UNL     1     -23.566  10.026  -4.687  1.00  0.00     0.209 HD
ENDBRANCH  35  36
ENDBRANCH  30  35
ENDBRANCH  26  30
ENDBRANCH  25  26
ENDBRANCH   4  25
BRANCH   1  38
HETATM   38  N3  UNL     1     -29.139   6.040  -5.184  1.00  0.00    -0.220 N
HETATM   39  C3  UNL     1     -28.892   5.253  -4.128  1.00  0.00     0.336 A
HETATM   40  N2  UNL     1     -29.782   4.338  -3.685  1.00  0.00    -0.260 N
HETATM   41  O2  UNL     1     -27.800   5.347  -3.506  1.00  0.00    -0.246 OA
HETATM   42  C2  UNL     1     -30.955   4.217  -4.331  1.00  0.00     0.334 A
ATOM     43  H2  UNL     1     -29.569   3.753  -2.877  1.00  0.00     0.175 HD
HETATM   44  N1  UNL     1     -31.226   4.983  -5.379  1.00  0.00    -0.255 N
HETATM   45  O1  UNL     1     -31.810   3.356  -3.926  1.00  0.00    -0.246 OA
HETATM   46  C1  UNL     1     -32.494   4.862  -6.090  1.00  0.00     0.166 C
HETATM   47  C17 UNL     1     -30.314   5.901  -5.810  1.00  0.00     0.338 A
HETATM   48  O9  UNL     1     -30.639   6.596  -6.816  1.00  0.00    -0.246 OA
ENDBRANCH   1  38
BRANCH   5  49
HETATM   49  O8  UNL     1     -28.822   9.063  -4.552  1.00  0.00    -0.388 OA
ATOM     50  H8  UNL     1     -28.659   9.712  -3.878  1.00  0.00     0.210 HD
ENDBRANCH   5  49
TORSDOF 13
ENDMDL