MODEL 4
REMARK VINA RESULT: -9.009648438      3.661      8.364
REMARK  14 active torsions:
REMARK  status: ('A' for Active; 'I' for Inactive)
REMARK    1  A    between atoms: N1_1  and  C1_5
REMARK    2  A    between atoms: C1_5  and  C2_6
REMARK       I    between atoms: C2_6  and  N2_8
REMARK    3  A    between atoms: N2_8  and  C3_10
REMARK    4  A    between atoms: C3_10  and  C4_11
REMARK    5  A    between atoms: C5_13  and  N3_14
REMARK    6  A    between atoms: N4_16  and  N5_18
REMARK    7  A    between atoms: N5_18  and  C6_20
REMARK    8  A    between atoms: C7_23  and  N7_24
REMARK    9  A    between atoms: C8_31  and  C9_32
REMARK   10  A    between atoms: C11_37  and  N10_38
REMARK   11  A    between atoms: N10_38  and  C12_40
REMARK   12  A    between atoms: C13_44  and  O4_45
REMARK   13  A    between atoms: C14_48  and  O6_49
REMARK   14  A    between atoms: C15_51  and  O7_52
ROOT
HETATM    1  C4  UNL     1     -26.603  10.215  -4.821  1.00  0.00     0.173 C
HETATM    2  O2  UNL     1     -26.239   9.023  -4.200  1.00  0.00    -0.354 OA
HETATM    3  C5  UNL     1     -25.455   8.229  -5.043  1.00  0.00     0.263 C
HETATM    4  C11 UNL     1     -24.152   8.940  -5.199  1.00  0.00     0.162 C
HETATM    5  C14 UNL     1     -24.385  10.180  -6.039  1.00  0.00     0.176 C
HETATM    6  C15 UNL     1     -25.424  11.001  -5.345  1.00  0.00     0.179 C
ENDROOT
BRANCH   3   7
HETATM    7  N3  UNL     1     -26.134   7.962  -6.293  1.00  0.00    -0.291 N
HETATM    8  N4  UNL     1     -27.172   7.282  -6.404  1.00  0.00    -0.243 N
ATOM      9  H4  UNL     1     -27.536   7.180  -7.351  1.00  0.00     0.208 HD
ATOM     10  H3  UNL     1     -25.733   8.358  -7.143  1.00  0.00     0.184 HD
BRANCH   8  11
HETATM   11  N5  UNL     1     -27.892   6.650  -5.417  1.00  0.00    -0.266 N
ATOM     12  H5  UNL     1     -27.460   6.398  -4.527  1.00  0.00     0.190 HD
BRANCH  11  13
HETATM   13  C6  UNL     1     -29.272   6.359  -5.684  1.00  0.00     0.159 C
HETATM   14  N6  UNL     1     -29.832   6.924  -6.672  1.00  0.00    -0.320 N
HETATM   15  C7  UNL     1     -31.150   6.870  -7.215  1.00  0.00     0.485 C
ATOM     16  H6  UNL     1     -29.209   7.548  -7.186  1.00  0.00     0.165 HD
HETATM   17  N8  UNL     1     -31.744   5.557  -7.213  1.00  0.00    -0.016 N
HETATM   18  C8  UNL     1     -32.303   5.237  -5.931  1.00  0.00     0.288 C
ATOM     19  H82 UNL     1     -32.434   5.458  -7.957  1.00  0.00     0.282 HD
ATOM     20  H81 UNL     1     -31.079   4.846  -7.520  1.00  0.00     0.282 HD
HETATM   21  C10 UNL     1     -31.361   4.290  -5.228  1.00  0.00     0.125 C
HETATM   22  S1  UNL     1     -29.970   5.207  -4.528  1.00  0.00    -0.090 SA
BRANCH  15  23
HETATM   23  N7  UNL     1     -32.076   7.788  -6.611  1.00  0.00    -0.033 N
ATOM     24  H73 UNL     1     -32.897   7.908  -7.205  1.00  0.00     0.278 HD
ATOM     25  H72 UNL     1     -32.514   7.365  -5.792  1.00  0.00     0.278 HD
ATOM     26  H71 UNL     1     -31.673   8.694  -6.371  1.00  0.00     0.278 HD
ENDBRANCH  15  23
BRANCH  18  27
HETATM   27  C9  UNL     1     -33.666   4.696  -6.056  1.00  0.00     0.263 C
HETATM   28  N9  UNL     1     -34.644   5.447  -6.729  1.00  0.00    -0.060 NA
HETATM   29  O3  UNL     1     -34.015   3.576  -5.587  1.00  0.00    -0.275 OA
ENDBRANCH  18  27
ENDBRANCH  11  13
ENDBRANCH   8  11
ENDBRANCH   3   7
BRANCH   4  30
HETATM   30  N10 UNL     1     -23.035   8.157  -5.575  1.00  0.00    -0.363 N
ATOM     31  H10 UNL     1     -22.326   7.893  -4.889  1.00  0.00     0.158 HD
BRANCH  30  32
HETATM   32  C12 UNL     1     -22.925   7.748  -6.927  1.00  0.00     0.434 C
HETATM   33  N11 UNL     1     -22.780   6.279  -6.961  1.00  0.00     0.019 N
HETATM   34  C13 UNL     1     -21.375   6.626  -6.701  1.00  0.00     0.475 C
ATOM     35 2H11 UNL     1     -23.324   5.641  -6.379  1.00  0.00     0.288 HD
ATOM     36 1H11 UNL     1     -23.085   5.697  -7.742  1.00  0.00     0.288 HD
HETATM   37  O5  UNL     1     -21.621   7.786  -7.470  1.00  0.00    -0.289 OA
BRANCH  34  38
HETATM   38  O4  UNL     1     -20.465   5.794  -7.317  1.00  0.00    -0.349 OA
ATOM     39  H4  UNL     1     -20.311   5.998  -8.232  1.00  0.00     0.214 HD
ENDBRANCH  34  38
ENDBRANCH  30  32
ENDBRANCH   4  30
BRANCH   1  40
HETATM   40  C3  UNL     1     -27.241  11.076  -3.751  1.00  0.00     0.157 C
BRANCH  40  41
HETATM   41  N2  UNL     1     -28.429  10.546  -3.181  1.00  0.00    -0.357 N
HETATM   42  C2  UNL     1     -29.730  10.948  -3.536  1.00  0.00     0.243 C
HETATM   43  O1  UNL     1     -29.890  11.833  -4.407  1.00  0.00    -0.272 OA
ATOM     44  H2  UNL     1     -28.333   9.825  -2.466  1.00  0.00     0.162 HD
BRANCH  42  45
HETATM   45  C1  UNL     1     -30.952  10.374  -2.926  1.00  0.00     0.331 C
BRANCH  45  46
HETATM   46  N1  UNL     1     -31.204   9.035  -3.398  1.00  0.00    -0.071 N
ATOM     47  H13 UNL     1     -30.336   8.552  -3.629  1.00  0.00     0.274 HD
ATOM     48  H12 UNL     1     -31.528   8.430  -2.644  1.00  0.00     0.274 HD
ATOM     49  H11 UNL     1     -31.853   9.029  -4.185  1.00  0.00     0.274 HD
ENDBRANCH  45  46
ENDBRANCH  42  45
ENDBRANCH  40  41
ENDBRANCH   1  40
BRANCH   5  50
HETATM   50  O6  UNL     1     -23.204  10.958  -6.073  1.00  0.00    -0.391 OA
ATOM     51  H6  UNL     1     -23.210  11.511  -6.845  1.00  0.00     0.210 HD
ENDBRANCH   5  50
BRANCH   6  52
HETATM   52  O7  UNL     1     -25.969  11.964  -6.226  1.00  0.00    -0.390 OA
ATOM     53  H7  UNL     1     -25.614  12.799  -5.944  1.00  0.00     0.210 HD
ENDBRANCH   6  52
TORSDOF 14
ENDMDL