MODEL 4
REMARK VINA RESULT: -7.990842487      2.278      4.178
REMARK  15 active torsions:
REMARK  status: ('A' for Active; 'I' for Inactive)
REMARK    1  A    between atoms: N2_7  and  C5_8
REMARK    2  A    between atoms: C6_12  and  O2_13
REMARK    3  A    between atoms: O2_13  and  N4_14
REMARK    4  A    between atoms: C7_17  and  C8_18
REMARK    5  A    between atoms: C8_18  and  O3_19
REMARK    6  A    between atoms: C8_18  and  N5_21
REMARK    7  A    between atoms: C9_23  and  C10_24
REMARK    8  A    between atoms: C10_24  and  O4_25
REMARK    9  A    between atoms: C10_24  and  C11_27
REMARK   10  A    between atoms: C11_27  and  O5_28
REMARK   11  A    between atoms: C11_27  and  C12_30
REMARK   12  A    between atoms: C12_30  and  O6_31
REMARK   13  A    between atoms: C13_33  and  O7_34
REMARK   14  A    between atoms: C14_36  and  O8_37
REMARK   15  A    between atoms: C15_39  and  O9_40
ROOT
HETATM    1  C5  UNL     1     -23.934   7.476  -7.663  1.00  0.00     0.340 C
HETATM    2  N3  UNL     1     -22.568   7.846  -7.474  1.00  0.00    -0.021 N
ATOM      3  H31 UNL     1     -22.283   7.819  -6.495  1.00  0.00     0.283 HD
ATOM      4  H32 UNL     1     -22.403   8.840  -7.636  1.00  0.00     0.283 HD
HETATM    5  C6  UNL     1     -21.740   6.979  -8.338  1.00  0.00     0.362 C
HETATM    6  C7  UNL     1     -21.811   7.542  -9.695  1.00  0.00     0.124 C
HETATM    7  C13 UNL     1     -22.832   6.857 -10.581  1.00  0.00     0.162 C
HETATM    8  C14 UNL     1     -24.228   6.951 -10.121  1.00  0.00     0.180 C
HETATM    9  C15 UNL     1     -24.539   7.841  -8.975  1.00  0.00     0.201 C
ENDROOT
BRANCH   6  10
HETATM   10  C8  UNL     1     -20.508   7.521 -10.433  1.00  0.00     0.228 C
BRANCH  10  11
HETATM   11  O3  UNL     1     -19.941   6.254  -9.981  1.00  0.00    -0.376 OA
ATOM     12  H3  UNL     1     -20.119   5.691 -10.725  1.00  0.00     0.212 HD
ENDBRANCH  10  11
BRANCH  10  13
HETATM   13  N5  UNL     1     -20.582   7.398 -11.796  1.00  0.00    -0.374 N
HETATM   14  C9  UNL     1     -19.639   7.464 -12.779  1.00  0.00     0.092 C
ATOM     15  H5  UNL     1     -21.525   7.223 -12.143  1.00  0.00     0.161 HD
BRANCH  14  16
HETATM   16  C10 UNL     1     -18.609   6.381 -12.882  1.00  0.00     0.187 C
BRANCH  16  17
HETATM   17  O4  UNL     1     -17.615   6.756 -13.781  1.00  0.00    -0.388 OA
ATOM     18  H4  UNL     1     -17.760   6.333 -14.619  1.00  0.00     0.210 HD
ENDBRANCH  16  17
BRANCH  16  19
HETATM   19  C11 UNL     1     -19.220   5.090 -13.380  1.00  0.00     0.175 C
BRANCH  19  20
HETATM   20  O5  UNL     1     -20.120   4.620 -12.419  1.00  0.00    -0.391 OA
ATOM     21  H5  UNL     1     -20.428   5.357 -11.905  1.00  0.00     0.210 HD
ENDBRANCH  19  20
BRANCH  19  22
HETATM   22  C12 UNL     1     -18.062   4.085 -13.483  1.00  0.00     0.198 C
BRANCH  22  23
HETATM   23  O6  UNL     1     -17.069   4.379 -12.552  1.00  0.00    -0.398 OA
ATOM     24  H6  UNL     1     -16.207   4.246 -12.926  1.00  0.00     0.209 HD
ENDBRANCH  22  23
ENDBRANCH  19  22
ENDBRANCH  16  19
ENDBRANCH  14  16
ENDBRANCH  10  13
ENDBRANCH   6  10
BRANCH   5  25
HETATM   25  O2  UNL     1     -22.377   5.713  -8.355  1.00  0.00    -0.253 OA
BRANCH  25  26
HETATM   26  N4  UNL     1     -21.629   4.785  -7.734  1.00  0.00    -0.309 N
ATOM     27  H42 UNL     1     -21.877   3.797  -7.689  1.00  0.00     0.184 HD
ATOM     28  H41 UNL     1     -20.793   5.202  -7.323  1.00  0.00     0.184 HD
ENDBRANCH  25  26
ENDBRANCH   5  25
BRANCH   7  29
HETATM   29  O7  UNL     1     -22.448   5.523 -10.710  1.00  0.00    -0.392 OA
ATOM     30  H7  UNL     1     -23.240   5.003 -10.781  1.00  0.00     0.210 HD
ENDBRANCH   7  29
BRANCH   8  31
HETATM   31  O8  UNL     1     -24.787   5.685  -9.903  1.00  0.00    -0.390 OA
ATOM     32  H8  UNL     1     -24.809   5.466  -8.978  1.00  0.00     0.210 HD
ENDBRANCH   8  31
BRANCH   1  33
HETATM   33  N2  UNL     1     -24.776   8.072  -6.618  1.00  0.00    -0.267 N
HETATM   34  C4  UNL     1     -26.016   7.735  -6.256  1.00  0.00     0.133 A
HETATM   35  C3  UNL     1     -26.389   8.575  -5.243  1.00  0.00     0.095 A
HETATM   36  C2  UNL     1     -27.527   8.743  -4.455  1.00  0.00     0.266 A
HETATM   37  C16 UNL     1     -25.334   9.440  -4.993  1.00  0.00     0.143 A
HETATM   38  N1  UNL     1     -27.534   9.704  -3.527  1.00  0.00    -0.270 N
HETATM   39  O1  UNL     1     -28.501   7.962  -4.668  1.00  0.00    -0.267 OA
HETATM   40  C1  UNL     1     -28.716   9.877  -2.711  1.00  0.00     0.164 C
HETATM   41  C18 UNL     1     -26.484  10.527  -3.315  1.00  0.00     0.332 A
HETATM   42  N7  UNL     1     -25.369  10.399  -4.053  1.00  0.00    -0.288 N
HETATM   43  O10 UNL     1     -26.497  11.428  -2.443  1.00  0.00    -0.246 OA
HETATM   44  C17 UNL     1     -24.206  11.234  -3.892  1.00  0.00     0.163 C
HETATM   45  N6  UNL     1     -24.366   9.089  -5.866  1.00  0.00    -0.281 N
ATOM     46  H6  UNL     1     -23.453   9.538  -5.937  1.00  0.00     0.189 HD
ENDBRANCH   1  33
BRANCH   9  47
HETATM   47  O9  UNL     1     -24.419   9.207  -9.278  1.00  0.00    -0.389 OA
ATOM     48  H9  UNL     1     -24.798   9.438 -10.117  1.00  0.00     0.210 HD
ENDBRANCH   9  47
TORSDOF 15
ENDMDL