MODEL 4
REMARK VINA RESULT: -8.789254248      3.496      4.194
REMARK  16 active torsions:
REMARK  status: ('A' for Active; 'I' for Inactive)
REMARK    1  A    between atoms: N1_1  and  C1_4
REMARK    2  A    between atoms: C2_7  and  C3_8
REMARK       I    between atoms: C3_8  and  N3_10
REMARK    3  A    between atoms: N3_10  and  C4_12
REMARK    4  A    between atoms: C4_12  and  C5_13
REMARK    5  A    between atoms: C5_13  and  N4_14
REMARK    6  A    between atoms: C5_13  and  C6_18
REMARK    7  A    between atoms: C6_18  and  O2_19
REMARK    8  A    between atoms: C6_18  and  C7_21
REMARK    9  A    between atoms: C7_21  and  O3_22
REMARK   10  A    between atoms: C7_21  and  O4_24
REMARK   11  A    between atoms: N7_35  and  C12_36
REMARK   12  A    between atoms: C13_38  and  O7_39
REMARK   13  A    between atoms: C14_41  and  O8_42
REMARK   14  A    between atoms: O8_42  and  S1_43
REMARK   15  A    between atoms: S1_43  and  N8_44
REMARK   16  A    between atoms: C15_49  and  O11_50
ROOT
HETATM    1  C1  UNL     1     -27.115   9.227  -3.891  1.00  0.00     0.130 C
HETATM    2  N2  UNL     1     -25.894   8.869  -4.376  1.00  0.00    -0.322 N
ATOM      3  H2  UNL     1     -25.088   9.180  -3.833  1.00  0.00     0.169 HD
HETATM    4  C2  UNL     1     -25.621   8.151  -5.486  1.00  0.00     0.179 C
HETATM    5  N5  UNL     1     -26.421   7.198  -6.032  1.00  0.00    -0.303 N
ATOM      6  H5  UNL     1     -25.950   6.410  -6.478  1.00  0.00     0.171 HD
HETATM    7  C8  UNL     1     -27.777   7.177  -6.049  1.00  0.00     0.276 C
HETATM    8  O5  UNL     1     -28.265   6.591  -7.017  1.00  0.00    -0.266 OA
HETATM    9  C9  UNL     1     -28.661   7.715  -5.149  1.00  0.00     0.137 A
HETATM   10  C10 UNL     1     -28.344   8.642  -4.183  1.00  0.00     0.110 A
HETATM   11  N6  UNL     1     -29.492   8.888  -3.542  1.00  0.00    -0.347 N
ATOM     12  H6  UNL     1     -29.608   9.536  -2.764  1.00  0.00     0.167 HD
HETATM   13  C11 UNL     1     -30.485   8.132  -4.099  1.00  0.00     0.186 A
HETATM   14  N7  UNL     1     -29.983   7.396  -5.100  1.00  0.00    -0.306 N
ENDROOT
BRANCH   4  15
HETATM   15  C3  UNL     1     -24.351   8.458  -6.102  1.00  0.00     0.285 C
HETATM   16  O1  UNL     1     -23.409   8.862  -5.377  1.00  0.00    -0.264 OA
HETATM   17  N3  UNL     1     -24.147   8.316  -7.484  1.00  0.00    -0.352 N
ATOM     18  H3  UNL     1     -24.939   7.990  -8.038  1.00  0.00     0.162 HD
BRANCH  17  19
HETATM   19  C4  UNL     1     -22.922   8.588  -8.191  1.00  0.00     0.158 C
BRANCH  19  20
HETATM   20  C5  UNL     1     -22.293   7.367  -8.799  1.00  0.00     0.234 C
BRANCH  20  21
HETATM   21  N4  UNL     1     -20.975   7.721  -9.332  1.00  0.00    -0.071 N
ATOM     22  H43 UNL     1     -20.593   8.560  -8.894  1.00  0.00     0.274 HD
ATOM     23  H42 UNL     1     -20.250   7.065  -9.042  1.00  0.00     0.274 HD
ATOM     24  H41 UNL     1     -21.038   7.807 -10.346  1.00  0.00     0.274 HD
ENDBRANCH  20  21
BRANCH  20  25
HETATM   25  C6  UNL     1     -22.107   6.230  -7.829  1.00  0.00     0.204 C
BRANCH  25  26
HETATM   26  O2  UNL     1     -21.839   5.089  -8.594  1.00  0.00    -0.388 OA
ATOM     27  H2  UNL     1     -20.898   4.960  -8.571  1.00  0.00     0.210 HD
ENDBRANCH  25  26
BRANCH  25  28
HETATM   28  C7  UNL     1     -20.989   6.554  -6.874  1.00  0.00     0.284 C
BRANCH  28  29
HETATM   29  O3  UNL     1     -20.066   5.537  -6.890  1.00  0.00    -0.369 OA
ATOM     30  H3  UNL     1     -19.792   5.345  -6.001  1.00  0.00     0.212 HD
ENDBRANCH  28  29
BRANCH  28  31
HETATM   31  O4  UNL     1     -21.504   6.765  -5.576  1.00  0.00    -0.369 OA
ATOM     32  H4  UNL     1     -21.099   7.530  -5.185  1.00  0.00     0.212 HD
ENDBRANCH  28  31
ENDBRANCH  25  28
ENDBRANCH  20  25
ENDBRANCH  19  20
ENDBRANCH  17  19
ENDBRANCH   4  15
BRANCH   1  33
HETATM   33  N1  UNL     1     -27.199  10.203  -3.076  1.00  0.00    -0.384 N
ATOM     34  H12 UNL     1     -26.314  10.689  -2.932  1.00  0.00     0.157 HD
ATOM     35  H11 UNL     1     -28.099  10.417  -2.646  1.00  0.00     0.157 HD
ENDBRANCH   1  33
BRANCH  14  36
HETATM   36  C12 UNL     1     -30.711   6.482  -5.919  1.00  0.00     0.264 C
HETATM   37  O6  UNL     1     -31.042   7.124  -7.088  1.00  0.00    -0.331 OA
HETATM   38  C13 UNL     1     -32.382   7.141  -7.290  1.00  0.00     0.292 C
HETATM   39  C14 UNL     1     -33.107   6.720  -6.065  1.00  0.00     0.232 C
HETATM   40  C15 UNL     1     -32.008   6.127  -5.217  1.00  0.00     0.202 C
BRANCH  38  41
HETATM   41  O7  UNL     1     -32.740   6.372  -8.418  1.00  0.00    -0.368 OA
ATOM     42  H7  UNL     1     -32.720   6.894  -9.212  1.00  0.00     0.212 HD
ENDBRANCH  38  41
BRANCH  39  43
HETATM   43  O8  UNL     1     -33.747   7.796  -5.504  1.00  0.00    -0.246 OA
BRANCH  43  44
HETATM   44  S1  UNL     1     -35.191   8.183  -6.221  1.00  0.00     0.356 S
HETATM   45  O9  UNL     1     -34.981   9.421  -7.057  1.00  0.00    -0.176 OA
HETATM   46  O10 UNL     1     -36.184   8.510  -5.136  1.00  0.00    -0.176 OA
BRANCH  44  47
HETATM   47  N8  UNL     1     -35.771   6.954  -7.278  1.00  0.00    -0.306 N
ATOM     48  H82 UNL     1     -35.159   6.441  -7.912  1.00  0.00     0.171 HD
ATOM     49  H81 UNL     1     -36.777   6.801  -7.198  1.00  0.00     0.171 HD
ENDBRANCH  44  47
ENDBRANCH  43  44
ENDBRANCH  39  43
BRANCH  40  50
HETATM   50  O11 UNL     1     -32.242   4.728  -5.236  1.00  0.00    -0.388 OA
ATOM     51  H11 UNL     1     -32.683   4.439  -4.445  1.00  0.00     0.210 HD
ENDBRANCH  40  50
ENDBRANCH  14  36
TORSDOF 16
ENDMDL