MODEL 3
REMARK VINA RESULT: -9.069599496      1.985      3.188
REMARK  14 active torsions:
REMARK  status: ('A' for Active; 'I' for Inactive)
REMARK    1  A    between atoms: N1_1  and  N2_4
REMARK       I    between atoms: N2_4  and  C1_6
REMARK    2  A    between atoms: C1_6  and  C2_8
REMARK       I    between atoms: C2_8  and  N3_10
REMARK    3  A    between atoms: N3_10  and  C3_12
REMARK    4  A    between atoms: C3_12  and  N4_13
REMARK    5  A    between atoms: C3_12  and  C14_45
REMARK    6  A    between atoms: N4_13  and  N5_15
REMARK    7  A    between atoms: C4_17  and  C5_18
REMARK    8  A    between atoms: C6_19  and  O3_20
REMARK    9  A    between atoms: C7_22  and  O4_23
REMARK   10  A    between atoms: C8_25  and  N6_26
REMARK   11  A    between atoms: C9_29  and  C10_30
REMARK   12  A    between atoms: C11_35  and  N10_36
REMARK   13  A    between atoms: C12_39  and  O8_40
REMARK   14  A    between atoms: C13_42  and  O9_43
ROOT
HETATM    1  C5  UNL     1     -27.612   7.346  -4.238  1.00  0.00     0.088 C
HETATM    2  C6  UNL     1     -26.625   8.462  -4.175  1.00  0.00     0.160 C
HETATM    3  C7  UNL     1     -25.380   8.126  -4.937  1.00  0.00     0.175 C
HETATM    4  C8  UNL     1     -25.827   8.043  -6.405  1.00  0.00     0.174 C
HETATM    5  C12 UNL     1     -26.617   6.752  -6.491  1.00  0.00     0.175 C
HETATM    6  C13 UNL     1     -27.755   6.658  -5.542  1.00  0.00     0.160 C
ENDROOT
BRANCH   1   7
HETATM    7  C4  UNL     1     -28.963   7.890  -3.837  1.00  0.00     0.089 C
HETATM    8  N5  UNL     1     -29.954   7.842  -4.643  1.00  0.00    -0.317 N
ATOM      9  H5  UNL     1     -29.839   7.432  -5.569  1.00  0.00     0.185 HD
BRANCH   8  10
HETATM   10  N4  UNL     1     -31.187   8.348  -4.257  1.00  0.00    -0.305 N
ATOM     11  H4  UNL     1     -31.780   7.820  -3.616  1.00  0.00     0.183 HD
BRANCH  10  12
HETATM   12  C3  UNL     1     -31.627   9.623  -4.766  1.00  0.00     0.290 C
BRANCH  12  13
HETATM   13  N3  UNL     1     -33.099   9.584  -4.713  1.00  0.00    -0.323 N
HETATM   14  C2  UNL     1     -33.875   8.720  -5.486  1.00  0.00     0.313 C
HETATM   15  O2  UNL     1     -33.319   7.922  -6.278  1.00  0.00    -0.262 OA
ATOM     16  H3  UNL     1     -33.577  10.223  -4.078  1.00  0.00     0.165 HD
BRANCH  14  17
HETATM   17  C1  UNL     1     -35.321   8.741  -5.376  1.00  0.00     0.327 C
HETATM   18  N2  UNL     1     -35.960   9.908  -4.889  1.00  0.00    -0.268 N
ATOM     19  H2  UNL     1     -35.399  10.717  -4.622  1.00  0.00     0.190 HD
HETATM   20  O1  UNL     1     -36.035   7.751  -5.704  1.00  0.00    -0.261 OA
BRANCH  18  21
HETATM   21  N1  UNL     1     -37.369   9.963  -4.768  1.00  0.00    -0.342 N
ATOM     22  H12 UNL     1     -37.927  10.125  -5.606  1.00  0.00     0.176 HD
ATOM     23  H11 UNL     1     -37.818   9.842  -3.859  1.00  0.00     0.176 HD
ENDBRANCH  18  21
ENDBRANCH  14  17
ENDBRANCH  12  13
BRANCH  12  24
HETATM   24  C14 UNL     1     -31.138  10.693  -3.845  1.00  0.00     0.275 C
HETATM   25  N11 UNL     1     -30.288  11.712  -4.331  1.00  0.00    -0.059 NA
HETATM   26  O10 UNL     1     -31.469  10.715  -2.634  1.00  0.00    -0.272 OA
ENDBRANCH  12  24
ENDBRANCH  10  12
ENDBRANCH   8  10
ENDBRANCH   1   7
BRANCH   2  27
HETATM   27  O3  UNL     1     -27.134   9.656  -4.723  1.00  0.00    -0.392 OA
ATOM     28  H3  UNL     1     -26.472  10.147  -5.194  1.00  0.00     0.210 HD
ENDBRANCH   2  27
BRANCH   6  29
HETATM   29  O9  UNL     1     -27.944   5.276  -5.287  1.00  0.00    -0.392 OA
ATOM     30  H9  UNL     1     -28.861   5.140  -5.080  1.00  0.00     0.210 HD
ENDBRANCH   6  29
BRANCH   3  31
HETATM   31  O4  UNL     1     -24.375   9.058  -4.785  1.00  0.00    -0.391 OA
ATOM     32  H4  UNL     1     -24.258   9.344  -3.886  1.00  0.00     0.210 HD
ENDBRANCH   3  31
BRANCH   5  33
HETATM   33  O8  UNL     1     -27.075   6.636  -7.802  1.00  0.00    -0.391 OA
ATOM     34  H8  UNL     1     -26.338   6.814  -8.373  1.00  0.00     0.210 HD
ENDBRANCH   5  33
BRANCH   4  35
HETATM   35  N6  UNL     1     -24.633   7.851  -7.204  1.00  0.00    -0.245 N
HETATM   36  N7  UNL     1     -23.983   6.675  -7.131  1.00  0.00    -0.276 N
HETATM   37  C9  UNL     1     -22.935   6.734  -7.945  1.00  0.00     0.189 A
ATOM     38  H7  UNL     1     -24.248   5.879  -6.552  1.00  0.00     0.189 HD
HETATM   39  N9  UNL     1     -22.950   7.955  -8.519  1.00  0.00    -0.303 N
HETATM   40  C11 UNL     1     -24.010   8.651  -8.055  1.00  0.00     0.269 A
ATOM     41  H9  UNL     1     -22.268   8.298  -9.196  1.00  0.00     0.171 HD
BRANCH  37  42
HETATM   42  C10 UNL     1     -21.985   5.658  -8.141  1.00  0.00     0.300 C
HETATM   43  N8  UNL     1     -20.933   5.472  -7.231  1.00  0.00    -0.054 NA
HETATM   44  O5  UNL     1     -22.106   4.902  -9.119  1.00  0.00    -0.268 OA
ENDBRANCH  37  42
BRANCH  40  45
HETATM   45  N10 UNL     1     -24.397   9.972  -8.399  1.00  0.00    -0.077 N
HETATM   46  O6  UNL     1     -24.606  10.396  -9.539  1.00  0.00    -0.529 OA
HETATM   47  O7  UNL     1     -24.569  10.918  -7.388  1.00  0.00    -0.529 OA
ENDBRANCH  40  45
ENDBRANCH   4  35
TORSDOF 14
ENDMDL