MODEL 5
REMARK VINA RESULT: -9.447057176      4.573      9.021
REMARK  14 active torsions:
REMARK  status: ('A' for Active; 'I' for Inactive)
REMARK    1  A    between atoms: N1_1  and  C1_4
REMARK    2  A    between atoms: N3_8  and  C3_9
REMARK    3  A    between atoms: C4_11  and  C5_12
REMARK    4  A    between atoms: C5_12  and  O2_13
REMARK    5  A    between atoms: C5_12  and  C6_15
REMARK    6  A    between atoms: C6_15  and  O3_16
REMARK    7  A    between atoms: C6_15  and  C7_18
REMARK       I    between atoms: C7_18  and  N4_20
REMARK    8  A    between atoms: N4_20  and  C8_22
REMARK    9  A    between atoms: C8_22  and  C9_23
REMARK   10  A    between atoms: C9_23  and  O5_24
REMARK   11  A    between atoms: C10_27  and  C11_28
REMARK   12  A    between atoms: C13_35  and  O10_36
REMARK   13  A    between atoms: C14_38  and  O11_39
REMARK   14  A    between atoms: C15_41  and  O12_42
ROOT
HETATM    1  C3  UNL     1     -30.974   6.811  -4.912  1.00  0.00     0.280 C
HETATM    2  O1  UNL     1     -29.910   7.676  -5.153  1.00  0.00    -0.351 OA
HETATM    3  C4  UNL     1     -28.721   7.137  -4.667  1.00  0.00     0.187 C
HETATM    4  C13 UNL     1     -28.341   6.013  -5.549  1.00  0.00     0.181 C
HETATM    5  C14 UNL     1     -29.369   4.897  -5.295  1.00  0.00     0.182 C
HETATM    6  C15 UNL     1     -30.580   5.413  -4.575  1.00  0.00     0.200 C
ENDROOT
BRANCH   3   7
HETATM    7  C5  UNL     1     -27.702   8.156  -4.335  1.00  0.00     0.187 C
BRANCH   7   8
HETATM    8  O2  UNL     1     -26.529   7.440  -3.984  1.00  0.00    -0.390 OA
ATOM      9  H2  UNL     1     -26.308   6.907  -4.739  1.00  0.00     0.210 HD
ENDBRANCH   7   8
BRANCH   7  10
HETATM   10  C6  UNL     1     -27.970   9.080  -3.208  1.00  0.00     0.241 C
BRANCH  10  11
HETATM   11  O3  UNL     1     -29.297   9.478  -3.077  1.00  0.00    -0.383 OA
ATOM     12  H3  UNL     1     -29.521   9.859  -2.235  1.00  0.00     0.210 HD
ENDBRANCH  10  11
BRANCH  10  13
HETATM   13  C7  UNL     1     -27.186  10.335  -3.489  1.00  0.00     0.249 C
HETATM   14  O4  UNL     1     -26.905  11.127  -2.553  1.00  0.00    -0.271 OA
HETATM   15  N4  UNL     1     -26.741  10.672  -4.795  1.00  0.00    -0.353 N
ATOM     16  H4  UNL     1     -26.958  10.045  -5.570  1.00  0.00     0.162 HD
BRANCH  15  17
HETATM   17  C8  UNL     1     -25.995  11.870  -5.053  1.00  0.00     0.201 C
BRANCH  17  18
HETATM   18  C9  UNL     1     -25.090  11.617  -6.230  1.00  0.00     0.264 C
HETATM   19  O6  UNL     1     -24.780  12.799  -6.916  1.00  0.00    -0.310 OA
HETATM   20  C10 UNL     1     -23.700  12.369  -7.706  1.00  0.00     0.330 C
HETATM   21  N5  UNL     1     -22.835  11.780  -6.699  1.00  0.00    -0.321 N
HETATM   22  C12 UNL     1     -23.746  11.219  -5.735  1.00  0.00     0.284 C
ATOM     23  H5  UNL     1     -21.814  11.767  -6.679  1.00  0.00     0.165 HD
HETATM   24  O9  UNL     1     -23.444  10.554  -4.725  1.00  0.00    -0.267 OA
BRANCH  18  25
HETATM   25  O5  UNL     1     -25.647  10.710  -7.097  1.00  0.00    -0.357 OA
ATOM     26  H5  UNL     1     -25.246  10.767  -7.956  1.00  0.00     0.213 HD
ENDBRANCH  18  25
BRANCH  20  27
HETATM   27  C11 UNL     1     -23.050  13.472  -8.425  1.00  0.00     0.224 C
HETATM   28  O7  UNL     1     -23.333  13.810  -9.596  1.00  0.00    -0.645 OA
HETATM   29  O8  UNL     1     -22.058  14.183  -7.766  1.00  0.00    -0.645 OA
ENDBRANCH  20  27
ENDBRANCH  17  18
ENDBRANCH  15  17
ENDBRANCH  10  13
ENDBRANCH   7  10
ENDBRANCH   3   7
BRANCH   4  30
HETATM   30  O10 UNL     1     -28.442   6.274  -6.916  1.00  0.00    -0.390 OA
ATOM     31  H10 UNL     1     -27.614   6.325  -7.379  1.00  0.00     0.210 HD
ENDBRANCH   4  30
BRANCH   1  32
HETATM   32  N3  UNL     1     -31.930   6.862  -6.020  1.00  0.00    -0.210 N
HETATM   33  N2  UNL     1     -31.715   6.245  -7.170  1.00  0.00    -0.300 N
HETATM   34  C2  UNL     1     -32.584   6.282  -8.194  1.00  0.00     0.155 A
ATOM     35  H2  UNL     1     -30.851   5.716  -7.284  1.00  0.00     0.186 HD
HETATM   36  C1  UNL     1     -33.764   6.988  -8.074  1.00  0.00     0.119 A
HETATM   37  N6  UNL     1     -33.982   7.615  -6.904  1.00  0.00    -0.292 N
HETATM   38  C16 UNL     1     -33.083   7.551  -5.905  1.00  0.00     0.345 A
ATOM     39  H6  UNL     1     -34.842   8.148  -6.771  1.00  0.00     0.172 HD
HETATM   40  O13 UNL     1     -33.308   8.155  -4.801  1.00  0.00    -0.245 OA
BRANCH  36  41
HETATM   41  N1  UNL     1     -34.628   7.046  -9.042  1.00  0.00    -0.384 N
ATOM     42  H12 UNL     1     -35.270   6.275  -9.226  1.00  0.00     0.157 HD
ATOM     43  H11 UNL     1     -34.697   7.860  -9.653  1.00  0.00     0.157 HD
ENDBRANCH  36  41
ENDBRANCH   1  32
BRANCH   5  44
HETATM   44  O11 UNL     1     -28.803   3.905  -4.481  1.00  0.00    -0.390 OA
ATOM     45  H11 UNL     1     -28.724   3.094  -4.970  1.00  0.00     0.210 HD
ENDBRANCH   5  44
BRANCH   6  46
HETATM   46  O12 UNL     1     -31.650   4.551  -4.916  1.00  0.00    -0.388 OA
ATOM     47  H12 UNL     1     -32.058   4.245  -4.115  1.00  0.00     0.210 HD
ENDBRANCH   6  46
TORSDOF 14
ENDMDL