MODEL 2
REMARK VINA RESULT: -8.931918325      2.781      4.831
REMARK  13 active torsions:
REMARK  status: ('A' for Active; 'I' for Inactive)
REMARK    1  A    between atoms: C1_2  and  C2_4
REMARK    2  A    between atoms: C3_8  and  O2_9
REMARK    3  A    between atoms: C3_8  and  C4_11
REMARK    4  A    between atoms: C4_11  and  O3_12
REMARK    5  A    between atoms: C4_11  and  O4_14
REMARK    6  A    between atoms: C5_16  and  N3_17
REMARK    7  A    between atoms: C6_20  and  C7_21
REMARK    8  A    between atoms: C9_26  and  O5_27
REMARK    9  A    between atoms: C10_29  and  O6_30
REMARK   10  A    between atoms: C13_38  and  O9_39
REMARK   11  A    between atoms: C13_38  and  C14_41
REMARK   12  A    between atoms: C14_41  and  O10_42
REMARK   13  A    between atoms: O10_42  and  S1_43
ROOT
HETATM    1  C2  UNL     1     -25.711  10.220  -6.117  1.00  0.00     0.316 C
HETATM    2  N2  UNL     1     -24.928  10.674  -7.230  1.00  0.00    -0.020 N
ATOM      3  H21 UNL     1     -25.232  11.572  -7.607  1.00  0.00     0.282 HD
ATOM      4  H22 UNL     1     -25.072  10.131  -8.082  1.00  0.00     0.282 HD
HETATM    5  C3  UNL     1     -23.535  10.673  -6.756  1.00  0.00     0.300 C
HETATM    6  C5  UNL     1     -23.487   9.389  -5.929  1.00  0.00     0.220 C
HETATM    7  C13 UNL     1     -24.802   9.432  -5.263  1.00  0.00     0.144 C
ENDROOT
BRANCH   6   8
HETATM    8  N3  UNL     1     -23.240   8.243  -6.747  1.00  0.00    -0.229 N
HETATM    9  N4  UNL     1     -23.856   7.976  -7.888  1.00  0.00    -0.291 N
HETATM   10  C6  UNL     1     -23.624   6.904  -8.649  1.00  0.00     0.127 A
ATOM     11  H4  UNL     1     -24.562   8.639  -8.209  1.00  0.00     0.187 HD
HETATM   12  C11 UNL     1     -22.676   5.988  -8.243  1.00  0.00     0.275 A
HETATM   13  O7  UNL     1     -22.450   4.985  -8.943  1.00  0.00    -0.266 OA
HETATM   14  N6  UNL     1     -22.031   6.241  -7.077  1.00  0.00    -0.272 N
HETATM   15  C12 UNL     1     -22.318   7.343  -6.360  1.00  0.00     0.344 A
ATOM     16  H6  UNL     1     -21.323   5.589  -6.740  1.00  0.00     0.173 HD
HETATM   17  O8  UNL     1     -21.671   7.509  -5.280  1.00  0.00    -0.245 OA
BRANCH  10  18
HETATM   18  C7  UNL     1     -24.352   6.651  -9.934  1.00  0.00     0.273 C
HETATM   19  N5  UNL     1     -23.539   6.910 -11.079  1.00  0.00    -0.060 N
HETATM   20  C8  UNL     1     -24.352   7.527 -12.089  1.00  0.00     0.267 C
ATOM     21  H52 UNL     1     -22.711   7.461 -10.854  1.00  0.00     0.278 HD
ATOM     22  H51 UNL     1     -23.063   6.074 -11.418  1.00  0.00     0.278 HD
HETATM   23  C9  UNL     1     -25.634   7.967 -11.465  1.00  0.00     0.174 C
HETATM   24  C10 UNL     1     -25.594   7.474 -10.038  1.00  0.00     0.185 C
BRANCH  23  25
HETATM   25  O5  UNL     1     -26.706   7.451 -12.182  1.00  0.00    -0.391 OA
ATOM     26  H5  UNL     1     -27.473   7.996 -12.049  1.00  0.00     0.210 HD
ENDBRANCH  23  25
BRANCH  24  27
HETATM   27  O6  UNL     1     -26.751   6.776  -9.690  1.00  0.00    -0.390 OA
ATOM     28  H6  UNL     1     -26.891   5.995 -10.212  1.00  0.00     0.210 HD
ENDBRANCH  24  27
ENDBRANCH  10  18
ENDBRANCH   6   8
BRANCH   5  29
HETATM   29  O2  UNL     1     -23.288  11.745  -5.914  1.00  0.00    -0.359 OA
ATOM     30  H2  UNL     1     -22.374  11.777  -5.653  1.00  0.00     0.212 HD
ENDBRANCH   5  29
BRANCH   5  31
HETATM   31  C4  UNL     1     -22.649  10.663  -7.950  1.00  0.00     0.320 C
BRANCH  31  32
HETATM   32  O3  UNL     1     -22.052  11.927  -8.169  1.00  0.00    -0.367 OA
ATOM     33  H3  UNL     1     -22.336  12.312  -8.990  1.00  0.00     0.212 HD
ENDBRANCH  31  32
BRANCH  31  34
HETATM   34  O4  UNL     1     -23.468  10.478  -9.092  1.00  0.00    -0.367 OA
ATOM     35  H4  UNL     1     -23.319   9.597  -9.414  1.00  0.00     0.212 HD
ENDBRANCH  31  34
ENDBRANCH   5  31
BRANCH   7  36
HETATM   36  O9  UNL     1     -24.610  10.209  -4.079  1.00  0.00    -0.383 OA
ATOM     37  H9  UNL     1     -23.998   9.718  -3.544  1.00  0.00     0.210 HD
ENDBRANCH   7  36
BRANCH   7  38
HETATM   38  C14 UNL     1     -25.337   8.094  -4.836  1.00  0.00     0.236 C
BRANCH  38  39
HETATM   39  O10 UNL     1     -26.717   8.026  -4.999  1.00  0.00    -0.254 OA
BRANCH  39  40
HETATM   40  S1  UNL     1     -27.189   6.799  -6.008  1.00  0.00     0.251 S
HETATM   41  O11 UNL     1     -28.173   7.277  -7.036  1.00  0.00    -0.572 OA
HETATM   42  O12 UNL     1     -26.001   6.251  -6.739  1.00  0.00    -0.572 OA
HETATM   43  O13 UNL     1     -27.902   5.524  -5.180  1.00  0.00    -0.572 OA
ENDBRANCH  39  40
ENDBRANCH  38  39
ENDBRANCH   7  38
BRANCH   1  44
HETATM   44  C1  UNL     1     -26.298  11.404  -5.418  1.00  0.00     0.265 C
HETATM   45  N1  UNL     1     -27.337  11.169  -4.482  1.00  0.00    -0.060 NA
HETATM   46  O1  UNL     1     -25.916  12.582  -5.620  1.00  0.00    -0.274 OA
ENDBRANCH   1  44
TORSDOF 13
ENDMDL