MODEL 5
REMARK VINA RESULT: -8.295257713      1.823      2.406
REMARK  17 active torsions:
REMARK  status: ('A' for Active; 'I' for Inactive)
REMARK    1  A    between atoms: N1_2  and  C2_3
REMARK    2  A    between atoms: N1_2  and  S1_18
REMARK    3  A    between atoms: C2_3  and  O1_4
REMARK    4  A    between atoms: C2_3  and  C3_6
REMARK    5  A    between atoms: C3_6  and  N2_7
REMARK    6  A    between atoms: C3_6  and  C4_11
REMARK    7  A    between atoms: C4_11  and  O2_12
REMARK    8  A    between atoms: C4_11  and  N3_14
REMARK    9  A    between atoms: N3_14  and  N4_15
REMARK   10  A    between atoms: S1_18  and  O5_21
REMARK   11  A    between atoms: O5_21  and  C5_22
REMARK   12  A    between atoms: C6_24  and  N5_25
REMARK   13  A    between atoms: C9_30  and  N7_31
REMARK   14  A    between atoms: C10_36  and  N9_37
REMARK   15  A    between atoms: C12_43  and  O7_44
REMARK   16  A    between atoms: C13_46  and  O8_47
REMARK   17  A    between atoms: C14_49  and  N11_50
ROOT
HETATM    1  C5  UNL     1     -26.263   9.082  -5.969  1.00  0.00     0.316 C
HETATM    2  O6  UNL     1     -26.493   8.726  -4.698  1.00  0.00    -0.330 OA
HETATM    3  C6  UNL     1     -26.686   9.627  -3.722  1.00  0.00     0.265 C
HETATM    4  C12 UNL     1     -25.778  10.817  -3.877  1.00  0.00     0.198 C
HETATM    5  C13 UNL     1     -26.151  11.466  -5.169  1.00  0.00     0.186 C
HETATM    6  C14 UNL     1     -25.901  10.481  -6.276  1.00  0.00     0.270 C
ENDROOT
BRANCH   1   7
HETATM    7  O5  UNL     1     -25.230   8.252  -6.473  1.00  0.00    -0.224 OA
BRANCH   7   8
HETATM    8  S1  UNL     1     -25.715   7.302  -7.736  1.00  0.00     0.364 S
HETATM    9  O3  UNL     1     -26.237   5.999  -7.147  1.00  0.00    -0.175 OA
HETATM   10  O4  UNL     1     -26.859   7.916  -8.515  1.00  0.00    -0.175 OA
BRANCH   8  11
HETATM   11  N1  UNL     1     -24.449   6.956  -8.777  1.00  0.00    -0.263 N
HETATM   12  C1  UNL     1     -24.347   7.679  -9.967  1.00  0.00     0.168 C
BRANCH  11  13
HETATM   13  C2  UNL     1     -23.355   6.236  -8.299  1.00  0.00     0.266 C
BRANCH  13  14
HETATM   14  O1  UNL     1     -23.652   5.230  -7.376  1.00  0.00    -0.374 OA
ATOM     15  H1  UNL     1     -23.171   4.418  -7.486  1.00  0.00     0.212 HD
ENDBRANCH  13  14
BRANCH  13  16
HETATM   16  C3  UNL     1     -22.260   7.151  -7.779  1.00  0.00     0.278 C
BRANCH  16  17
HETATM   17  N2  UNL     1     -22.419   7.301  -6.369  1.00  0.00    -0.067 N
ATOM     18  H23 UNL     1     -23.387   7.485  -6.103  1.00  0.00     0.275 HD
ATOM     19  H22 UNL     1     -22.300   6.420  -5.867  1.00  0.00     0.275 HD
ATOM     20  H21 UNL     1     -21.780   8.025  -6.042  1.00  0.00     0.275 HD
ENDBRANCH  16  17
BRANCH  16  21
HETATM   21  C4  UNL     1     -20.893   6.690  -8.145  1.00  0.00     0.265 C
BRANCH  21  22
HETATM   22  O2  UNL     1     -20.459   5.806  -7.123  1.00  0.00    -0.376 OA
ATOM     23  H2  UNL     1     -19.845   6.285  -6.579  1.00  0.00     0.211 HD
ENDBRANCH  21  22
BRANCH  21  24
HETATM   24  N3  UNL     1     -20.957   5.969  -9.400  1.00  0.00    -0.114 NA
BRANCH  24  25
HETATM   25  N4  UNL     1     -20.093   6.466 -10.337  1.00  0.00    -0.346 N
ATOM     26  H42 UNL     1     -19.376   7.158 -10.117  1.00  0.00     0.172 HD
ATOM     27  H41 UNL     1     -20.247   6.067 -11.263  1.00  0.00     0.172 HD
ENDBRANCH  24  25
ENDBRANCH  21  24
ENDBRANCH  16  21
ENDBRANCH  13  16
ENDBRANCH  11  13
ENDBRANCH   8  11
ENDBRANCH   7   8
ENDBRANCH   1   7
BRANCH   6  28
HETATM   28  N11 UNL     1     -24.478  10.595  -6.612  1.00  0.00    -0.068 N
ATOM     29 3H11 UNL     1     -23.895  10.610  -5.776  1.00  0.00     0.275 HD
ATOM     30 2H11 UNL     1     -24.122   9.737  -7.035  1.00  0.00     0.275 HD
ATOM     31 1H11 UNL     1     -24.306  11.406  -7.205  1.00  0.00     0.275 HD
ENDBRANCH   6  28
BRANCH   3  32
HETATM   32  N5  UNL     1     -28.058  10.047  -3.517  1.00  0.00    -0.297 N
HETATM   33  C7  UNL     1     -28.543  11.205  -3.072  1.00  0.00     0.188 A
HETATM   34  N6  UNL     1     -29.884  11.129  -3.049  1.00  0.00    -0.346 N
HETATM   35  C8  UNL     1     -30.268   9.905  -3.486  1.00  0.00     0.123 A
ATOM     36  H6  UNL     1     -30.514  11.875  -2.751  1.00  0.00     0.167 HD
HETATM   37  C9  UNL     1     -31.505   9.315  -3.657  1.00  0.00     0.145 A
HETATM   38  C11 UNL     1     -29.109   9.247  -3.771  1.00  0.00     0.157 A
HETATM   39  N8  UNL     1     -31.538   8.042  -4.124  1.00  0.00    -0.175 N
HETATM   40  C10 UNL     1     -30.408   7.376  -4.411  1.00  0.00     0.679 A
ATOM     41  H8  UNL     1     -32.438   7.582  -4.259  1.00  0.00     0.186 HD
HETATM   42  N10 UNL     1     -29.216   7.968  -4.237  1.00  0.00    -0.174 N
ATOM     43  H10 UNL     1     -28.367   7.448  -4.459  1.00  0.00     0.186 HD
BRANCH  37  44
HETATM   44  N7  UNL     1     -32.556   9.976  -3.374  1.00  0.00    -0.383 N
ATOM     45  H72 UNL     1     -33.106  10.471  -4.076  1.00  0.00     0.157 HD
ATOM     46  H71 UNL     1     -32.874  10.020  -2.406  1.00  0.00     0.157 HD
ENDBRANCH  37  44
BRANCH  40  47
HETATM   47  N9  UNL     1     -30.490   6.152  -4.858  1.00  0.00    -0.234 N
ATOM     48  H92 UNL     1     -31.386   5.666  -4.891  1.00  0.00     0.174 HD
ATOM     49  H91 UNL     1     -29.642   5.684  -5.177  1.00  0.00     0.174 HD
ENDBRANCH  40  47
ENDBRANCH   3  32
BRANCH   5  50
HETATM   50  O8  UNL     1     -25.455  12.651  -5.370  1.00  0.00    -0.391 OA
ATOM     51  H8  UNL     1     -24.536  12.494  -5.552  1.00  0.00     0.210 HD
ENDBRANCH   5  50
BRANCH   4  52
HETATM   52  O7  UNL     1     -24.472  10.336  -3.946  1.00  0.00    -0.389 OA
ATOM     53  H7  UNL     1     -24.147  10.273  -3.056  1.00  0.00     0.210 HD
ENDBRANCH   4  52
TORSDOF 17
ENDMDL