MODEL 5
REMARK VINA RESULT: -8.496828463      3.168      7.557
REMARK  18 active torsions:
REMARK  status: ('A' for Active; 'I' for Inactive)
REMARK    1  A    between atoms: C2_2  and  O1_3
REMARK    2  A    between atoms: C2_2  and  C3_5
REMARK    3  A    between atoms: C2_2  and  C6_20
REMARK    4  A    between atoms: C3_5  and  N1_6
REMARK    5  A    between atoms: C3_5  and  C4_10
REMARK    6  A    between atoms: C4_10  and  O2_11
REMARK    7  A    between atoms: C4_10  and  C5_13
REMARK       I    between atoms: C5_13  and  N2_15
REMARK    8  A    between atoms: N2_15  and  N3_17
REMARK    9  A    between atoms: C6_20  and  O4_21
REMARK   10  A    between atoms: C6_20  and  C7_23
REMARK   11  A    between atoms: C7_23  and  O5_24
REMARK   12  A    between atoms: C7_23  and  C8_26
REMARK   13  A    between atoms: C8_26  and  O6_27
REMARK   14  A    between atoms: C8_26  and  C9_29
REMARK   15  A    between atoms: C10_31  and  O8_32
REMARK   16  A    between atoms: C11_34  and  O9_35
REMARK   17  A    between atoms: C12_37  and  N4_38
REMARK   18  A    between atoms: C15_43  and  N6_44
ROOT
HETATM    1  C8  UNL     1     -31.453   6.344  -6.450  1.00  0.00     0.204 C
ENDROOT
BRANCH   1   2
HETATM    2  C7  UNL     1     -32.861   6.538  -6.009  1.00  0.00     0.183 C
BRANCH   2   3
HETATM    3  C6  UNL     1     -33.503   7.561  -6.925  1.00  0.00     0.185 C
BRANCH   3   4
HETATM    4  C2  UNL     1     -34.393   8.486  -6.139  1.00  0.00     0.113 C
HETATM    5  C1  UNL     1     -35.660   7.744  -5.802  1.00  0.00     0.051 C
BRANCH   4   6
HETATM    6  O1  UNL     1     -34.746   9.617  -6.900  1.00  0.00    -0.385 OA
ATOM      7  H1  UNL     1     -35.681   9.754  -6.802  1.00  0.00     0.210 HD
ENDBRANCH   4   6
BRANCH   4   8
HETATM    8  C3  UNL     1     -33.768   9.003  -4.892  1.00  0.00     0.257 C
BRANCH   8   9
HETATM    9  N1  UNL     1     -34.655   9.789  -4.067  1.00  0.00    -0.069 N
ATOM     10  H13 UNL     1     -35.624   9.507  -4.215  1.00  0.00     0.275 HD
ATOM     11  H12 UNL     1     -34.549   9.535  -3.085  1.00  0.00     0.275 HD
ATOM     12  H11 UNL     1     -34.554  10.798  -4.187  1.00  0.00     0.275 HD
ENDBRANCH   8   9
BRANCH   8  13
HETATM   13  C4  UNL     1     -32.431   9.666  -5.066  1.00  0.00     0.245 C
BRANCH  13  14
HETATM   14  O2  UNL     1     -32.474  10.878  -5.726  1.00  0.00    -0.384 OA
ATOM     15  H2  UNL     1     -31.960  10.911  -6.525  1.00  0.00     0.210 HD
ENDBRANCH  13  14
BRANCH  13  16
HETATM   16  C5  UNL     1     -31.817   9.833  -3.734  1.00  0.00     0.266 C
HETATM   17  O3  UNL     1     -32.456  10.374  -2.813  1.00  0.00    -0.269 OA
HETATM   18  N2  UNL     1     -30.503   9.382  -3.502  1.00  0.00    -0.274 N
ATOM     19  H2  UNL     1     -29.984   8.939  -4.261  1.00  0.00     0.189 HD
BRANCH  18  20
HETATM   20  N3  UNL     1     -29.898   9.528  -2.256  1.00  0.00    -0.343 N
ATOM     21  H32 UNL     1     -30.221  10.279  -1.645  1.00  0.00     0.176 HD
ATOM     22  H31 UNL     1     -29.150   8.903  -1.953  1.00  0.00     0.176 HD
ENDBRANCH  18  20
ENDBRANCH  13  16
ENDBRANCH   8  13
ENDBRANCH   4   8
ENDBRANCH   3   4
BRANCH   3  23
HETATM   23  O4  UNL     1     -34.152   6.864  -7.911  1.00  0.00    -0.390 OA
ATOM     24  H4  UNL     1     -35.098   6.874  -7.835  1.00  0.00     0.210 HD
ENDBRANCH   3  23
ENDBRANCH   2   3
BRANCH   2  25
HETATM   25  O5  UNL     1     -33.591   5.365  -5.934  1.00  0.00    -0.390 OA
ATOM     26  H5  UNL     1     -33.340   4.828  -5.191  1.00  0.00     0.210 HD
ENDBRANCH   2  25
ENDBRANCH   1   2
BRANCH   1  27
HETATM   27  O6  UNL     1     -31.102   7.402  -7.287  1.00  0.00    -0.388 OA
ATOM     28  H6  UNL     1     -30.667   8.067  -6.766  1.00  0.00     0.210 HD
ENDBRANCH   1  27
BRANCH   1  29
HETATM   29  C9  UNL     1     -30.465   6.254  -5.314  1.00  0.00     0.297 C
HETATM   30  O7  UNL     1     -29.986   4.973  -5.234  1.00  0.00    -0.326 OA
HETATM   31  C10 UNL     1     -29.153   4.742  -4.144  1.00  0.00     0.293 C
HETATM   32  C11 UNL     1     -28.238   5.978  -4.055  1.00  0.00     0.222 C
HETATM   33  C12 UNL     1     -28.250   6.572  -5.449  1.00  0.00     0.267 C
HETATM   34  O10 UNL     1     -29.478   7.219  -5.577  1.00  0.00    -0.331 OA
BRANCH  31  35
HETATM   35  O8  UNL     1     -28.320   3.677  -4.474  1.00  0.00    -0.368 OA
ATOM     36  H8  UNL     1     -27.427   3.999  -4.456  1.00  0.00     0.212 HD
ENDBRANCH  31  35
BRANCH  32  37
HETATM   37  O9  UNL     1     -28.921   6.827  -3.151  1.00  0.00    -0.386 OA
ATOM     38  H9  UNL     1     -29.827   6.556  -3.236  1.00  0.00     0.210 HD
ENDBRANCH  32  37
BRANCH  33  39
HETATM   39  N4  UNL     1     -27.116   7.378  -5.761  1.00  0.00    -0.297 N
HETATM   40  C13 UNL     1     -26.273   7.164  -6.816  1.00  0.00     0.188 A
HETATM   41  N5  UNL     1     -25.323   8.082  -6.834  1.00  0.00    -0.346 N
HETATM   42  C14 UNL     1     -25.504   8.939  -5.789  1.00  0.00     0.122 A
ATOM     43  H5  UNL     1     -24.571   8.140  -7.522  1.00  0.00     0.167 HD
HETATM   44  C15 UNL     1     -24.816  10.050  -5.352  1.00  0.00     0.131 A
HETATM   45  C17 UNL     1     -26.632   8.467  -5.145  1.00  0.00     0.142 A
HETATM   46  N7  UNL     1     -25.278  10.678  -4.261  1.00  0.00    -0.337 N
HETATM   47  C16 UNL     1     -26.388  10.202  -3.637  1.00  0.00     0.183 A
ATOM     48  H7  UNL     1     -24.800  11.504  -3.902  1.00  0.00     0.168 HD
HETATM   49  N8  UNL     1     -27.057   9.122  -4.061  1.00  0.00    -0.336 N
ATOM     50  H8  UNL     1     -27.886   8.802  -3.560  1.00  0.00     0.168 HD
BRANCH  44  51
HETATM   51  N6  UNL     1     -23.775  10.457  -5.976  1.00  0.00    -0.383 N
ATOM     52  H62 UNL     1     -23.089  11.070  -5.536  1.00  0.00     0.157 HD
ATOM     53  H61 UNL     1     -23.605  10.174  -6.942  1.00  0.00     0.157 HD
ENDBRANCH  44  51
ENDBRANCH  33  39
ENDBRANCH   1  29
TORSDOF 18
ENDMDL