MODEL 1
REMARK VINA RESULT: -9.162388129      0.000      0.000
REMARK  15 active torsions:
REMARK  status: ('A' for Active; 'I' for Inactive)
REMARK    1  A    between atoms: N1_1  and  C1_5
REMARK    2  A    between atoms: C3_7  and  N2_8
REMARK    3  A    between atoms: C4_12  and  O1_13
REMARK    4  A    between atoms: O1_13  and  C5_14
REMARK    5  A    between atoms: C5_14  and  C6_15
REMARK    6  A    between atoms: C7_17  and  N3_18
REMARK    7  A    between atoms: C13_31  and  O4_32
REMARK    8  A    between atoms: N7_34  and  N8_35
REMARK    9  A    between atoms: C14_38  and  N9_39
REMARK       I    between atoms: N9_39  and  C15_41
REMARK   10  A    between atoms: C15_41  and  C16_43
REMARK   11  A    between atoms: C16_43  and  O6_44
REMARK   12  A    between atoms: C16_43  and  C17_46
REMARK   13  A    between atoms: C17_46  and  O7_47
REMARK   14  A    between atoms: C17_46  and  O8_49
REMARK   15  A    between atoms: C18_51  and  O9_52
ROOT
HETATM    1  C1  UNL     1     -34.939   6.354 -10.127  1.00  0.00     0.216 C
HETATM    2  C2  UNL     1     -34.489   4.925  -9.940  1.00  0.00     0.070 C
HETATM    3  C3  UNL     1     -33.445   4.985  -8.819  1.00  0.00     0.216 C
HETATM    4  C4  UNL     1     -33.988   5.482  -7.529  1.00  0.00     0.177 C
HETATM    5  C14 UNL     1     -35.026   6.544  -7.603  1.00  0.00     0.146 C
HETATM    6  C18 UNL     1     -35.684   6.766  -8.910  1.00  0.00     0.173 C
ENDROOT
BRANCH   4   7
HETATM    7  O1  UNL     1     -32.890   6.021  -6.822  1.00  0.00    -0.378 OA
BRANCH   7   8
HETATM    8  C5  UNL     1     -32.415   5.183  -5.845  1.00  0.00     0.217 C
BRANCH   8   9
HETATM    9  C6  UNL     1     -30.910   5.251  -5.885  1.00  0.00     0.244 C
HETATM   10  O2  UNL     1     -30.425   6.464  -5.397  1.00  0.00    -0.338 OA
HETATM   11  C7  UNL     1     -29.041   6.153  -5.422  1.00  0.00     0.277 C
HETATM   12  C13 UNL     1     -29.032   4.889  -4.600  1.00  0.00     0.263 C
HETATM   13  N7  UNL     1     -30.261   4.234  -5.081  1.00  0.00    -0.174 NA
BRANCH  11  14
HETATM   14  N3  UNL     1     -28.253   7.217  -4.882  1.00  0.00    -0.296 N
HETATM   15  C8  UNL     1     -26.959   7.506  -5.063  1.00  0.00     0.188 A
HETATM   16  N4  UNL     1     -26.626   8.612  -4.349  1.00  0.00    -0.345 N
HETATM   17  C9  UNL     1     -27.709   9.044  -3.702  1.00  0.00     0.146 A
ATOM     18  H4  UNL     1     -25.701   9.042  -4.314  1.00  0.00     0.167 HD
HETATM   19  C10 UNL     1     -27.923  10.107  -2.851  1.00  0.00     0.277 A
HETATM   20  C12 UNL     1     -28.728   8.157  -4.045  1.00  0.00     0.144 A
HETATM   21  O3  UNL     1     -27.043  10.929  -2.513  1.00  0.00    -0.266 OA
HETATM   22  N5  UNL     1     -29.170  10.263  -2.356  1.00  0.00    -0.318 N
HETATM   23  C11 UNL     1     -30.168   9.425  -2.670  1.00  0.00     0.185 A
ATOM     24  H5  UNL     1     -29.358  11.041  -1.724  1.00  0.00     0.169 HD
HETATM   25  N6  UNL     1     -29.938   8.404  -3.493  1.00  0.00    -0.336 N
ATOM     26  H6  UNL     1     -30.712   7.778  -3.718  1.00  0.00     0.168 HD
ENDBRANCH  11  14
BRANCH  12  27
HETATM   27  O4  UNL     1     -29.150   5.232  -3.267  1.00  0.00    -0.375 OA
ATOM     28  H4  UNL     1     -29.459   4.473  -2.786  1.00  0.00     0.211 HD
ENDBRANCH  12  27
BRANCH  13  29
HETATM   29  N8  UNL     1     -31.045   3.803  -4.017  1.00  0.00    -0.359 NA
ATOM     30  H82 UNL     1     -30.475   3.343  -3.307  1.00  0.00     0.171 HD
ATOM     31  H81 UNL     1     -31.493   4.570  -3.516  1.00  0.00     0.171 HD
ENDBRANCH  13  29
ENDBRANCH   8   9
ENDBRANCH   7   8
ENDBRANCH   4   7
BRANCH   3  32
HETATM   32  N2  UNL     1     -32.912   3.649  -8.697  1.00  0.00    -0.072 N
ATOM     33  H23 UNL     1     -33.187   3.178  -7.835  1.00  0.00     0.274 HD
ATOM     34  H22 UNL     1     -33.335   2.981  -9.342  1.00  0.00     0.274 HD
ATOM     35  H21 UNL     1     -31.902   3.736  -8.807  1.00  0.00     0.274 HD
ENDBRANCH   3  32
BRANCH   5  36
HETATM   36  N9  UNL     1     -34.534   7.813  -7.049  1.00  0.00    -0.349 N
HETATM   37  C15 UNL     1     -35.110   8.439  -5.917  1.00  0.00     0.251 C
HETATM   38  O5  UNL     1     -36.086   7.873  -5.372  1.00  0.00    -0.270 OA
ATOM     39  H9  UNL     1     -33.739   8.265  -7.501  1.00  0.00     0.163 HD
BRANCH  37  40
HETATM   40  C16 UNL     1     -34.591   9.718  -5.383  1.00  0.00     0.264 C
BRANCH  40  41
HETATM   41  O6  UNL     1     -35.424  10.275  -4.433  1.00  0.00    -0.381 OA
ATOM     42  H6  UNL     1     -35.098  10.161  -3.548  1.00  0.00     0.210 HD
ENDBRANCH  40  41
BRANCH  40  43
HETATM   43  C17 UNL     1     -33.172   9.490  -4.847  1.00  0.00     0.291 C
BRANCH  43  44
HETATM   44  O7  UNL     1     -32.317  10.276  -5.627  1.00  0.00    -0.368 OA
ATOM     45  H7  UNL     1     -31.460   9.867  -5.589  1.00  0.00     0.212 HD
ENDBRANCH  43  44
BRANCH  43  46
HETATM   46  O8  UNL     1     -32.825   8.163  -4.846  1.00  0.00    -0.368 OA
ATOM     47  H8  UNL     1     -31.888   8.037  -4.939  1.00  0.00     0.212 HD
ENDBRANCH  43  46
ENDBRANCH  40  43
ENDBRANCH  37  40
ENDBRANCH   5  36
BRANCH   6  48
HETATM   48  O9  UNL     1     -36.949   6.188  -8.930  1.00  0.00    -0.391 OA
ATOM     49  H9  UNL     1     -37.206   5.968  -8.042  1.00  0.00     0.210 HD
ENDBRANCH   6  48
BRANCH   1  50
HETATM   50  N1  UNL     1     -33.813   7.163 -10.472  1.00  0.00    -0.072 N
ATOM     51  H13 UNL     1     -33.714   7.277 -11.481  1.00  0.00     0.274 HD
ATOM     52  H12 UNL     1     -33.954   8.144 -10.229  1.00  0.00     0.274 HD
ATOM     53  H11 UNL     1     -32.973   6.776 -10.043  1.00  0.00     0.274 HD
ENDBRANCH   1  50
TORSDOF 15
ENDMDL