MODEL 4
REMARK VINA RESULT: -6.096298798      1.465      2.155
REMARK  2 active torsions:
REMARK  status: ('A' for Active; 'I' for Inactive)
REMARK    1  A    between atoms: N3_4  and  N4_6
REMARK    2  A    between atoms: C2_8  and  C3_9
ROOT
HETATM    1  C3  UNL     1      -7.595  13.038  49.874  1.00  0.00     0.090 A
HETATM    2  C4  UNL     1      -6.830  13.205  48.738  1.00  0.00     0.137 A
HETATM    3  N5  UNL     1      -7.323  12.685  47.516  1.00  0.00    -0.081 NA
HETATM    4  N6  UNL     1      -5.665  13.848  48.855  1.00  0.00    -0.296 N
ATOM      5  H6  UNL     1      -5.079  13.985  48.032  1.00  0.00     0.171 HD
HETATM    6  C5  UNL     1      -5.258  14.316  50.049  1.00  0.00     0.328 A
HETATM    7  O1  UNL     1      -4.138  14.927  50.126  1.00  0.00    -0.247 OA
HETATM    8  N7  UNL     1      -5.975  14.174  51.179  1.00  0.00    -0.275 N
ATOM      9  H7  UNL     1      -5.641  14.538  52.071  1.00  0.00     0.173 HD
HETATM   10  C6  UNL     1      -7.152  13.528  51.081  1.00  0.00     0.264 A
HETATM   11  O2  UNL     1      -7.845  13.380  52.122  1.00  0.00    -0.267 OA
ENDROOT
BRANCH   1  12
HETATM   12  C2  UNL     1      -8.873  12.344  49.794  1.00  0.00     0.127 C
HETATM   13  N4  UNL     1      -8.976  11.136  49.404  1.00  0.00    -0.309 N
ATOM     14  H4  UNL     1      -8.131  10.630  49.136  1.00  0.00     0.186 HD
BRANCH  13  15
HETATM   15  N3  UNL     1     -10.205  10.480  49.331  1.00  0.00    -0.276 N
HETATM   16  C1  UNL     1     -10.740  10.096  48.230  1.00  0.00     0.215 C
HETATM   17  N1  UNL     1     -10.125  10.301  46.965  1.00  0.00    -0.065 NA
HETATM   18  N2  UNL     1     -12.005   9.435  48.312  1.00  0.00    -0.065 NA
ATOM     19  H3  UNL     1     -10.706  10.296  50.200  1.00  0.00     0.189 HD
ENDBRANCH  13  15
ENDBRANCH   1  12
TORSDOF 2
ENDMDL