MODEL 3
REMARK VINA RESULT: -6.651429061      1.208      1.942
REMARK  3 active torsions:
REMARK  status: ('A' for Active; 'I' for Inactive)
REMARK    1  A    between atoms: C1_4  and  C2_6
REMARK    2  A    between atoms: C4_10  and  S1_11
REMARK    3  A    between atoms: S1_11  and  N4_12
ROOT
HETATM    1  C2  UNL     1      -6.521  13.638  49.982  1.00  0.00     0.088 A
HETATM    2  C3  UNL     1      -6.409  13.371  48.649  1.00  0.00     0.111 A
HETATM    3  N3  UNL     1      -7.355  12.594  48.064  1.00  0.00    -0.340 N
ATOM      4  H3  UNL     1      -7.277  12.391  47.067  1.00  0.00     0.167 HD
HETATM    5  C4  UNL     1      -8.386  12.084  48.749  1.00  0.00     0.226 A
HETATM    6  N5  UNL     1      -8.525  12.329  50.063  1.00  0.00    -0.298 N
ATOM      7  H5  UNL     1      -9.311  11.942  50.586  1.00  0.00     0.171 HD
HETATM    8  C5  UNL     1      -7.604  13.097  50.675  1.00  0.00     0.262 A
HETATM    9  O3  UNL     1      -7.708  13.340  51.901  1.00  0.00    -0.267 OA
ENDROOT
BRANCH   5  10
HETATM   10  S1  UNL     1      -9.516  11.106  47.852  1.00  0.00     0.289 S
HETATM   11  O1  UNL     1     -10.606  11.954  47.268  1.00  0.00    -0.198 OA
HETATM   12  O2  UNL     1      -8.728  10.403  46.771  1.00  0.00    -0.198 OA
BRANCH  10  13
HETATM   13  N4  UNL     1     -10.253   9.916  48.881  1.00  0.00    -0.322 N
ATOM     14  H42 UNL     1     -11.254   9.721  48.898  1.00  0.00     0.169 HD
ATOM     15  H41 UNL     1      -9.550   9.451  49.456  1.00  0.00     0.169 HD
ENDBRANCH  10  13
ENDBRANCH   5  10
BRANCH   1  16
HETATM   16  C1  UNL     1      -5.542  14.461  50.659  1.00  0.00     0.127 C
HETATM   17  N1  UNL     1      -5.689  14.957  51.819  1.00  0.00    -0.387 N
ATOM     18  H12 UNL     1      -4.999  15.538  52.296  1.00  0.00     0.157 HD
ATOM     19  H11 UNL     1      -6.556  14.770  52.322  1.00  0.00     0.157 HD
HETATM   20  N2  UNL     1      -4.313  14.727  49.946  1.00  0.00    -0.082 NA
ENDBRANCH   1  16
TORSDOF 3
ENDMDL