MODEL 3
REMARK VINA RESULT: -6.240374948      2.311      6.023
REMARK  5 active torsions:
REMARK  status: ('A' for Active; 'I' for Inactive)
REMARK    1  A    between atoms: N1_1  and  C1_4
REMARK    2  A    between atoms: N4_10  and  C3_11
REMARK    3  A    between atoms: C3_11  and  C4_12
REMARK    4  A    between atoms: C4_12  and  N6_14
REMARK    5  A    between atoms: N6_14  and  N7_16
ROOT
HETATM    1  C1  UNL     1      -5.505  14.422  50.669  1.00  0.00     0.680 A
HETATM    2  N2  UNL     1      -5.932  13.710  49.610  1.00  0.00    -0.174 N
ATOM      3  H2  UNL     1      -5.249  13.433  48.905  1.00  0.00     0.186 HD
HETATM    4  C2  UNL     1      -7.212  13.345  49.434  1.00  0.00     0.152 A
HETATM    5  N3  UNL     1      -7.936  12.666  48.531  1.00  0.00    -0.282 N
ATOM      6  H3  UNL     1      -7.555  12.245  47.684  1.00  0.00     0.189 HD
HETATM    7  N4  UNL     1      -9.206  12.614  48.884  1.00  0.00    -0.294 N
HETATM    8  C5  UNL     1      -9.376  13.275  50.062  1.00  0.00     0.131 A
HETATM    9  C6  UNL     1      -8.155  13.764  50.470  1.00  0.00     0.095 A
HETATM   10  C7  UNL     1      -7.697  14.491  51.545  1.00  0.00     0.275 A
HETATM   11  O1  UNL     1      -8.501  14.865  52.456  1.00  0.00    -0.267 OA
HETATM   12  N8  UNL     1      -6.388  14.799  51.613  1.00  0.00    -0.155 N
ATOM     13  H8  UNL     1      -6.051  15.338  52.411  1.00  0.00     0.187 HD
ENDROOT
BRANCH   7  14
HETATM   14  C3  UNL     1     -10.317  11.978  48.190  1.00  0.00     0.222 C
BRANCH  14  15
HETATM   15  C4  UNL     1     -10.005  10.571  47.849  1.00  0.00     0.127 C
HETATM   16  N5  UNL     1      -9.087  10.282  46.807  1.00  0.00    -0.084 NA
BRANCH  15  17
HETATM   17  N6  UNL     1     -10.549   9.592  48.479  1.00  0.00    -0.296 N
ATOM     18  H6  UNL     1     -10.798   8.752  47.954  1.00  0.00     0.187 HD
BRANCH  17  19
HETATM   19  N7  UNL     1     -10.815   9.626  49.850  1.00  0.00    -0.344 N
ATOM     20  H72 UNL     1     -10.017   9.629  50.485  1.00  0.00     0.176 HD
ATOM     21  H71 UNL     1     -11.761   9.648  50.229  1.00  0.00     0.176 HD
ENDBRANCH  17  19
ENDBRANCH  15  17
ENDBRANCH  14  15
ENDBRANCH   7  14
BRANCH   1  22
HETATM   22  N1  UNL     1      -4.247  14.760  50.805  1.00  0.00    -0.234 N
ATOM     23  H12 UNL     1      -3.565  14.039  51.043  1.00  0.00     0.174 HD
ATOM     24  H11 UNL     1      -3.936  15.723  50.681  1.00  0.00     0.174 HD
ENDBRANCH   1  22
TORSDOF 5
ENDMDL