MODEL 3
REMARK VINA RESULT: -6.302483070      1.438      1.977
REMARK  4 active torsions:
REMARK  status: ('A' for Active; 'I' for Inactive)
REMARK    1  A    between atoms: C2_5  and  O1_6
REMARK    2  A    between atoms: O1_6  and  C3_7
REMARK    3  A    between atoms: C6_13  and  N3_14
REMARK    4  A    between atoms: N5_21  and  N6_22
ROOT
HETATM    1  C3  UNL     1      -7.646  13.492  50.160  1.00  0.00     0.165 A
HETATM    2  C4  UNL     1      -7.283  14.182  51.318  1.00  0.00     0.131 A
HETATM    3  C5  UNL     1      -6.005  14.645  51.465  1.00  0.00     0.263 A
HETATM    4  O2  UNL     1      -5.698  15.267  52.521  1.00  0.00    -0.268 OA
HETATM    5  N2  UNL     1      -5.073  14.458  50.524  1.00  0.00    -0.156 N
ATOM      6  H2  UNL     1      -4.122  14.808  50.643  1.00  0.00     0.187 HD
HETATM    7  C6  UNL     1      -5.440  13.788  49.407  1.00  0.00     0.680 A
HETATM    8  N4  UNL     1      -6.692  13.324  49.245  1.00  0.00    -0.171 N
ATOM      9  H4  UNL     1      -6.920  12.823  48.385  1.00  0.00     0.186 HD
ENDROOT
BRANCH   1  10
HETATM   10  O1  UNL     1      -8.942  13.027  50.021  1.00  0.00    -0.296 OA
BRANCH  10  11
HETATM   11  C2  UNL     1      -9.964  13.662  49.367  1.00  0.00     0.339 C
HETATM   12  C1  UNL     1     -10.332  13.001  48.064  1.00  0.00     0.150 C
HETATM   13  N1  UNL     1     -10.138  11.780  47.711  1.00  0.00    -0.384 N
HETATM   14  N5  UNL     1     -10.942  14.048  47.319  1.00  0.00    -0.259 N
ATOM     15  H12 UNL     1      -9.700  11.029  48.246  1.00  0.00     0.157 HD
ATOM     16  H11 UNL     1     -10.388  11.333  46.830  1.00  0.00     0.157 HD
HETATM   17  C7  UNL     1     -10.451  15.277  47.897  1.00  0.00     0.321 C
HETATM   18  O3  UNL     1      -9.687  14.967  48.979  1.00  0.00    -0.333 OA
BRANCH  14  19
HETATM   19  N6  UNL     1     -11.831  13.868  46.256  1.00  0.00    -0.340 N
ATOM     20  H62 UNL     1     -12.802  13.559  46.275  1.00  0.00     0.177 HD
ATOM     21  H61 UNL     1     -11.612  14.030  45.273  1.00  0.00     0.177 HD
ENDBRANCH  14  19
ENDBRANCH  10  11
ENDBRANCH   1  10
BRANCH   7  22
HETATM   22  N3  UNL     1      -4.536  13.596  48.473  1.00  0.00    -0.234 N
ATOM     23  H32 UNL     1      -3.624  13.209  48.713  1.00  0.00     0.174 HD
ATOM     24  H31 UNL     1      -4.774  13.844  47.513  1.00  0.00     0.174 HD
ENDBRANCH   7  22
TORSDOF 4
ENDMDL