MODEL 3
REMARK VINA RESULT: -6.204600486      0.774      2.199
REMARK  7 active torsions:
REMARK  status: ('A' for Active; 'I' for Inactive)
REMARK    1  A    between atoms: N1_1  and  N2_4
REMARK    2  A    between atoms: N2_4  and  C1_6
REMARK    3  A    between atoms: C1_6  and  C2_7
REMARK    4  A    between atoms: C1_6  and  N8_23
REMARK    5  A    between atoms: C2_7  and  N3_8
REMARK    6  A    between atoms: N3_8  and  C3_10
REMARK    7  A    between atoms: N8_23  and  N9_25
ROOT
HETATM    1  N3  UNL     1      -7.446  12.847  49.523  1.00  0.00    -0.367 N
ATOM      2  H3  UNL     1      -7.074  12.402  48.683  1.00  0.00     0.161 HD
ENDROOT
BRANCH   1   3
HETATM    3  C2  UNL     1      -6.877  14.117  49.789  1.00  0.00     0.200 C
BRANCH   3   4
HETATM    4  C1  UNL     1      -5.403  14.157  49.854  1.00  0.00     0.127 C
BRANCH   4   5
HETATM    5  N2  UNL     1      -4.798  14.503  50.924  1.00  0.00    -0.293 N
ATOM      6  H2  UNL     1      -3.807  14.280  51.017  1.00  0.00     0.187 HD
BRANCH   5   7
HETATM    7  N1  UNL     1      -5.421  15.161  51.953  1.00  0.00    -0.344 N
ATOM      8  H12 UNL     1      -6.427  15.024  52.058  1.00  0.00     0.176 HD
ATOM      9  H11 UNL     1      -4.924  15.769  52.604  1.00  0.00     0.176 HD
ENDBRANCH   5   7
ENDBRANCH   4   5
BRANCH   4  10
HETATM   10  N8  UNL     1      -4.650  13.830  48.717  1.00  0.00    -0.293 N
ATOM     11  H8  UNL     1      -3.693  13.494  48.818  1.00  0.00     0.187 HD
BRANCH  10  12
HETATM   12  N9  UNL     1      -5.209  13.964  47.456  1.00  0.00    -0.344 N
ATOM     13  H92 UNL     1      -6.108  14.435  47.361  1.00  0.00     0.176 HD
ATOM     14  H91 UNL     1      -4.721  13.594  46.641  1.00  0.00     0.176 HD
ENDBRANCH  10  12
ENDBRANCH   4  10
ENDBRANCH   3   4
ENDBRANCH   1   3
BRANCH   1  15
HETATM   15  C3  UNL     1      -8.309  12.163  50.108  1.00  0.00     0.133 A
HETATM   16  N4  UNL     1      -8.523  12.208  51.426  1.00  0.00    -0.337 N
HETATM   17  C4  UNL     1      -9.480  11.438  52.005  1.00  0.00     0.183 A
ATOM     18  H4  UNL     1      -7.959  12.829  52.006  1.00  0.00     0.168 HD
HETATM   19  N5  UNL     1     -10.230  10.613  51.245  1.00  0.00    -0.337 N
HETATM   20  C5  UNL     1     -10.060  10.522  49.906  1.00  0.00     0.138 A
ATOM     21  H5  UNL     1     -10.945  10.040  51.693  1.00  0.00     0.168 HD
HETATM   22  N6  UNL     1     -10.620   9.827  48.904  1.00  0.00    -0.337 N
HETATM   23  C7  UNL     1      -9.090  11.304  49.324  1.00  0.00     0.122 A
HETATM   24  C6  UNL     1     -10.042  10.140  47.731  1.00  0.00     0.182 A
ATOM     25  H6  UNL     1     -11.379   9.154  49.017  1.00  0.00     0.168 HD
HETATM   26  N7  UNL     1      -9.102  11.051  48.005  1.00  0.00    -0.346 N
ATOM     27  H7  UNL     1      -8.489  11.487  47.317  1.00  0.00     0.167 HD
ENDBRANCH   1  15
TORSDOF 7
ENDMDL