MODEL 5
REMARK VINA RESULT: -5.376420073      2.721      4.012
REMARK  4 active torsions:
REMARK  status: ('A' for Active; 'I' for Inactive)
REMARK    1  A    between atoms: O1_2  and  S1_3
REMARK    2  A    between atoms: S1_3  and  N1_5
REMARK    3  A    between atoms: S1_3  and  C2_10
REMARK    4  A    between atoms: N1_5  and  N2_7
ROOT
HETATM    1  C2  UNL     1      -7.712  13.756  51.357  1.00  0.00     0.194 A
HETATM    2  N3  UNL     1      -6.862  14.579  52.037  1.00  0.00    -0.283 N
ATOM      3  H3  UNL     1      -7.155  14.935  52.946  1.00  0.00     0.188 HD
HETATM    4  N4  UNL     1      -5.679  14.939  51.575  1.00  0.00    -0.250 N
ATOM      5  H4  UNL     1      -5.068  15.557  52.110  1.00  0.00     0.192 HD
HETATM    6  C3  UNL     1      -5.307  14.461  50.375  1.00  0.00     0.340 A
HETATM    7  O3  UNL     1      -4.167  14.807  49.931  1.00  0.00    -0.245 OA
HETATM    8  N5  UNL     1      -6.113  13.651  49.675  1.00  0.00    -0.291 N
ATOM      9  H5  UNL     1      -5.797  13.309  48.768  1.00  0.00     0.172 HD
HETATM   10  C4  UNL     1      -7.343  13.265  50.130  1.00  0.00     0.144 A
HETATM   11  N6  UNL     1      -8.047  12.504  49.377  1.00  0.00    -0.383 N
ATOM     12  H61 UNL     1      -7.772  12.139  48.465  1.00  0.00     0.157 HD
ATOM     13  H62 UNL     1      -8.965  12.216  49.717  1.00  0.00     0.157 HD
ENDROOT
BRANCH   1  14
HETATM   14  S1  UNL     1      -9.251  13.362  52.075  1.00  0.00     0.212 S
HETATM   15  O2  UNL     1     -10.288  13.301  51.006  1.00  0.00    -0.213 OA
BRANCH  14  16
HETATM   16  O1  UNL     1      -9.642  14.366  53.351  1.00  0.00    -0.290 OA
HETATM   17  C1  UNL     1     -10.891  14.075  53.882  1.00  0.00     0.224 C
ENDBRANCH  14  16
BRANCH  14  18
HETATM   18  N1  UNL     1      -9.151  11.855  52.609  1.00  0.00    -0.240 N
ATOM     19  H1  UNL     1      -8.620  11.603  53.443  1.00  0.00     0.198 HD
BRANCH  18  20
HETATM   20  N2  UNL     1      -9.843  10.914  51.850  1.00  0.00    -0.336 N
ATOM     21  H22 UNL     1     -10.111  10.008  52.236  1.00  0.00     0.177 HD
ATOM     22  H21 UNL     1     -10.054  11.200  50.894  1.00  0.00     0.177 HD
ENDBRANCH  18  20
ENDBRANCH  14  18
ENDBRANCH   1  14
TORSDOF 4
ENDMDL