MODEL 3
REMARK VINA RESULT: -6.303436986      1.972      3.910
REMARK  4 active torsions:
REMARK  status: ('A' for Active; 'I' for Inactive)
REMARK    1  A    between atoms: N1_2  and  C2_4
REMARK    2  A    between atoms: C5_10  and  C6_11
REMARK    3  A    between atoms: C6_11  and  N3_12
REMARK    4  A    between atoms: C7_18  and  N5_19
REMARK       I    between atoms: N5_19  and  C8_21
REMARK       I    between atoms: C8_21  and  N6_22
REMARK       I    between atoms: C8_21  and  N7_26
ROOT
HETATM    1  C2  UNL     1      -8.634  12.074  49.127  1.00  0.00     0.148 C
HETATM    2  N2  UNL     1      -9.742  12.158  49.893  1.00  0.00    -0.307 N
ATOM      3  H2  UNL     1     -10.592  11.770  49.484  1.00  0.00     0.170 HD
HETATM    4  C3  UNL     1      -9.877  12.691  51.139  1.00  0.00     0.248 C
HETATM    5  O1  UNL     1     -10.890  12.327  51.761  1.00  0.00    -0.268 OA
HETATM    6  C4  UNL     1      -9.011  13.587  51.783  1.00  0.00     0.101 C
HETATM    7  C5  UNL     1      -7.731  13.933  51.422  1.00  0.00     0.041 C
HETATM    8  N4  UNL     1      -7.024  13.484  50.358  1.00  0.00    -0.341 N
ATOM      9  H4  UNL     1      -6.019  13.655  50.385  1.00  0.00     0.167 HD
HETATM   10  C7  UNL     1      -7.483  12.840  49.270  1.00  0.00     0.149 C
ENDROOT
BRANCH  10  11
HETATM   11  N5  UNL     1      -6.771  12.945  48.230  1.00  0.00    -0.324 N
HETATM   12  C8  UNL     1      -5.781  13.935  47.931  1.00  0.00     0.481 C
HETATM   13  N6  UNL     1      -5.645  13.949  46.465  1.00  0.00    -0.033 N
HETATM   14  N7  UNL     1      -4.525  13.513  48.530  1.00  0.00    -0.033 N
ATOM     15  H63 UNL     1      -5.436  13.033  46.068  1.00  0.00     0.278 HD
ATOM     16  H62 UNL     1      -6.528  14.098  45.977  1.00  0.00     0.278 HD
ATOM     17  H61 UNL     1      -4.939  14.654  46.252  1.00  0.00     0.278 HD
ATOM     18  H73 UNL     1      -4.606  13.328  49.529  1.00  0.00     0.278 HD
ATOM     19  H72 UNL     1      -4.244  12.576  48.240  1.00  0.00     0.278 HD
ATOM     20  H71 UNL     1      -3.819  14.218  48.317  1.00  0.00     0.278 HD
ATOM     21  H5  UNL     1      -6.920  12.234  47.515  1.00  0.00     0.165 HD
ENDBRANCH  10  11
BRANCH   1  22
HETATM   22  N1  UNL     1      -8.651  11.200  48.178  1.00  0.00    -0.378 N
HETATM   23  C1  UNL     1      -9.848  10.483  47.874  1.00  0.00     0.148 C
ATOM     24  H1  UNL     1      -7.803  11.021  47.641  1.00  0.00     0.160 HD
ENDBRANCH   1  22
BRANCH   7  25
HETATM   25  C6  UNL     1      -7.039  14.907  52.291  1.00  0.00     0.286 C
BRANCH  25  26
HETATM   26  N3  UNL     1      -5.646  15.087  51.897  1.00  0.00    -0.074 N
ATOM     27  H33 UNL     1      -5.366  14.403  51.194  1.00  0.00     0.274 HD
ATOM     28  H32 UNL     1      -5.522  15.938  51.349  1.00  0.00     0.274 HD
ATOM     29  H31 UNL     1      -5.021  15.070  52.703  1.00  0.00     0.274 HD
ENDBRANCH  25  26
ENDBRANCH   7  25
TORSDOF 4
ENDMDL