MODEL 2
REMARK VINA RESULT: -5.994621968      1.943      5.790
REMARK  5 active torsions:
REMARK  status: ('A' for Active; 'I' for Inactive)
REMARK    1  A    between atoms: N1_1  and  C1_5
REMARK    2  A    between atoms: C1_5  and  O1_6
REMARK    3  A    between atoms: C1_5  and  C2_8
REMARK    4  A    between atoms: C2_8  and  N2_9
REMARK    5  A    between atoms: N2_9  and  C3_11
ROOT
HETATM    1  C3  UNL     1      -8.041  12.616  50.008  1.00  0.00     0.132 A
HETATM    2  N3  UNL     1      -8.118  12.814  51.326  1.00  0.00    -0.337 N
ATOM      3  H3  UNL     1      -7.528  13.520  51.766  1.00  0.00     0.168 HD
HETATM    4  C4  UNL     1      -8.970  12.086  52.087  1.00  0.00     0.182 A
HETATM    5  N4  UNL     1      -9.765  11.147  51.553  1.00  0.00    -0.346 N
ATOM      6  H4  UNL     1     -10.397  10.617  52.153  1.00  0.00     0.167 HD
HETATM    7  C5  UNL     1      -9.732  10.901  50.235  1.00  0.00     0.132 A
HETATM    8  C6  UNL     1     -10.546   9.937  49.681  1.00  0.00     0.275 A
HETATM    9  O2  UNL     1     -11.350   9.240  50.348  1.00  0.00    -0.266 OA
HETATM   10  N5  UNL     1     -10.488   9.717  48.357  1.00  0.00    -0.318 N
ATOM     11  H5  UNL     1     -11.081   9.007  47.926  1.00  0.00     0.169 HD
HETATM   12  C7  UNL     1      -9.639  10.443  47.606  1.00  0.00     0.184 A
HETATM   13  N6  UNL     1      -8.839  11.387  48.134  1.00  0.00    -0.347 N
ATOM     14  H6  UNL     1      -8.211  11.910  47.522  1.00  0.00     0.167 HD
HETATM   15  C8  UNL     1      -8.849  11.656  49.452  1.00  0.00     0.110 A
ENDROOT
BRANCH   1  16
HETATM   16  N2  UNL     1      -7.229  13.312  49.304  1.00  0.00    -0.370 N
ATOM     17  H2  UNL     1      -7.484  13.510  48.336  1.00  0.00     0.161 HD
BRANCH  16  18
HETATM   18  C2  UNL     1      -5.993  13.827  49.786  1.00  0.00     0.182 C
BRANCH  18  19
HETATM   19  C1  UNL     1      -4.958  13.657  48.670  1.00  0.00     0.334 C
BRANCH  19  20
HETATM   20  N1  UNL     1      -5.581  13.916  47.371  1.00  0.00    -0.051 N
ATOM     21  H13 UNL     1      -5.897  13.060  46.916  1.00  0.00     0.277 HD
ATOM     22  H12 UNL     1      -6.488  14.373  47.462  1.00  0.00     0.277 HD
ATOM     23  H11 UNL     1      -4.937  14.449  46.788  1.00  0.00     0.277 HD
ENDBRANCH  19  20
BRANCH  19  24
HETATM   24  O1  UNL     1      -3.893  14.523  48.846  1.00  0.00    -0.369 OA
ATOM     25  H1  UNL     1      -3.234  14.349  48.185  1.00  0.00     0.212 HD
ENDBRANCH  19  24
ENDBRANCH  18  19
ENDBRANCH  16  18
ENDBRANCH   1  16
TORSDOF 5
ENDMDL