MODEL 3
REMARK VINA RESULT: -5.989124650      1.696      3.558
REMARK  5 active torsions:
REMARK  status: ('A' for Active; 'I' for Inactive)
REMARK    1  A    between atoms: N1_1  and  N2_4
REMARK    2  A    between atoms: C1_6  and  N3_7
REMARK    3  A    between atoms: C1_6  and  C2_12
REMARK    4  A    between atoms: N3_7  and  N4_9
REMARK    5  A    between atoms: C5_21  and  N7_22
ROOT
HETATM    1  C2  UNL     1      -7.205  13.542  50.587  1.00  0.00     0.122 A
HETATM    2  N5  UNL     1      -7.706  13.741  51.838  1.00  0.00    -0.303 N
ATOM      3  H5  UNL     1      -7.075  14.052  52.577  1.00  0.00     0.171 HD
HETATM    4  C3  UNL     1      -8.998  13.542  52.132  1.00  0.00     0.327 A
HETATM    5  O1  UNL     1      -9.427  13.742  53.328  1.00  0.00    -0.247 OA
HETATM    6  N6  UNL     1      -9.817  13.130  51.150  1.00  0.00    -0.273 N
ATOM      7  H6  UNL     1     -10.801  12.978  51.370  1.00  0.00     0.173 HD
HETATM    8  C4  UNL     1      -9.403  12.910  49.900  1.00  0.00     0.284 A
HETATM    9  O2  UNL     1     -10.144  12.529  48.973  1.00  0.00    -0.265 OA
HETATM   10  C5  UNL     1      -8.040  13.124  49.604  1.00  0.00     0.201 A
ENDROOT
BRANCH   1  11
HETATM   11  C1  UNL     1      -5.819  13.838  50.356  1.00  0.00     0.164 C
HETATM   12  N2  UNL     1      -5.130  14.659  51.097  1.00  0.00    -0.289 N
ATOM     13  H2  UNL     1      -4.144  14.786  50.868  1.00  0.00     0.188 HD
BRANCH  12  14
HETATM   14  N1  UNL     1      -5.629  15.365  52.160  1.00  0.00    -0.344 N
ATOM     15  H12 UNL     1      -6.440  15.954  51.973  1.00  0.00     0.176 HD
ATOM     16  H11 UNL     1      -5.252  15.339  53.107  1.00  0.00     0.176 HD
ENDBRANCH  12  14
BRANCH  11  17
HETATM   17  N3  UNL     1      -5.001  13.264  49.318  1.00  0.00    -0.289 N
ATOM     18  H3  UNL     1      -4.953  12.248  49.234  1.00  0.00     0.188 HD
BRANCH  17  19
HETATM   19  N4  UNL     1      -4.286  14.034  48.439  1.00  0.00    -0.344 N
ATOM     20  H42 UNL     1      -4.274  15.043  48.592  1.00  0.00     0.176 HD
ATOM     21  H41 UNL     1      -3.775  13.632  47.653  1.00  0.00     0.176 HD
ENDBRANCH  17  19
ENDBRANCH  11  17
ENDBRANCH   1  11
BRANCH  10  22
HETATM   22  N7  UNL     1      -7.578  12.910  48.287  1.00  0.00    -0.107 N
HETATM   23  O3  UNL     1      -7.536  11.730  47.874  1.00  0.00    -0.531 OA
HETATM   24  O4  UNL     1      -7.219  13.875  47.388  1.00  0.00    -0.531 OA
ENDBRANCH  10  22
TORSDOF 5
ENDMDL