MODEL 3
REMARK VINA RESULT: -5.054924346     10.704     12.203
REMARK  5 active torsions:
REMARK  status: ('A' for Active; 'I' for Inactive)
REMARK    1  A    between atoms: C2_2  and  O1_3
REMARK    2  A    between atoms: O1_3  and  N1_4
REMARK    3  A    between atoms: N1_4  and  C4_6
REMARK       I    between atoms: N2_7  and  C5_9
REMARK       I    between atoms: C5_9  and  N4_14
REMARK    4  A    between atoms: N3_10  and  O2_12
REMARK    5  A    between atoms: N4_14  and  C6_16
ROOT
HETATM    1  C4  UNL     1     -15.814  15.067 -12.433  1.00  0.00     0.224 C
HETATM    2  N2  UNL     1     -16.880  15.685 -12.201  1.00  0.00    -0.184 N
ATOM      3  H2  UNL     1     -17.543  15.325 -11.515  1.00  0.00     0.185 HD
HETATM    4  C5  UNL     1     -17.161  16.900 -12.906  1.00  0.00     0.701 C
HETATM    5  N3  UNL     1     -16.380  17.876 -13.017  1.00  0.00    -0.099 N
ATOM      6  H3  UNL     1     -16.709  18.668 -13.570  1.00  0.00     0.213 HD
HETATM    7  N4  UNL     1     -18.453  16.865 -13.531  1.00  0.00    -0.186 N
ATOM      8  H4  UNL     1     -18.860  15.981 -13.837  1.00  0.00     0.181 HD
ENDROOT
BRANCH   5   9
HETATM    9  O2  UNL     1     -15.162  17.979 -12.484  1.00  0.00    -0.276 OA
ATOM     10  H2  UNL     1     -14.596  18.740 -12.516  1.00  0.00     0.245 HD
ENDBRANCH   5   9
BRANCH   7  11
HETATM   11  C6  UNL     1     -19.149  18.081 -13.714  1.00  0.00     0.193 C
HETATM   12  C7  UNL     1     -20.319  18.037 -14.682  1.00  0.00     0.100 C
HETATM   13  C8  UNL     1     -19.664  19.309 -15.117  1.00  0.00     0.135 C
HETATM   14  C9  UNL     1     -20.045  20.513 -14.268  1.00  0.00     0.085 C
HETATM   15  O3  UNL     1     -18.438  18.892 -14.641  1.00  0.00    -0.349 OA
HETATM   16  C10 UNL     1     -20.051  20.078 -12.848  1.00  0.00     0.036 C
HETATM   17 CL1  UNL     1     -20.657  21.081 -11.528  1.00  0.00    -0.087 Cl
HETATM   18  C11 UNL     1     -19.613  18.840 -12.546  1.00  0.00     0.085 C
HETATM   19 CL2  UNL     1     -19.679  18.193 -10.945  1.00  0.00    -0.082 Cl
ENDBRANCH   7  11
BRANCH   1  20
HETATM   20  N1  UNL     1     -15.645  13.823 -11.707  1.00  0.00    -0.258 N
HETATM   21  C3  UNL     1     -16.009  13.873 -10.276  1.00  0.00     0.186 C
BRANCH  20  22
HETATM   22  O1  UNL     1     -15.325  12.738 -12.362  1.00  0.00    -0.278 OA
BRANCH  22  23
HETATM   23  C2  UNL     1     -16.487  12.048 -12.778  1.00  0.00     0.197 C
HETATM   24  C1  UNL     1     -16.396  10.713 -12.070  1.00  0.00     0.036 C
ENDBRANCH  22  23
ENDBRANCH  20  22
ENDBRANCH   1  20
TORSDOF 5
ENDMDL