MODEL 1
REMARK VINA RESULT: -5.818825900      0.000      0.000
REMARK  5 active torsions:
REMARK  status: ('A' for Active; 'I' for Inactive)
REMARK       I    between atoms: N2_7  and  C4_9
REMARK       I    between atoms: C4_9  and  N4_13
REMARK    1  A    between atoms: N4_13  and  C5_15
REMARK    2  A    between atoms: C8_18  and  C9_19
REMARK    3  A    between atoms: C9_19  and  O3_21
REMARK    4  A    between atoms: O3_21  and  C10_22
REMARK    5  A    between atoms: C10_22  and  C11_23
ROOT
HETATM    1  C1  UNL     1     -23.926  15.983 -21.930  1.00  0.00     0.071 C
HETATM    2  C2  UNL     1     -23.225  14.675 -21.996  1.00  0.00     0.049 A
HETATM    3  N1  UNL     1     -23.224  13.773 -23.003  1.00  0.00    -0.263 N
ATOM      4  H1  UNL     1     -23.725  13.873 -23.886  1.00  0.00     0.194 HD
HETATM    5  O1  UNL     1     -22.486  12.759 -22.668  1.00  0.00    -0.218 OA
HETATM    6  C3  UNL     1     -21.964  12.886 -21.492  1.00  0.00     0.203 A
HETATM    7  N2  UNL     1     -21.188  12.146 -20.780  1.00  0.00    -0.165 N
ATOM      8  H2  UNL     1     -20.892  12.452 -19.852  1.00  0.00     0.186 HD
HETATM    9  C4  UNL     1     -20.749  10.901 -21.298  1.00  0.00     0.704 C
HETATM   10  N3  UNL     1     -20.059  10.854 -22.419  1.00  0.00    -0.054 N
ATOM     11  H3  UNL     1     -19.755   9.947 -22.774  1.00  0.00     0.218 HD
HETATM   12  F1  UNL     1     -19.746  11.962 -23.108  1.00  0.00    -0.086 F
HETATM   13  N4  UNL     1     -20.972   9.637 -20.706  1.00  0.00    -0.220 N
ATOM     14  H4  UNL     1     -20.249   8.918 -20.740  1.00  0.00     0.178 HD
HETATM   15  C8  UNL     1     -22.423  14.119 -21.025  1.00  0.00     0.117 A
ENDROOT
BRANCH  15  16
HETATM   16  C9  UNL     1     -22.111  14.736 -19.716  1.00  0.00     0.299 C
HETATM   17  O2  UNL     1     -22.982  14.767 -18.814  1.00  0.00    -0.259 OA
BRANCH  16  18
HETATM   18  O3  UNL     1     -20.906  15.277 -19.444  1.00  0.00    -0.317 OA
BRANCH  18  19
HETATM   19  C10 UNL     1     -20.086  16.219 -19.953  1.00  0.00     0.183 C
BRANCH  19  20
HETATM   20  C11 UNL     1     -18.650  15.877 -20.047  1.00  0.00     0.002 C
HETATM   21  C12 UNL     1     -18.482  14.543 -20.842  1.00  0.00     0.011 C
HETATM   22  C13 UNL     1     -17.718  16.821 -20.720  1.00  0.00     0.011 C
ENDBRANCH  19  20
ENDBRANCH  18  19
ENDBRANCH  16  18
ENDBRANCH  15  16
BRANCH  13  23
HETATM   23  C5  UNL     1     -22.227   9.372 -20.056  1.00  0.00     0.091 C
HETATM   24  C6  UNL     1     -21.964   8.411 -18.898  1.00  0.00     0.032 C
HETATM   25  C7  UNL     1     -23.174   8.760 -21.045  1.00  0.00     0.032 C
ENDBRANCH  13  23
TORSDOF 5
ENDMDL