MODEL 5
REMARK VINA RESULT: -6.054054964      3.636      6.084
REMARK  6 active torsions:
REMARK  status: ('A' for Active; 'I' for Inactive)
REMARK    1  A    between atoms: C4_4  and  C5_5
REMARK    2  A    between atoms: N3_13  and  C9_14
REMARK    3  A    between atoms: C12_17  and  N4_18
REMARK    4  A    between atoms: N4_18  and  C13_20
REMARK    5  A    between atoms: C13_20  and  C14_21
REMARK    6  A    between atoms: C14_21  and  C15_22
ROOT
HETATM    1  C5  UNL     1     -22.785  14.225 -20.624  1.00  0.00     0.108 A
HETATM    2  N1  UNL     1     -21.743  15.081 -20.486  1.00  0.00    -0.326 N
ATOM      3  H1  UNL     1     -21.904  16.077 -20.341  1.00  0.00     0.169 HD
HETATM    4  C6  UNL     1     -20.490  14.589 -20.544  1.00  0.00     0.141 A
HETATM    5  C7  UNL     1     -20.276  13.237 -20.741  1.00  0.00     0.122 A
HETATM    6  N2  UNL     1     -18.953  13.085 -20.753  1.00  0.00    -0.346 N
ATOM      7  H2  UNL     1     -18.483  12.189 -20.880  1.00  0.00     0.167 HD
HETATM    8  C8  UNL     1     -18.317  14.241 -20.578  1.00  0.00     0.185 A
HETATM    9  N3  UNL     1     -19.270  15.175 -20.450  1.00  0.00    -0.323 N
HETATM   10  C12 UNL     1     -21.359  12.359 -20.884  1.00  0.00     0.137 A
HETATM   11  N5  UNL     1     -22.584  12.914 -20.816  1.00  0.00    -0.327 N
ATOM     12  H5  UNL     1     -23.398  12.307 -20.916  1.00  0.00     0.169 HD
ENDROOT
BRANCH  10  13
HETATM   13  N4  UNL     1     -21.175  11.123 -21.068  1.00  0.00    -0.354 N
ATOM     14  H4  UNL     1     -21.031  10.600 -20.205  1.00  0.00     0.166 HD
BRANCH  13  15
HETATM   15  C13 UNL     1     -21.129  10.322 -22.223  1.00  0.00     0.071 C
BRANCH  15  16
HETATM   16  C14 UNL     1     -19.718  10.199 -22.786  1.00  0.00     0.162 C
BRANCH  16  17
HETATM   17  C15 UNL     1     -19.574   8.837 -23.458  1.00  0.00     0.392 C
HETATM   18  F1  UNL     1     -20.717   8.107 -23.141  1.00  0.00    -0.171 F
HETATM   19  F2  UNL     1     -19.431   8.947 -24.810  1.00  0.00    -0.171 F
HETATM   20  F3  UNL     1     -18.517   8.199 -22.834  1.00  0.00    -0.171 F
ENDBRANCH  16  17
ENDBRANCH  15  16
ENDBRANCH  13  15
ENDBRANCH  10  13
BRANCH   1  21
HETATM   21  C4  UNL     1     -24.157  14.688 -20.574  1.00  0.00     0.050 C
HETATM   22  C2  UNL     1     -24.891  14.852 -19.517  1.00  0.00    -0.084 C
HETATM   23  C1  UNL     1     -24.427  14.582 -18.144  1.00  0.00     0.043 C
HETATM   24  C3  UNL     1     -26.313  15.353 -19.672  1.00  0.00     0.043 C
ENDBRANCH   1  21
BRANCH   9  25
HETATM   25  C9  UNL     1     -19.053  16.594 -20.253  1.00  0.00     0.084 C
HETATM   26  C10 UNL     1     -19.331  16.879 -18.787  1.00  0.00     0.032 C
HETATM   27  C11 UNL     1     -17.644  17.014 -20.537  1.00  0.00     0.032 C
ENDBRANCH   9  25
TORSDOF 6
ENDMDL