MODEL 2
REMARK VINA RESULT: -6.102694255      5.762      8.445
REMARK  5 active torsions:
REMARK  status: ('A' for Active; 'I' for Inactive)
REMARK    1  A    between atoms: C1_2  and  C2_4
REMARK    2  A    between atoms: C2_4  and  C3_5
REMARK    3  A    between atoms: C3_5  and  O1_6
REMARK    4  A    between atoms: O1_6  and  C4_7
REMARK    5  A    between atoms: C8_17  and  C9_18
ROOT
HETATM    1  C4  UNL     1     -21.269  18.000 -17.176  1.00  0.00     0.158 A
HETATM    2  N1  UNL     1     -22.175  18.670 -16.448  1.00  0.00    -0.332 N
ATOM      3  H1  UNL     1     -22.035  18.743 -15.440  1.00  0.00     0.168 HD
HETATM    4  C5  UNL     1     -23.254  19.247 -16.987  1.00  0.00     0.184 A
HETATM    5  N2  UNL     1     -23.508  19.192 -18.311  1.00  0.00    -0.338 N
ATOM      6  H2  UNL     1     -24.340  19.640 -18.695  1.00  0.00     0.168 HD
HETATM    7  C6  UNL     1     -22.653  18.540 -19.119  1.00  0.00     0.121 A
HETATM    8  N3  UNL     1     -22.660  18.318 -20.464  1.00  0.00    -0.351 N
ATOM      9  H3  UNL     1     -23.362  18.639 -21.131  1.00  0.00     0.166 HD
HETATM   10  C7  UNL     1     -21.565  17.596 -20.740  1.00  0.00     0.098 A
HETATM   11  C8  UNL     1     -20.849  17.349 -19.586  1.00  0.00    -0.019 A
HETATM   12  C13 UNL     1     -21.539  17.945 -18.565  1.00  0.00     0.067 A
ENDROOT
BRANCH   1  13
HETATM   13  O1  UNL     1     -20.162  17.382 -16.754  1.00  0.00    -0.334 OA
BRANCH  13  14
HETATM   14  C3  UNL     1     -19.095  17.702 -16.034  1.00  0.00     0.192 C
BRANCH  14  15
HETATM   15  C2  UNL     1     -19.039  17.838 -14.569  1.00  0.00     0.041 C
HETATM   16  C14 UNL     1     -20.106  17.057 -13.808  1.00  0.00     0.017 C
HETATM   17  C15 UNL     1     -19.102  16.839 -12.709  1.00  0.00     0.002 C
HETATM   18  C16 UNL     1     -18.011  17.323 -13.687  1.00  0.00     0.017 C
BRANCH  15  19
HETATM   19  C1  UNL     1     -19.289  19.349 -14.250  1.00  0.00     0.363 C
HETATM   20  F1  UNL     1     -18.954  20.131 -15.331  1.00  0.00    -0.214 F
HETATM   21  F2  UNL     1     -20.560  19.576 -13.834  1.00  0.00    -0.214 F
ENDBRANCH  15  19
ENDBRANCH  14  15
ENDBRANCH  13  14
ENDBRANCH   1  13
BRANCH  11  22
HETATM   22  C9  UNL     1     -19.586  16.609 -19.483  1.00  0.00     0.048 C
HETATM   23  C10 UNL     1     -19.727  15.205 -20.118  1.00  0.00     0.038 C
HETATM   24  C11 UNL     1     -18.235  14.864 -20.223  1.00  0.00     0.233 C
HETATM   25  N4  UNL     1     -17.619  16.085 -20.703  1.00  0.00    -0.074 N
HETATM   26  C12 UNL     1     -18.571  17.155 -20.508  1.00  0.00     0.241 C
ATOM     27  H42 UNL     1     -16.714  16.272 -20.270  1.00  0.00     0.277 HD
ATOM     28  H41 UNL     1     -17.292  16.013 -21.667  1.00  0.00     0.277 HD
ENDBRANCH  11  22
TORSDOF 5
ENDMDL