MODEL 4
REMARK VINA RESULT: -5.654263332      2.946      6.659
REMARK  5 active torsions:
REMARK  status: ('A' for Active; 'I' for Inactive)
REMARK    1  A    between atoms: C2_2  and  N1_5
REMARK       I    between atoms: N1_5  and  C5_7
REMARK       I    between atoms: C5_7  and  N4_12
REMARK    2  A    between atoms: N4_12  and  N5_14
REMARK    3  A    between atoms: C7_16  and  C8_17
REMARK    4  A    between atoms: C13_22  and  O1_23
REMARK    5  A    between atoms: O1_23  and  C14_24
ROOT
HETATM    1  N1  UNL     1     -22.023  15.861 -19.358  1.00  0.00    -0.216 N
ATOM      2  H1  UNL     1     -22.665  15.244 -18.861  1.00  0.00     0.178 HD
HETATM    3  C5  UNL     1     -20.906  15.258 -19.994  1.00  0.00     0.702 C
HETATM    4  N2  UNL     1     -19.720  15.745 -19.950  1.00  0.00    -0.125 N
ATOM      5  H2  UNL     1     -19.560  16.610 -19.434  1.00  0.00     0.197 HD
HETATM    6  C6  UNL     1     -18.644  15.127 -20.587  1.00  0.00     0.196 C
HETATM    7  N3  UNL     1     -17.744  14.608 -21.126  1.00  0.00    -0.171 NA
HETATM    8  N4  UNL     1     -21.082  14.039 -20.732  1.00  0.00    -0.132 N
ATOM      9  H4  UNL     1     -20.280  13.431 -20.893  1.00  0.00     0.205 HD
ENDROOT
BRANCH   1  10
HETATM   10  C2  UNL     1     -22.323  17.242 -19.351  1.00  0.00     0.036 C
HETATM   11  C1  UNL     1     -21.712  17.899 -18.137  1.00  0.00     0.038 C
HETATM   12  C3  UNL     1     -21.859  18.004 -20.560  1.00  0.00     0.038 C
HETATM   13  C4  UNL     1     -23.825  17.445 -19.247  1.00  0.00     0.038 C
ENDBRANCH   1  10
BRANCH   8  14
HETATM   14  N5  UNL     1     -22.287  13.684 -21.215  1.00  0.00    -0.297 N
HETATM   15  C7  UNL     1     -23.071  12.752 -21.258  1.00  0.00     0.121 C
ATOM     16  H5  UNL     1     -22.684  14.473 -21.724  1.00  0.00     0.186 HD
BRANCH  15  17
HETATM   17  C8  UNL     1     -22.899  11.443 -20.665  1.00  0.00     0.014 A
HETATM   18  C9  UNL     1     -23.694  11.034 -19.635  1.00  0.00     0.015 A
HETATM   19  C10 UNL     1     -23.534   9.776 -19.062  1.00  0.00     0.001 A
HETATM   20  C11 UNL     1     -22.562   8.935 -19.538  1.00  0.00     0.003 A
HETATM   21  C12 UNL     1     -21.747   9.340 -20.585  1.00  0.00     0.038 A
HETATM   22  C13 UNL     1     -21.906  10.571 -21.144  1.00  0.00     0.086 A
BRANCH  22  23
HETATM   23  O1  UNL     1     -21.148  11.032 -22.168  1.00  0.00    -0.289 OA
BRANCH  23  24
HETATM   24  C14 UNL     1     -19.772  10.938 -22.343  1.00  0.00     0.505 C
HETATM   25  F1  UNL     1     -19.338  12.190 -22.784  1.00  0.00    -0.184 F
HETATM   26  F2  UNL     1     -19.540  10.062 -23.416  1.00  0.00    -0.184 F
ENDBRANCH  23  24
ENDBRANCH  22  23
ENDBRANCH  15  17
ENDBRANCH   8  14
TORSDOF 5
ENDMDL