MODEL 3
REMARK VINA RESULT: -6.049250537      9.444     10.929
REMARK  5 active torsions:
REMARK  status: ('A' for Active; 'I' for Inactive)
REMARK    1  A    between atoms: C2_2  and  C3_3
REMARK    2  A    between atoms: C3_3  and  N1_4
REMARK    3  A    between atoms: N1_4  and  C4_6
REMARK    4  A    between atoms: C6_8  and  C7_9
REMARK    5  A    between atoms: C11_15  and  C12_16
ROOT
HETATM    1  C4  UNL     1     -14.855  17.549 -11.686  1.00  0.00     0.132 A
HETATM    2  C5  UNL     1     -15.958  18.077 -12.366  1.00  0.00     0.075 A
HETATM    3  C6  UNL     1     -16.909  17.311 -12.986  1.00  0.00     0.018 A
HETATM    4  N2  UNL     1     -16.752  15.971 -12.921  1.00  0.00    -0.342 N
ATOM      5  H2  UNL     1     -17.431  15.352 -13.363  1.00  0.00     0.167 HD
HETATM    6  C10 UNL     1     -15.696  15.462 -12.269  1.00  0.00     0.160 A
HETATM    7  C11 UNL     1     -15.359  14.143 -12.090  1.00  0.00     0.141 A
HETATM    8  N4  UNL     1     -14.230  14.161 -11.378  1.00  0.00    -0.281 N
ATOM      9  H4  UNL     1     -13.724  13.327 -11.081  1.00  0.00     0.188 HD
HETATM   10  N5  UNL     1     -13.854  15.382 -11.110  1.00  0.00    -0.232 N
ATOM     11  H5  UNL     1     -13.027  15.661 -10.582  1.00  0.00     0.209 HD
HETATM   12  N6  UNL     1     -14.755  16.194 -11.657  1.00  0.00    -0.207 N
ENDROOT
BRANCH   7  13
HETATM   13  C12 UNL     1     -16.024  12.920 -12.538  1.00  0.00     0.315 C
HETATM   14  F1  UNL     1     -15.785  12.665 -13.869  1.00  0.00    -0.204 F
HETATM   15  C13 UNL     1     -17.514  13.070 -12.340  1.00  0.00     0.086 C
HETATM   16  C14 UNL     1     -17.979  11.627 -12.435  1.00  0.00     0.072 C
HETATM   17  C15 UNL     1     -16.719  10.796 -12.282  1.00  0.00     0.372 C
HETATM   18  F2  UNL     1     -16.894   9.739 -11.433  1.00  0.00    -0.219 F
HETATM   19  N3  UNL     1     -15.732  11.747 -11.781  1.00  0.00    -0.001 N
ATOM     20  H32 UNL     1     -14.764  11.429 -11.837  1.00  0.00     0.285 HD
ATOM     21  H31 UNL     1     -15.736  11.876 -10.769  1.00  0.00     0.285 HD
ENDBRANCH   7  13
BRANCH   3  22
HETATM   22  C7  UNL     1     -18.030  17.988 -13.676  1.00  0.00     0.036 A
HETATM   23  C8  UNL     1     -18.886  18.967 -12.970  1.00  0.00     0.011 A
HETATM   24  C9  UNL     1     -19.406  17.584 -13.212  1.00  0.00     0.011 A
ENDBRANCH   3  22
BRANCH   1  25
HETATM   25  N1  UNL     1     -14.009  18.316 -11.134  1.00  0.00    -0.354 N
ATOM     26  H1  UNL     1     -13.225  17.808 -10.726  1.00  0.00     0.166 HD
BRANCH  25  27
HETATM   27  C3  UNL     1     -13.907  19.694 -10.956  1.00  0.00     0.062 C
BRANCH  27  28
HETATM   28  C2  UNL     1     -12.904  20.384 -11.861  1.00  0.00     0.040 C
HETATM   29  C1  UNL     1     -13.150  21.879 -11.910  1.00  0.00     0.010 C
ENDBRANCH  27  28
ENDBRANCH  25  27
ENDBRANCH   1  25
TORSDOF 5
ENDMDL