MODEL 5
REMARK VINA RESULT: -4.888059215      3.944      5.874
REMARK  5 active torsions:
REMARK  status: ('A' for Active; 'I' for Inactive)
REMARK    1  A    between atoms: O1_2  and  C2_3
REMARK    2  A    between atoms: C2_3  and  C3_4
REMARK    3  A    between atoms: C3_4  and  O2_5
REMARK    4  A    between atoms: O2_5  and  C4_6
REMARK    5  A    between atoms: C9_15  and  N2_16
ROOT
HETATM    1  C4  UNL     1     -21.651  14.104 -20.768  1.00  0.00     0.122 A
HETATM    2  C5  UNL     1     -22.777  14.704 -21.291  1.00  0.00     0.115 A
HETATM    3 BR1  UNL     1     -23.246  16.501 -20.868  1.00  0.00    -0.028 Br
HETATM    4  N1  UNL     1     -23.407  13.819 -22.090  1.00  0.00    -0.347 N
ATOM      5  H1  UNL     1     -24.269  14.000 -22.605  1.00  0.00     0.167 HD
HETATM    6  C6  UNL     1     -22.712  12.642 -22.101  1.00  0.00     0.056 A
HETATM    7  C7  UNL     1     -22.981  11.472 -22.770  1.00  0.00     0.076 A
HETATM    8  C8  UNL     1     -22.257  10.328 -22.747  1.00  0.00     0.151 A
HETATM    9  F1  UNL     1     -22.686   9.244 -23.491  1.00  0.00    -0.203 F
HETATM   10  C9  UNL     1     -21.092  10.107 -22.040  1.00  0.00     0.107 A
HETATM   11  S1  UNL     1     -20.592  11.465 -21.136  1.00  0.00    -0.065 SA
HETATM   12  C10 UNL     1     -21.627  12.805 -21.289  1.00  0.00     0.070 A
ENDROOT
BRANCH   1  13
HETATM   13  O2  UNL     1     -20.682  14.551 -19.919  1.00  0.00    -0.345 OA
BRANCH  13  14
HETATM   14  C3  UNL     1     -19.641  15.432 -20.231  1.00  0.00     0.202 C
BRANCH  14  15
HETATM   15  C2  UNL     1     -18.473  14.656 -20.785  1.00  0.00     0.193 C
BRANCH  15  16
HETATM   16  O1  UNL     1     -17.411  15.424 -21.196  1.00  0.00    -0.394 OA
HETATM   17  C1  UNL     1     -17.448  16.705 -20.721  1.00  0.00     0.201 C
ENDBRANCH  15  16
ENDBRANCH  14  15
ENDBRANCH  13  14
ENDBRANCH   1  13
BRANCH  10  18
HETATM   18  N2  UNL     1     -20.489   8.974 -22.097  1.00  0.00    -0.391 N
ATOM     19  H22 UNL     1     -20.198   8.409 -21.298  1.00  0.00     0.157 HD
ATOM     20  H21 UNL     1     -20.251   8.549 -22.993  1.00  0.00     0.157 HD
ENDBRANCH  10  18
TORSDOF 5
ENDMDL