MODEL 5
REMARK VINA RESULT: -5.917841879      1.348      1.612
REMARK  5 active torsions:
REMARK  status: ('A' for Active; 'I' for Inactive)
REMARK    1  A    between atoms: C2_2  and  C3_3
REMARK    2  A    between atoms: C5_5  and  N1_6
REMARK    3  A    between atoms: N1_6  and  C6_9
REMARK    4  A    between atoms: C10_13  and  N2_14
REMARK    5  A    between atoms: C12_21  and  C13_22
ROOT
HETATM    1  C3  UNL     1     -21.172  10.542 -21.239  1.00  0.00     0.032 C
HETATM    2  C4  UNL     1     -21.805   9.292 -20.698  1.00  0.00     0.043 C
HETATM    3  C5  UNL     1     -23.285   9.411 -20.596  1.00  0.00     0.186 C
HETATM    4  C8  UNL     1     -23.720   9.574 -22.073  1.00  0.00     0.035 C
HETATM    5  C9  UNL     1     -23.338  10.941 -22.478  1.00  0.00     0.028 C
HETATM    6  C10 UNL     1     -22.018  11.454 -22.019  1.00  0.00     0.091 C
ENDROOT
BRANCH   6   7
HETATM    7  N2  UNL     1     -22.256  12.681 -21.307  1.00  0.00    -0.364 N
HETATM    8  C11 UNL     1     -21.339  13.547 -20.969  1.00  0.00     0.161 A
HETATM    9  N3  UNL     1     -20.022  13.557 -21.163  1.00  0.00    -0.279 N
HETATM   10  S1  UNL     1     -21.559  15.052 -20.140  1.00  0.00    -0.032 SA
HETATM   11  N4  UNL     1     -19.337  14.540 -20.747  1.00  0.00    -0.290 N
ATOM     12  H3  UNL     1     -19.567  12.781 -21.643  1.00  0.00     0.189 HD
HETATM   13  C12 UNL     1     -19.929  15.550 -20.123  1.00  0.00     0.141 A
ATOM     14  H4  UNL     1     -18.328  14.554 -20.892  1.00  0.00     0.187 HD
ATOM     15  H2  UNL     1     -23.219  12.891 -21.044  1.00  0.00     0.162 HD
BRANCH  13  16
HETATM   16  C13 UNL     1     -19.284  16.800 -19.571  1.00  0.00     0.289 C
HETATM   17  C14 UNL     1     -17.849  16.778 -20.035  1.00  0.00     0.098 C
HETATM   18  F1  UNL     1     -19.983  17.867 -20.093  1.00  0.00    -0.199 F
HETATM   19  F2  UNL     1     -19.408  16.690 -18.205  1.00  0.00    -0.199 F
ENDBRANCH  13  16
ENDBRANCH   6   7
BRANCH   1  20
HETATM   20  C2  UNL     1     -20.010  10.073 -22.085  1.00  0.00    -0.030 C
HETATM   21  C1  UNL     1     -20.070   9.101 -22.945  1.00  0.00     0.007 C
ENDBRANCH   1  20
BRANCH   3  22
HETATM   22  N1  UNL     1     -23.943   8.261 -20.034  1.00  0.00    -0.071 N
ATOM     23  H12 UNL     1     -24.939   8.423 -19.882  1.00  0.00     0.277 HD
ATOM     24  H11 UNL     1     -24.020   7.496 -20.703  1.00  0.00     0.277 HD
BRANCH  22  25
HETATM   25  C6  UNL     1     -23.263   7.863 -18.824  1.00  0.00     0.228 C
HETATM   26  C7  UNL     1     -23.998   6.625 -18.278  1.00  0.00     0.034 C
ENDBRANCH  22  25
ENDBRANCH   3  22
TORSDOF 5
ENDMDL