MODEL 4
REMARK VINA RESULT: -4.845178918      3.716      5.828
REMARK  7 active torsions:
REMARK  status: ('A' for Active; 'I' for Inactive)
REMARK    1  A    between atoms: C2_2  and  C4_4
REMARK    2  A    between atoms: C2_2  and  C10_20
REMARK    3  A    between atoms: C6_9  and  C7_10
REMARK    4  A    between atoms: C7_10  and  N2_11
REMARK    5  A    between atoms: C7_10  and  C8_15
REMARK    6  A    between atoms: C8_15  and  C9_16
REMARK    7  A    between atoms: C9_16  and  O1_17
ROOT
HETATM    1  C4  UNL     1     -20.126  17.367 -18.312  1.00  0.00     0.137 A
HETATM    2  N1  UNL     1     -19.164  17.419 -17.391  1.00  0.00    -0.331 N
ATOM      3  H1  UNL     1     -18.195  17.143 -17.548  1.00  0.00     0.168 HD
HETATM    4  C5  UNL     1     -19.644  17.882 -16.234  1.00  0.00     0.113 A
HETATM    5 BR1  UNL     1     -18.815  18.212 -14.556  1.00  0.00    -0.028 Br
HETATM    6  C6  UNL     1     -20.986  18.124 -16.495  1.00  0.00     0.119 A
HETATM    7  O2  UNL     1     -21.231  17.803 -17.740  1.00  0.00    -0.296 OA
ENDROOT
BRANCH   6   8
HETATM    8  C7  UNL     1     -21.962  18.672 -15.503  1.00  0.00     0.245 C
BRANCH   8   9
HETATM    9  N2  UNL     1     -23.167  17.848 -15.714  1.00  0.00    -0.069 N
ATOM     10  H23 UNL     1     -23.153  17.291 -16.567  1.00  0.00     0.275 HD
ATOM     11  H22 UNL     1     -23.257  17.060 -15.073  1.00  0.00     0.275 HD
ATOM     12  H21 UNL     1     -23.930  18.524 -15.662  1.00  0.00     0.275 HD
ENDBRANCH   8   9
BRANCH   8  13
HETATM   13  C8  UNL     1     -22.353  20.115 -15.838  1.00  0.00     0.066 C
BRANCH  13  14
HETATM   14  C9  UNL     1     -23.678  20.161 -16.537  1.00  0.00     0.166 C
BRANCH  14  15
HETATM   15  O1  UNL     1     -23.510  19.883 -17.913  1.00  0.00    -0.401 OA
ATOM     16  H1  UNL     1     -24.122  20.397 -18.426  1.00  0.00     0.209 HD
ENDBRANCH  14  15
ENDBRANCH  13  14
ENDBRANCH   8  13
ENDBRANCH   6   8
BRANCH   1  17
HETATM   17  C2  UNL     1     -20.001  16.914 -19.720  1.00  0.00     0.062 C
HETATM   18  C1  UNL     1     -20.684  17.911 -20.645  1.00  0.00     0.028 C
HETATM   19  C3  UNL     1     -20.688  15.553 -19.889  1.00  0.00     0.028 C
BRANCH  17  20
HETATM   20  C10 UNL     1     -18.554  16.834 -20.115  1.00  0.00     0.281 C
HETATM   21  F1  UNL     1     -18.198  17.720 -21.085  1.00  0.00    -0.232 F
HETATM   22 CL1  UNL     1     -18.292  15.154 -20.742  1.00  0.00    -0.088 Cl
ENDBRANCH  17  20
ENDBRANCH   1  17
TORSDOF 7
ENDMDL