MODEL 2
REMARK VINA RESULT: -5.357901057      1.851      3.481
REMARK  5 active torsions:
REMARK  status: ('A' for Active; 'I' for Inactive)
REMARK    1  A    between atoms: N1_2  and  C3_4
REMARK    2  A    between atoms: C4_7  and  N3_8
REMARK    3  A    between atoms: C6_13  and  O1_14
REMARK    4  A    between atoms: O1_14  and  C7_15
REMARK    5  A    between atoms: C7_15  and  C8_16
ROOT
HETATM    1  C3  UNL     1     -15.573  17.536 -11.811  1.00  0.00     0.683 A
HETATM    2  N2  UNL     1     -16.216  18.208 -12.778  1.00  0.00    -0.175 N
ATOM      3  H2  UNL     1     -15.816  19.084 -13.115  1.00  0.00     0.186 HD
HETATM    4  C4  UNL     1     -17.359  17.777 -13.315  1.00  0.00     0.141 A
HETATM    5  C5  UNL     1     -17.942  16.577 -12.880  1.00  0.00     0.129 A
HETATM    6 CL1  UNL     1     -19.507  16.126 -13.580  1.00  0.00    -0.076 Cl
HETATM    7  C6  UNL     1     -17.307  15.877 -11.905  1.00  0.00     0.184 A
HETATM    8  N4  UNL     1     -16.132  16.396 -11.404  1.00  0.00    -0.169 N
ATOM      9  H4  UNL     1     -15.658  15.871 -10.669  1.00  0.00     0.186 HD
ENDROOT
BRANCH   7  10
HETATM   10  O1  UNL     1     -17.742  14.692 -11.387  1.00  0.00    -0.322 OA
BRANCH  10  11
HETATM   11  C7  UNL     1     -17.712  13.410 -11.904  1.00  0.00     0.082 C
HETATM   12  C9  UNL     1     -16.497  13.303 -12.807  1.00  0.00     0.040 C
HETATM   13  C10 UNL     1     -16.206  11.906 -13.263  1.00  0.00     0.003 C
HETATM   14  C11 UNL     1     -16.232  10.892 -12.161  1.00  0.00     0.000 C
HETATM   15  C12 UNL     1     -17.278  11.143 -11.121  1.00  0.00     0.003 C
HETATM   16  C13 UNL     1     -17.373  12.537 -10.628  1.00  0.00     0.040 C
BRANCH  11  17
HETATM   17  C8  UNL     1     -18.850  12.785 -12.572  1.00  0.00     0.153 C
HETATM   18 CL2  UNL     1     -20.471  13.284 -12.072  1.00  0.00    -0.127 Cl
ENDBRANCH  11  17
ENDBRANCH  10  11
ENDBRANCH   7  10
BRANCH   4  19
HETATM   19  N3  UNL     1     -17.980  18.413 -14.239  1.00  0.00    -0.384 N
ATOM     20  H32 UNL     1     -18.989  18.273 -14.288  1.00  0.00     0.157 HD
ATOM     21  H31 UNL     1     -17.509  19.031 -14.900  1.00  0.00     0.157 HD
ENDBRANCH   4  19
BRANCH   1  22
HETATM   22  N1  UNL     1     -14.348  18.012 -11.241  1.00  0.00    -0.226 N
HETATM   23  C1  UNL     1     -13.819  19.301 -11.551  1.00  0.00     0.168 C
HETATM   24  C2  UNL     1     -13.627  17.156 -10.318  1.00  0.00     0.168 C
ENDBRANCH   1  22
TORSDOF 5
ENDMDL