MODEL 5
REMARK VINA RESULT: -5.572960874      1.898      5.304
REMARK  1 active torsions:
REMARK  status: ('A' for Active; 'I' for Inactive)
REMARK       I    between atoms: C1_2  and  N2_4
REMARK       I    between atoms: C2_6  and  N4_8
REMARK    1  A    between atoms: N4_8  and  N5_10
REMARK       I    between atoms: N5_10  and  C3_12
ROOT
HETATM    1  N1  UNL     1      76.852  90.358  20.911  1.00  0.00    -0.040 NA
HETATM    2  C1  UNL     1      76.694  89.009  20.413  1.00  0.00     0.335 C
HETATM    3  O1  UNL     1      76.639  88.037  21.178  1.00  0.00    -0.251 OA
HETATM    4  N2  UNL     1      76.607  88.855  19.028  1.00  0.00    -0.284 N
ATOM      5  H2  UNL     1      76.408  89.671  18.449  1.00  0.00     0.172 HD
HETATM    6  C2  UNL     1      76.770  87.710  18.463  1.00  0.00     0.210 C
HETATM    7  N3  UNL     1      77.049  86.578  19.270  1.00  0.00    -0.062 NA
HETATM    8  N4  UNL     1      76.657  87.609  17.049  1.00  0.00    -0.268 N
ATOM      9  H4  UNL     1      76.333  88.409  16.505  1.00  0.00     0.190 HD
ENDROOT
BRANCH   8  10
HETATM   10  N5  UNL     1      76.987  86.426  16.413  1.00  0.00    -0.241 N
HETATM   11  C3  UNL     1      76.347  85.906  15.264  1.00  0.00     0.303 C
HETATM   12  O2  UNL     1      75.389  86.448  14.660  1.00  0.00    -0.628 OA
HETATM   13  O3  UNL     1      76.778  84.690  14.713  1.00  0.00    -0.628 OA
ATOM     14  H5  UNL     1      77.757  85.882  16.805  1.00  0.00     0.193 HD
ENDBRANCH   8  10
TORSDOF 1
ENDMDL