MODEL 4
REMARK VINA RESULT: -5.333581969      1.802      2.195
REMARK  3 active torsions:
REMARK  status: ('A' for Active; 'I' for Inactive)
REMARK    1  A    between atoms: C3_5  and  C4_6
REMARK    2  A    between atoms: C4_6  and  N2_7
REMARK    3  A    between atoms: N2_7  and  N3_9
ROOT
HETATM    1  C1  UNL     1      77.709  83.785  19.713  1.00  0.00     0.049 C
HETATM    2  C2  UNL     1      77.965  85.012  19.315  1.00  0.00     0.093 A
HETATM    3  N1  UNL     1      78.051  86.059  20.150  1.00  0.00    -0.337 N
ATOM      4  H1  UNL     1      77.928  86.014  21.162  1.00  0.00     0.167 HD
HETATM    5  C3  UNL     1      78.321  87.174  19.458  1.00  0.00     0.125 A
HETATM    6  N4  UNL     1      78.400  86.794  18.162  1.00  0.00    -0.306 N
ATOM      7  H4  UNL     1      78.595  87.425  17.384  1.00  0.00     0.170 HD
HETATM    8  C5  UNL     1      78.188  85.476  18.038  1.00  0.00     0.273 A
HETATM    9  O1  UNL     1      78.176  84.738  17.030  1.00  0.00    -0.266 OA
ENDROOT
BRANCH   5  10
HETATM   10  C4  UNL     1      78.466  88.363  19.979  1.00  0.00     0.155 C
BRANCH  10  11
HETATM   11  N2  UNL     1      77.481  88.883  20.853  1.00  0.00    -0.315 N
ATOM     12  H2  UNL     1      77.299  88.447  21.756  1.00  0.00     0.185 HD
BRANCH  11  13
HETATM   13  N3  UNL     1      76.776  89.996  20.446  1.00  0.00    -0.345 N
ATOM     14  H32 UNL     1      77.089  90.927  20.721  1.00  0.00     0.176 HD
ATOM     15  H31 UNL     1      75.944  89.854  19.872  1.00  0.00     0.176 HD
ENDBRANCH  11  13
ENDBRANCH  10  11
ENDBRANCH   5  10
TORSDOF 3
ENDMDL