MODEL 1
REMARK VINA RESULT: -5.640152896      0.000      0.000
REMARK  3 active torsions:
REMARK  status: ('A' for Active; 'I' for Inactive)
REMARK       I    between atoms: C1_4  and  N3_6
REMARK       I    between atoms: C2_8  and  N5_10
REMARK    1  A    between atoms: C3_12  and  N6_13
REMARK    2  A    between atoms: N6_13  and  N7_14
REMARK    3  A    between atoms: N6_13  and  O1_17
ROOT
HETATM    1  N1  UNL     1      76.987  83.516  15.634  1.00  0.00    -0.373 N
ATOM      2  H11 UNL     1      77.034  83.107  16.568  1.00  0.00     0.158 HD
ATOM      3  H12 UNL     1      77.330  82.968  14.846  1.00  0.00     0.158 HD
HETATM    4  C1  UNL     1      76.496  84.700  15.519  1.00  0.00     0.188 C
HETATM    5  N2  UNL     1      76.431  85.268  14.223  1.00  0.00    -0.064 NA
HETATM    6  N3  UNL     1      76.019  85.463  16.616  1.00  0.00    -0.305 N
ATOM      7  H3  UNL     1      75.016  85.547  16.781  1.00  0.00     0.171 HD
HETATM    8  C2  UNL     1      76.846  86.044  17.398  1.00  0.00     0.195 C
HETATM    9  N4  UNL     1      78.241  85.938  17.184  1.00  0.00    -0.063 NA
HETATM   10  N5  UNL     1      76.382  86.821  18.513  1.00  0.00    -0.323 N
ATOM     11  H5  UNL     1      75.650  86.461  19.127  1.00  0.00     0.169 HD
HETATM   12  C3  UNL     1      76.903  87.973  18.723  1.00  0.00     0.236 C
ENDROOT
BRANCH  12  13
HETATM   13  N6  UNL     1      76.480  88.774  19.806  1.00  0.00    -0.166 N
BRANCH  13  14
HETATM   14  N7  UNL     1      77.189  88.742  21.013  1.00  0.00    -0.318 N
ATOM     15  H72 UNL     1      77.282  87.840  21.479  1.00  0.00     0.179 HD
ATOM     16  H71 UNL     1      77.586  89.602  21.391  1.00  0.00     0.179 HD
ENDBRANCH  13  14
BRANCH  13  17
HETATM   17  O1  UNL     1      75.413  89.584  19.737  1.00  0.00    -0.268 OA
ATOM     18  H1  UNL     1      74.523  89.258  19.670  1.00  0.00     0.247 HD
ENDBRANCH  13  17
ENDBRANCH  12  13
TORSDOF 3
ENDMDL