MODEL 5
REMARK VINA RESULT: -4.684109120      3.622      4.480
REMARK  4 active torsions:
REMARK  status: ('A' for Active; 'I' for Inactive)
REMARK    1  A    between atoms: N1_1  and  N2_4
REMARK    2  A    between atoms: N2_4  and  C1_6
REMARK    3  A    between atoms: C1_6  and  N3_8
REMARK    4  A    between atoms: C2_10  and  C3_11
ROOT
HETATM    1  C1  UNL     1      77.558  87.778  19.034  1.00  0.00     0.190 C
HETATM    2  S1  UNL     1      78.962  88.567  18.856  1.00  0.00    -0.039 SA
ENDROOT
BRANCH   1   3
HETATM    3  N2  UNL     1      76.370  88.345  18.542  1.00  0.00    -0.283 N
ATOM      4  H2  UNL     1      76.050  88.110  17.602  1.00  0.00     0.188 HD
BRANCH   3   5
HETATM    5  N1  UNL     1      75.620  89.229  19.327  1.00  0.00    -0.343 N
ATOM      6  H12 UNL     1      75.775  89.240  20.335  1.00  0.00     0.176 HD
ATOM      7  H11 UNL     1      74.932  89.850  18.901  1.00  0.00     0.176 HD
ENDBRANCH   3   5
ENDBRANCH   1   3
BRANCH   1   8
HETATM    8  N3  UNL     1      77.539  86.527  19.682  1.00  0.00    -0.337 N
HETATM    9  C2  UNL     1      78.117  85.474  19.206  1.00  0.00     0.161 C
ATOM     10  H3  UNL     1      77.044  86.448  20.571  1.00  0.00     0.167 HD
BRANCH   9  11
HETATM   11  C3  UNL     1      78.095  84.192  19.876  1.00  0.00     0.270 C
HETATM   12  N4  UNL     1      78.338  82.998  19.175  1.00  0.00    -0.057 NA
HETATM   13  O1  UNL     1      77.857  84.135  21.096  1.00  0.00    -0.270 OA
ENDBRANCH   9  11
ENDBRANCH   1   8
TORSDOF 4
ENDMDL