MODEL 4
REMARK VINA RESULT: -5.444534837      2.427      4.614
REMARK  2 active torsions:
REMARK  status: ('A' for Active; 'I' for Inactive)
REMARK    1  A    between atoms: N1_1  and  N2_4
REMARK       I    between atoms: N2_4  and  C1_6
REMARK    2  A    between atoms: C1_6  and  C2_8
REMARK       I    between atoms: N4_10  and  C3_12
ROOT
HETATM    1  N2  UNL     1      77.803  84.792  18.005  1.00  0.00    -0.270 N
ATOM      2  H2  UNL     1      77.156  84.563  18.760  1.00  0.00     0.189 HD
HETATM    3  C1  UNL     1      78.353  86.103  17.977  1.00  0.00     0.300 C
HETATM    4  O1  UNL     1      79.150  86.370  17.039  1.00  0.00    -0.263 OA
ENDROOT
BRANCH   3   5
HETATM    5  C2  UNL     1      78.019  87.097  18.978  1.00  0.00     0.190 C
HETATM    6  N3  UNL     1      78.785  87.202  20.157  1.00  0.00    -0.076 NA
HETATM    7  N4  UNL     1      77.031  87.887  18.802  1.00  0.00    -0.295 N
HETATM    8  C3  UNL     1      76.700  88.861  19.776  1.00  0.00     0.334 C
ATOM      9  H4  UNL     1      76.474  87.816  17.950  1.00  0.00     0.171 HD
HETATM   10  N5  UNL     1      75.299  89.109  19.995  1.00  0.00    -0.040 NA
HETATM   11  O2  UNL     1      77.568  89.502  20.441  1.00  0.00    -0.251 OA
ENDBRANCH   3   5
BRANCH   1  12
HETATM   12  N1  UNL     1      78.084  83.811  17.083  1.00  0.00    -0.342 N
ATOM     13  H12 UNL     1      78.096  84.094  16.103  1.00  0.00     0.176 HD
ATOM     14  H11 UNL     1      78.277  82.837  17.317  1.00  0.00     0.176 HD
ENDBRANCH   1  12
TORSDOF 2
ENDMDL