MODEL 1
REMARK VINA RESULT: -6.303244433      0.000      0.000
REMARK  1 active torsions:
REMARK  status: ('A' for Active; 'I' for Inactive)
REMARK       I    between atoms: C1_4  and  N3_6
REMARK    1  A    between atoms: N3_6  and  N4_8
ROOT
HETATM    1  N4  UNL     1      76.239  88.085  18.692  1.00  0.00    -0.289 N
ATOM      2  H4  UNL     1      75.549  88.814  18.510  1.00  0.00     0.187 HD
HETATM    3  C2  UNL     1      77.059  88.230  19.664  1.00  0.00     0.185 A
HETATM    4  C3  UNL     1      78.082  87.493  20.194  1.00  0.00     0.282 A
HETATM    5  O1  UNL     1      78.667  86.384  19.983  1.00  0.00    -0.265 OA
HETATM    6  N5  UNL     1      78.262  88.448  21.093  1.00  0.00    -0.286 N
ATOM      7  H5  UNL     1      78.915  88.565  21.868  1.00  0.00     0.172 HD
HETATM    8  C4  UNL     1      77.249  89.220  20.601  1.00  0.00     0.282 A
HETATM    9  O2  UNL     1      76.721  90.330  20.871  1.00  0.00    -0.265 OA
ENDROOT
BRANCH   1  10
HETATM   10  N3  UNL     1      76.266  86.959  17.881  1.00  0.00    -0.273 N
HETATM   11  C1  UNL     1      76.924  86.892  16.636  1.00  0.00     0.200 C
HETATM   12  N1  UNL     1      76.294  86.762  15.504  1.00  0.00    -0.372 N
HETATM   13  N2  UNL     1      78.340  86.969  16.586  1.00  0.00    -0.062 NA
ATOM     14  H12 UNL     1      76.769  86.714  14.604  1.00  0.00     0.158 HD
ATOM     15  H11 UNL     1      75.275  86.707  15.540  1.00  0.00     0.158 HD
ATOM     16  H3  UNL     1      75.779  86.124  18.207  1.00  0.00     0.189 HD
ENDBRANCH   1  10
TORSDOF 1
ENDMDL