MODEL 4
REMARK VINA RESULT: -6.130605143      1.804      3.503
REMARK  2 active torsions:
REMARK  status: ('A' for Active; 'I' for Inactive)
REMARK    1  A    between atoms: C1_2  and  C2_4
REMARK    2  A    between atoms: C2_4  and  N2_5
ROOT
HETATM    1  C2  UNL     1      77.933  87.906  18.663  1.00  0.00     0.346 A
HETATM    2  N3  UNL     1      76.628  88.232  18.072  1.00  0.00    -0.308 N
ATOM      3  H3  UNL     1      76.208  88.170  17.144  1.00  0.00     0.166 HD
HETATM    4  C3  UNL     1      76.196  88.679  19.382  1.00  0.00     0.295 A
HETATM    5  O2  UNL     1      75.151  89.181  19.820  1.00  0.00    -0.264 OA
HETATM    6  C4  UNL     1      77.505  88.324  19.964  1.00  0.00     0.282 A
HETATM    7  O3  UNL     1      77.950  88.392  21.159  1.00  0.00    -0.282 OA
ENDROOT
BRANCH   1   8
HETATM    8  C1  UNL     1      78.403  86.574  18.314  1.00  0.00     0.296 C
HETATM    9  N1  UNL     1      78.914  86.305  17.017  1.00  0.00    -0.058 NA
HETATM   10  O1  UNL     1      78.378  85.629  19.164  1.00  0.00    -0.271 OA
ENDBRANCH   1   8
BRANCH   1  11
HETATM   11  N2  UNL     1      78.894  88.891  18.073  1.00  0.00    -0.036 N
ATOM     12  H23 UNL     1      79.865  88.586  18.137  1.00  0.00     0.278 HD
ATOM     13  H22 UNL     1      78.837  88.942  17.056  1.00  0.00     0.278 HD
ATOM     14  H21 UNL     1      78.729  89.789  18.526  1.00  0.00     0.278 HD
ENDBRANCH   1  11
TORSDOF 2
ENDMDL