MODEL 2
REMARK VINA RESULT: -6.756782611      1.698      1.945
REMARK  1 active torsions:
REMARK  status: ('A' for Active; 'I' for Inactive)
REMARK       I    between atoms: C1_2  and  N2_4
REMARK    1  A    between atoms: N2_4  and  C2_6
ROOT
HETATM    1  C2  UNL     1      76.705  88.163  19.046  1.00  0.00     0.195 A
HETATM    2  N3  UNL     1      75.778  89.136  19.101  1.00  0.00    -0.266 N
ATOM      3  H3  UNL     1      75.009  89.263  18.442  1.00  0.00     0.190 HD
HETATM    4  N4  UNL     1      76.026  89.894  20.140  1.00  0.00    -0.238 N
ATOM      5  H4  UNL     1      75.466  90.705  20.404  1.00  0.00     0.208 HD
HETATM    6  N5  UNL     1      77.093  89.477  20.805  1.00  0.00    -0.249 N
ATOM      7  H5  UNL     1      77.498  89.888  21.647  1.00  0.00     0.192 HD
HETATM    8  C3  UNL     1      77.530  88.389  20.128  1.00  0.00     0.306 A
HETATM    9  O2  UNL     1      78.534  87.684  20.429  1.00  0.00    -0.262 OA
ENDROOT
BRANCH   1  10
HETATM   10  N2  UNL     1      76.830  87.201  18.179  1.00  0.00    -0.291 N
HETATM   11  C1  UNL     1      77.443  87.471  16.924  1.00  0.00     0.334 C
HETATM   12  N1  UNL     1      78.785  87.940  16.857  1.00  0.00    -0.040 NA
HETATM   13  O1  UNL     1      76.848  87.315  15.822  1.00  0.00    -0.251 OA
ATOM     14  H2  UNL     1      76.493  86.263  18.397  1.00  0.00     0.172 HD
ENDBRANCH   1  10
TORSDOF 1
ENDMDL