MODEL 4
REMARK VINA RESULT: -6.189982185      1.494      4.421
REMARK  2 active torsions:
REMARK  status: ('A' for Active; 'I' for Inactive)
REMARK    1  A    between atoms: N3_4  and  N4_6
REMARK    2  A    between atoms: N4_6  and  C2_8
ROOT
HETATM    1  C2  UNL     1      79.112  87.133  19.012  1.00  0.00     0.722 A
HETATM    2  N5  UNL     1      78.503  86.291  18.148  1.00  0.00    -0.115 N
ATOM      3  H5  UNL     1      77.732  85.664  18.375  1.00  0.00     0.202 HD
HETATM    4  N6  UNL     1      79.071  86.413  16.958  1.00  0.00     0.006 NA
HETATM    5  N7  UNL     1      80.032  87.314  17.045  1.00  0.00     0.006 NA
HETATM    6  N8  UNL     1      80.061  87.755  18.290  1.00  0.00    -0.115 N
ATOM      7  H8  UNL     1      80.705  88.461  18.648  1.00  0.00     0.202 HD
ENDROOT
BRANCH   1   8
HETATM    8  N4  UNL     1      78.833  87.296  20.268  1.00  0.00    -0.128 N
ATOM      9  H4  UNL     1      79.004  86.533  20.923  1.00  0.00     0.205 HD
BRANCH   8  10
HETATM   10  N3  UNL     1      78.310  88.477  20.731  1.00  0.00    -0.262 N
HETATM   11  C1  UNL     1      77.167  88.967  20.401  1.00  0.00     0.216 C
HETATM   12  N1  UNL     1      76.320  88.289  19.488  1.00  0.00    -0.065 NA
HETATM   13  N2  UNL     1      76.696  90.201  20.927  1.00  0.00    -0.065 NA
ATOM     14  H3  UNL     1      78.874  89.011  21.392  1.00  0.00     0.190 HD
ENDBRANCH   8  10
ENDBRANCH   1   8
TORSDOF 2
ENDMDL