MODEL 1
REMARK VINA RESULT: -5.640443935      0.000      0.000
REMARK  1 active torsions:
REMARK  status: ('A' for Active; 'I' for Inactive)
REMARK       I    between atoms: N1_2  and  C2_4
REMARK       I    between atoms: C2_4  and  N2_6
REMARK    1  A    between atoms: N6_13  and  N7_14
ROOT
HETATM    1  C1  UNL     1      76.896  89.668  20.778  1.00  0.00     0.151 C
HETATM    2  N1  UNL     1      76.404  89.084  19.548  1.00  0.00    -0.347 N
ATOM      3  H1  UNL     1      75.409  89.083  19.330  1.00  0.00     0.163 HD
HETATM    4  C2  UNL     1      77.347  88.514  18.657  1.00  0.00     0.322 C
HETATM    5  O1  UNL     1      78.567  88.525  18.944  1.00  0.00    -0.247 OA
HETATM    6  N2  UNL     1      76.830  87.951  17.463  1.00  0.00    -0.277 N
ATOM      7  H2  UNL     1      76.228  88.544  16.893  1.00  0.00     0.173 HD
HETATM    8  C3  UNL     1      77.050  86.782  17.045  1.00  0.00     0.235 C
HETATM    9  N3  UNL     1      77.844  85.775  17.649  1.00  0.00    -0.254 N
ATOM     10  H3  UNL     1      78.189  85.748  18.609  1.00  0.00     0.187 HD
HETATM   11  N4  UNL     1      78.050  84.822  16.637  1.00  0.00    -0.004 NA
HETATM   12  N5  UNL     1      76.863  84.798  15.894  1.00  0.00     0.017 NA
HETATM   13  N6  UNL     1      76.552  86.186  15.858  1.00  0.00    -0.153 N
ENDROOT
BRANCH  13  14
HETATM   14  N7  UNL     1      75.878  86.890  14.857  1.00  0.00    -0.323 N
ATOM     15  H72 UNL     1      76.231  87.173  13.943  1.00  0.00     0.178 HD
ATOM     16  H71 UNL     1      74.913  87.210  14.938  1.00  0.00     0.178 HD
ENDBRANCH  13  14
TORSDOF 1
ENDMDL