MODEL 3
REMARK VINA RESULT: -5.374196808      1.482      1.536
REMARK  2 active torsions:
REMARK  status: ('A' for Active; 'I' for Inactive)
REMARK       I    between atoms: C1_4  and  N3_6
REMARK    1  A    between atoms: N3_6  and  N4_8
REMARK    2  A    between atoms: N4_8  and  N5_9
ROOT
HETATM    1  N4  UNL     1      79.663  89.113  19.554  1.00  0.00     0.004 NA
ENDROOT
BRANCH   1   2
HETATM    2  N3  UNL     1      79.164  89.527  20.763  1.00  0.00    -0.256 N
HETATM    3  C1  UNL     1      77.882  90.080  20.907  1.00  0.00     0.199 C
HETATM    4  N1  UNL     1      77.611  91.295  20.587  1.00  0.00    -0.373 N
HETATM    5  N2  UNL     1      76.849  89.273  21.424  1.00  0.00    -0.063 NA
ATOM      6  H12 UNL     1      76.679  91.696  20.692  1.00  0.00     0.158 HD
ATOM      7  H11 UNL     1      78.358  91.879  20.212  1.00  0.00     0.158 HD
ATOM      8  H3  UNL     1      79.750  89.430  21.592  1.00  0.00     0.187 HD
ENDBRANCH   1   2
BRANCH   1   9
HETATM    9  N5  UNL     1      78.744  88.460  18.758  1.00  0.00    -0.175 N
HETATM   10  C2  UNL     1      78.201  88.831  17.591  1.00  0.00     0.225 A
HETATM   11  N6  UNL     1      77.349  87.899  17.152  1.00  0.00    -0.345 N
HETATM   12  C3  UNL     1      77.350  86.915  18.059  1.00  0.00     0.200 A
ATOM     13  H6  UNL     1      76.802  87.932  16.292  1.00  0.00     0.167 HD
HETATM   14  N7  UNL     1      78.210  87.282  19.026  1.00  0.00    -0.276 N
ATOM     15  H7  UNL     1      78.420  86.727  19.855  1.00  0.00     0.189 HD
ENDBRANCH   1   9
TORSDOF 2
ENDMDL