MODEL 5
REMARK VINA RESULT: -5.212752314      3.049      3.499
REMARK  2 active torsions:
REMARK  status: ('A' for Active; 'I' for Inactive)
REMARK    1  A    between atoms: N2_4  and  N3_6
REMARK       I    between atoms: N3_6  and  C1_8
REMARK       I    between atoms: C1_8  and  N4_10
REMARK       I    between atoms: N4_10  and  C2_12
REMARK    2  A    between atoms: N6_14  and  N7_16
ROOT
HETATM    1  N3  UNL     1      78.441  89.601  17.674  1.00  0.00    -0.237 N
ATOM      2  H3  UNL     1      77.733  90.313  17.491  1.00  0.00     0.193 HD
HETATM    3  C1  UNL     1      78.213  88.268  17.244  1.00  0.00     0.342 C
HETATM    4  O1  UNL     1      79.124  87.420  17.497  1.00  0.00    -0.245 OA
HETATM    5  N4  UNL     1      77.049  87.870  16.570  1.00  0.00    -0.280 N
ATOM      6  H4  UNL     1      76.326  88.562  16.374  1.00  0.00     0.173 HD
HETATM    7  C2  UNL     1      76.853  86.530  16.154  1.00  0.00     0.210 C
HETATM    8  N5  UNL     1      77.877  85.593  16.441  1.00  0.00    -0.062 NA
HETATM    9  N6  UNL     1      75.796  86.138  15.534  1.00  0.00    -0.280 N
ATOM     10  H6  UNL     1      75.046  86.794  15.317  1.00  0.00     0.189 HD
ENDROOT
BRANCH   1  11
HETATM   11  N2  UNL     1      79.598  89.953  18.334  1.00  0.00    -0.245 N
HETATM   12  N1  UNL     1      80.731  89.686  17.849  1.00  0.00    -0.331 N
ATOM     13  H12 UNL     1      80.773  89.202  16.952  1.00  0.00     0.178 HD
ATOM     14  H11 UNL     1      81.587  89.946  18.338  1.00  0.00     0.178 HD
ATOM     15  H2  UNL     1      79.538  90.437  19.230  1.00  0.00     0.208 HD
ENDBRANCH   1  11
BRANCH   9  16
HETATM   16  N7  UNL     1      75.699  84.800  15.168  1.00  0.00    -0.343 N
ATOM     17  H72 UNL     1      74.794  84.329  15.201  1.00  0.00     0.176 HD
ATOM     18  H71 UNL     1      76.545  84.313  14.871  1.00  0.00     0.176 HD
ENDBRANCH   9  16
TORSDOF 2
ENDMDL