MODEL 1
REMARK VINA RESULT: -5.698884549      0.000      0.000
REMARK  2 active torsions:
REMARK  status: ('A' for Active; 'I' for Inactive)
REMARK    1  A    between atoms: N1_1  and  N2_4
REMARK       I    between atoms: N2_4  and  C1_6
REMARK       I    between atoms: C1_6  and  N3_8
REMARK    2  A    between atoms: N5_13  and  O2_15
ROOT
HETATM    1  N2  UNL     1      76.758  89.713  19.180  1.00  0.00    -0.257 N
ATOM      2  H2  UNL     1      76.237  89.631  18.307  1.00  0.00     0.191 HD
HETATM    3  C1  UNL     1      77.585  88.658  19.585  1.00  0.00     0.356 C
HETATM    4  O1  UNL     1      78.199  88.851  20.703  1.00  0.00    -0.244 OA
HETATM    5  N3  UNL     1      77.838  87.444  18.963  1.00  0.00    -0.112 N
HETATM    6  C2  UNL     1      78.632  86.258  19.277  1.00  0.00     0.294 C
HETATM    7  N4  UNL     1      77.597  85.579  18.544  1.00  0.00    -0.207 N
ATOM      8  H4  UNL     1      77.156  84.660  18.560  1.00  0.00     0.179 HD
HETATM    9  C3  UNL     1      77.468  86.796  17.774  1.00  0.00     0.706 C
HETATM   10  N5  UNL     1      77.170  87.059  16.547  1.00  0.00    -0.098 N
ATOM     11  H5  UNL     1      76.937  86.283  15.927  1.00  0.00     0.213 HD
ENDROOT
BRANCH   1  12
HETATM   12  N1  UNL     1      76.632  90.863  19.937  1.00  0.00    -0.341 N
ATOM     13  H12 UNL     1      76.265  90.779  20.885  1.00  0.00     0.177 HD
ATOM     14  H11 UNL     1      76.895  91.777  19.567  1.00  0.00     0.177 HD
ENDBRANCH   1  12
BRANCH  10  15
HETATM   15  O2  UNL     1      77.152  88.320  16.038  1.00  0.00    -0.276 OA
ATOM     16  H2  UNL     1      76.729  89.051  16.473  1.00  0.00     0.245 HD
ENDBRANCH  10  15
TORSDOF 2
ENDMDL