MODEL 2
REMARK VINA RESULT: -5.721668665      1.058      1.609
REMARK  2 active torsions:
REMARK  status: ('A' for Active; 'I' for Inactive)
REMARK       I    between atoms: N1_1  and  C1_4
REMARK       I    between atoms: C1_4  and  N3_6
REMARK    1  A    between atoms: N3_6  and  N4_8
REMARK    2  A    between atoms: N4_8  and  N5_9
ROOT
HETATM    1  N4  UNL     1      78.845  87.814  19.930  1.00  0.00     0.018 NA
ENDROOT
BRANCH   1   2
HETATM    2  N3  UNL     1      79.288  87.695  18.616  1.00  0.00    -0.255 N
HETATM    3  C1  UNL     1      80.135  88.714  18.100  1.00  0.00     0.199 C
HETATM    4  N1  UNL     1      79.974  89.977  18.310  1.00  0.00    -0.373 N
HETATM    5  N2  UNL     1      81.246  88.346  17.294  1.00  0.00    -0.063 NA
ATOM      6  H12 UNL     1      80.581  90.708  17.939  1.00  0.00     0.158 HD
ATOM      7  H11 UNL     1      79.177  90.241  18.889  1.00  0.00     0.158 HD
ATOM      8  H3  UNL     1      79.014  86.900  18.039  1.00  0.00     0.187 HD
ENDBRANCH   1   2
BRANCH   1   9
HETATM    9  N5  UNL     1      78.134  88.997  20.142  1.00  0.00    -0.098 N
HETATM   10  N6  UNL     1      78.287  89.926  21.053  1.00  0.00    -0.262 N
HETATM   11  C2  UNL     1      77.368  90.903  20.880  1.00  0.00     0.215 A
ATOM     12  H6  UNL     1      78.997  89.915  21.787  1.00  0.00     0.190 HD
HETATM   13  N7  UNL     1      76.650  90.507  19.810  1.00  0.00    -0.276 N
HETATM   14  N8  UNL     1      77.121  89.350  19.368  1.00  0.00     0.017 NA
ATOM     15  H7  UNL     1      75.867  91.018  19.405  1.00  0.00     0.185 HD
ENDBRANCH   1   9
TORSDOF 2
ENDMDL