MODEL 5
REMARK VINA RESULT: -5.284893606      1.682      2.115
REMARK  2 active torsions:
REMARK  status: ('A' for Active; 'I' for Inactive)
REMARK       I    between atoms: C1_4  and  N3_6
REMARK    1  A    between atoms: N3_6  and  N4_8
REMARK    2  A    between atoms: N4_8  and  N5_9
ROOT
HETATM    1  N4  UNL     1      79.944  89.165  17.756  1.00  0.00     0.004 NA
ENDROOT
BRANCH   1   2
HETATM    2  N3  UNL     1      79.501  90.192  18.587  1.00  0.00    -0.256 N
HETATM    3  C1  UNL     1      79.062  89.900  19.896  1.00  0.00     0.199 C
HETATM    4  N1  UNL     1      78.140  90.554  20.516  1.00  0.00    -0.373 N
HETATM    5  N2  UNL     1      79.667  88.822  20.583  1.00  0.00    -0.063 NA
ATOM      6  H12 UNL     1      77.823  90.344  21.463  1.00  0.00     0.158 HD
ATOM      7  H11 UNL     1      77.704  91.332  20.021  1.00  0.00     0.158 HD
ATOM      8  H3  UNL     1      79.493  91.154  18.249  1.00  0.00     0.187 HD
ENDBRANCH   1   2
BRANCH   1   9
HETATM    9  N5  UNL     1      78.953  88.165  17.681  1.00  0.00    -0.175 N
HETATM   10  C2  UNL     1      77.726  88.233  17.137  1.00  0.00     0.225 A
HETATM   11  N6  UNL     1      77.076  87.062  17.264  1.00  0.00    -0.345 N
HETATM   12  C3  UNL     1      77.929  86.247  17.908  1.00  0.00     0.200 A
ATOM     13  H6  UNL     1      76.134  86.841  16.941  1.00  0.00     0.167 HD
HETATM   14  N7  UNL     1      79.061  86.934  18.152  1.00  0.00    -0.276 N
ATOM     15  H7  UNL     1      79.882  86.560  18.630  1.00  0.00     0.189 HD
ENDBRANCH   1   9
TORSDOF 2
ENDMDL