MODEL 5
REMARK VINA RESULT: -5.183541330      0.950      1.400
REMARK  3 active torsions:
REMARK  status: ('A' for Active; 'I' for Inactive)
REMARK       I    between atoms: C1_4  and  N3_6
REMARK    1  A    between atoms: N3_6  and  N4_8
REMARK       I    between atoms: N4_8  and  C2_10
REMARK    2  A    between atoms: C2_10  and  C3_12
REMARK    3  A    between atoms: N5_13  and  O2_15
ROOT
HETATM    1  N4  UNL     1      77.917  87.478  19.029  1.00  0.00    -0.263 N
ATOM      2  H4  UNL     1      77.392  86.643  19.286  1.00  0.00     0.190 HD
HETATM    3  C2  UNL     1      78.011  87.843  17.686  1.00  0.00     0.277 C
HETATM    4  O1  UNL     1      78.622  88.846  17.276  1.00  0.00    -0.265 OA
ENDROOT
BRANCH   1   5
HETATM    5  N3  UNL     1      78.528  88.235  20.027  1.00  0.00    -0.271 N
HETATM    6  C1  UNL     1      78.074  89.494  20.468  1.00  0.00     0.200 C
HETATM    7  N1  UNL     1      78.564  90.593  20.018  1.00  0.00    -0.372 N
HETATM    8  N2  UNL     1      77.039  89.577  21.440  1.00  0.00    -0.062 NA
ATOM      9  H12 UNL     1      78.235  91.504  20.337  1.00  0.00     0.158 HD
ATOM     10  H11 UNL     1      79.306  90.534  19.321  1.00  0.00     0.158 HD
ATOM     11  H3  UNL     1      79.364  87.851  20.469  1.00  0.00     0.189 HD
ENDBRANCH   1   5
BRANCH   3  12
HETATM   12  C3  UNL     1      77.350  87.014  16.643  1.00  0.00     0.189 C
HETATM   13  N5  UNL     1      76.689  87.566  15.698  1.00  0.00    -0.275 N
ATOM     14  H5  UNL     1      76.606  88.582  15.653  1.00  0.00     0.193 HD
BRANCH  13  15
HETATM   15  O2  UNL     1      76.094  86.782  14.752  1.00  0.00    -0.290 OA
ATOM     16  H2  UNL     1      76.349  86.878  13.842  1.00  0.00     0.244 HD
ENDBRANCH  13  15
ENDBRANCH   3  12
TORSDOF 3
ENDMDL