MODEL 4
REMARK VINA RESULT: -6.303830893      1.809      3.394
REMARK  2 active torsions:
REMARK  status: ('A' for Active; 'I' for Inactive)
REMARK    1  A    between atoms: C1_2  and  C2_3
REMARK    2  A    between atoms: C2_3  and  O2_4
ROOT
HETATM    1  C2  UNL     1      78.328  89.973  19.813  1.00  0.00     0.288 C
HETATM    2  N1  UNL     1      77.133  89.597  19.069  1.00  0.00    -0.263 N
ATOM      3  H1  UNL     1      76.213  89.950  19.332  1.00  0.00     0.187 HD
HETATM    4  N2  UNL     1      77.294  88.736  17.987  1.00  0.00    -0.239 N
ATOM      5  H2  UNL     1      76.481  88.199  17.687  1.00  0.00     0.208 HD
HETATM    6  N3  UNL     1      78.372  88.568  17.346  1.00  0.00    -0.237 N
ATOM      7  H3  UNL     1      78.418  87.918  16.562  1.00  0.00     0.193 HD
HETATM    8  C3  UNL     1      79.514  89.307  17.748  1.00  0.00     0.340 C
HETATM    9  O3  UNL     1      80.600  89.158  17.124  1.00  0.00    -0.245 OA
HETATM   10  N4  UNL     1      79.382  90.191  18.845  1.00  0.00    -0.285 N
ATOM     11  H4  UNL     1      80.025  90.975  18.953  1.00  0.00     0.169 HD
ENDROOT
BRANCH   1  12
HETATM   12  C1  UNL     1      78.750  88.856  20.699  1.00  0.00     0.317 C
HETATM   13  O1  UNL     1      78.443  87.687  20.430  1.00  0.00    -0.299 OA
ENDBRANCH   1  12
BRANCH   1  14
HETATM   14  O2  UNL     1      78.101  91.090  20.603  1.00  0.00    -0.347 OA
ATOM     15  H2  UNL     1      78.932  91.365  20.974  1.00  0.00     0.215 HD
ENDBRANCH   1  14
TORSDOF 2
ENDMDL