MODEL 1
REMARK VINA RESULT: -5.781494903      0.000      0.000
REMARK  2 active torsions:
REMARK  status: ('A' for Active; 'I' for Inactive)
REMARK       I    between atoms: C1_2  and  N2_4
REMARK       I    between atoms: N2_4  and  C2_6
REMARK    1  A    between atoms: N4_8  and  C3_10
REMARK    2  A    between atoms: N5_11  and  O2_13
ROOT
HETATM    1  N1  UNL     1      78.851  84.682  18.725  1.00  0.00    -0.040 NA
HETATM    2  C1  UNL     1      78.858  86.096  18.684  1.00  0.00     0.335 C
HETATM    3  O1  UNL     1      79.306  86.657  17.651  1.00  0.00    -0.251 OA
HETATM    4  N2  UNL     1      78.377  86.880  19.768  1.00  0.00    -0.285 N
ATOM      5  H2  UNL     1      78.015  86.415  20.601  1.00  0.00     0.172 HD
HETATM    6  C2  UNL     1      78.391  88.291  19.711  1.00  0.00     0.196 C
HETATM    7  N3  UNL     1      78.874  89.026  18.597  1.00  0.00    -0.063 NA
HETATM    8  N4  UNL     1      77.943  88.943  20.725  1.00  0.00    -0.325 N
ATOM      9  H4  UNL     1      77.598  88.408  21.522  1.00  0.00     0.169 HD
ENDROOT
BRANCH   8  10
HETATM   10  C3  UNL     1      77.898  90.350  20.803  1.00  0.00     0.206 C
HETATM   11  N5  UNL     1      77.036  91.056  20.172  1.00  0.00    -0.265 N
ATOM     12  H5  UNL     1      77.052  92.072  20.269  1.00  0.00     0.194 HD
BRANCH  11  13
HETATM   13  O2  UNL     1      76.088  90.469  19.364  1.00  0.00    -0.289 OA
ATOM     14  H2  UNL     1      75.710  90.938  18.629  1.00  0.00     0.244 HD
ENDBRANCH  11  13
ENDBRANCH   8  10
TORSDOF 2
ENDMDL