MODEL 3
REMARK VINA RESULT: -5.487510664      1.272      3.478
REMARK  4 active torsions:
REMARK  status: ('A' for Active; 'I' for Inactive)
REMARK    1  A    between atoms: N1_2  and  N2_3
REMARK       I    between atoms: N1_2  and  C2_6
REMARK       I    between atoms: C2_6  and  N6_14
REMARK    2  A    between atoms: N3_7  and  N4_9
REMARK    3  A    between atoms: N6_14  and  N7_16
REMARK    4  A    between atoms: N7_16  and  N8_17
ROOT
HETATM    1  C1  UNL     1      77.310  87.051  18.605  1.00  0.00     0.197 C
HETATM    2  N1  UNL     1      78.267  87.451  19.617  1.00  0.00    -0.132 N
HETATM    3  C2  UNL     1      78.422  88.768  20.069  1.00  0.00     0.727 C
HETATM    4  N3  UNL     1      79.445  89.450  19.751  1.00  0.00    -0.116 N
ATOM      5  H3  UNL     1      79.513  90.404  20.106  1.00  0.00     0.207 HD
HETATM    6  N6  UNL     1      77.430  89.329  20.884  1.00  0.00    -0.114 N
ATOM      7  H6  UNL     1      77.447  89.083  21.873  1.00  0.00     0.203 HD
ENDROOT
BRANCH   2   8
HETATM    8  N2  UNL     1      79.076  86.458  20.163  1.00  0.00    -0.329 N
ATOM      9  H22 UNL     1      79.496  85.771  19.537  1.00  0.00     0.177 HD
ATOM     10  H21 UNL     1      79.209  86.464  21.174  1.00  0.00     0.177 HD
ENDBRANCH   2   8
BRANCH   4  11
HETATM   11  N4  UNL     1      80.486  88.973  18.944  1.00  0.00    -0.235 N
HETATM   12  N5  UNL     1      80.627  89.384  17.754  1.00  0.00    -0.330 N
ATOM     13  H52 UNL     1      79.966  90.072  17.394  1.00  0.00     0.178 HD
ATOM     14  H51 UNL     1      81.385  89.036  17.166  1.00  0.00     0.178 HD
ATOM     15  H4  UNL     1      81.139  88.285  19.319  1.00  0.00     0.208 HD
ENDBRANCH   4  11
BRANCH   6  16
HETATM   16  N7  UNL     1      76.425  90.191  20.463  1.00  0.00    -0.015 NA
BRANCH  16  17
HETATM   17  N8  UNL     1      76.459  90.331  19.083  1.00  0.00    -0.328 N
ATOM     18  H82 UNL     1      77.211  89.977  18.491  1.00  0.00     0.174 HD
ATOM     19  H81 UNL     1      75.633  90.832  18.758  1.00  0.00     0.174 HD
ENDBRANCH  16  17
ENDBRANCH   6  16
TORSDOF 4
ENDMDL