MODEL 3
REMARK VINA RESULT: -5.152969510      2.589      4.657
REMARK  4 active torsions:
REMARK  status: ('A' for Active; 'I' for Inactive)
REMARK    1  A    between atoms: N1_1  and  N2_4
REMARK    2  A    between atoms: N2_4  and  N3_5
REMARK    3  A    between atoms: N2_4  and  N4_8
REMARK    4  A    between atoms: N5_10  and  N6_12
ROOT
HETATM    1  N4  UNL     1      77.117  88.636  19.047  1.00  0.00    -0.192 N
ATOM      2  H4  UNL     1      76.669  87.767  19.340  1.00  0.00     0.213 HD
HETATM    3  N5  UNL     1      77.440  88.805  17.821  1.00  0.00    -0.224 N
ATOM      4  H5  UNL     1      77.887  89.683  17.557  1.00  0.00     0.210 HD
ENDROOT
BRANCH   1   5
HETATM    5  N2  UNL     1      77.376  89.638  19.987  1.00  0.00    -0.128 N
BRANCH   5   6
HETATM    6  N1  UNL     1      78.371  89.522  20.966  1.00  0.00    -0.308 N
ATOM      7  H12 UNL     1      78.962  90.304  21.249  1.00  0.00     0.180 HD
ATOM      8  H11 UNL     1      78.494  88.608  21.401  1.00  0.00     0.180 HD
ENDBRANCH   5   6
BRANCH   5   9
HETATM    9  N3  UNL     1      76.624  90.819  19.973  1.00  0.00    -0.308 N
ATOM     10  H32 UNL     1      75.617  90.782  20.129  1.00  0.00     0.180 HD
ATOM     11  H31 UNL     1      77.126  91.691  19.804  1.00  0.00     0.180 HD
ENDBRANCH   5   9
ENDBRANCH   1   5
BRANCH   3  12
HETATM   12  N6  UNL     1      77.220  87.868  16.837  1.00  0.00    -0.265 N
HETATM   13  C1  UNL     1      77.648  86.669  17.004  1.00  0.00     0.193 A
HETATM   14  N7  UNL     1      77.680  85.444  16.360  1.00  0.00    -0.301 N
HETATM   15  C2  UNL     1      78.257  85.586  17.597  1.00  0.00     0.292 A
ATOM     16  H7  UNL     1      77.447  84.861  15.556  1.00  0.00     0.171 HD
HETATM   17  O1  UNL     1      78.872  85.126  18.565  1.00  0.00    -0.264 OA
ATOM     18  H6  UNL     1      76.720  88.123  15.985  1.00  0.00     0.190 HD
ENDBRANCH   3  12
TORSDOF 4
ENDMDL