MODEL 3
REMARK VINA RESULT: -5.486301369      2.034      2.288
REMARK  3 active torsions:
REMARK  status: ('A' for Active; 'I' for Inactive)
REMARK    1  A    between atoms: N1_2  and  S1_4
REMARK    2  A    between atoms: S1_4  and  N2_7
REMARK       I    between atoms: N2_7  and  C2_9
REMARK       I    between atoms: C2_9  and  N4_13
REMARK    3  A    between atoms: N4_13  and  N5_15
ROOT
HETATM    1  N2  UNL     1      79.696  88.082  18.921  1.00  0.00    -0.099 N
ATOM      2  H2  UNL     1      80.561  87.581  19.125  1.00  0.00     0.199 HD
HETATM    3  C2  UNL     1      79.418  89.312  19.576  1.00  0.00     0.700 C
HETATM    4  N3  UNL     1      79.587  90.401  18.918  1.00  0.00    -0.233 N
ATOM      5  H31 UNL     1      79.387  91.284  19.388  1.00  0.00     0.174 HD
ATOM      6  H32 UNL     1      79.914  90.385  17.951  1.00  0.00     0.174 HD
HETATM    7  N4  UNL     1      78.962  89.334  20.924  1.00  0.00    -0.138 N
ATOM      8  H4  UNL     1      79.631  89.127  21.667  1.00  0.00     0.205 HD
ENDROOT
BRANCH   1   9
HETATM    9  S1  UNL     1      78.581  87.442  17.792  1.00  0.00     0.332 S
HETATM   10  O1  UNL     1      78.429  88.382  16.631  1.00  0.00    -0.182 OA
HETATM   11  O2  UNL     1      79.155  86.151  17.227  1.00  0.00    -0.182 OA
BRANCH   9  12
HETATM   12  N1  UNL     1      77.099  87.059  18.539  1.00  0.00    -0.307 N
HETATM   13  C1  UNL     1      76.638  85.723  18.241  1.00  0.00     0.161 C
ATOM     14  H1  UNL     1      76.588  87.709  19.136  1.00  0.00     0.173 HD
ENDBRANCH   9  12
ENDBRANCH   1   9
BRANCH   7  15
HETATM   15  N5  UNL     1      77.666  89.623  21.273  1.00  0.00    -0.331 N
ATOM     16  H52 UNL     1      77.373  90.599  21.225  1.00  0.00     0.177 HD
ATOM     17  H51 UNL     1      76.999  88.912  21.573  1.00  0.00     0.177 HD
ENDBRANCH   7  15
TORSDOF 3
ENDMDL