MODEL 2
REMARK VINA RESULT: -5.796555756      2.074      3.265
REMARK  3 active torsions:
REMARK  status: ('A' for Active; 'I' for Inactive)
REMARK       I    between atoms: N2_3  and  C2_5
REMARK       I    between atoms: C2_5  and  N5_15
REMARK    1  A    between atoms: N3_6  and  C3_8
REMARK    2  A    between atoms: C3_8  and  N4_9
REMARK    3  A    between atoms: C3_8  and  O1_13
ROOT
HETATM    1  N1  UNL     1      77.261  85.564  15.292  1.00  0.00    -0.171 NA
HETATM    2  C1  UNL     1      77.166  86.619  15.773  1.00  0.00     0.196 C
HETATM    3  N2  UNL     1      77.062  87.883  16.359  1.00  0.00    -0.125 N
ATOM      4  H2  UNL     1      76.432  88.567  15.941  1.00  0.00     0.197 HD
HETATM    5  C2  UNL     1      77.810  88.254  17.526  1.00  0.00     0.699 C
HETATM    6  N3  UNL     1      79.011  88.626  17.352  1.00  0.00    -0.173 N
ATOM      7  H3  UNL     1      79.344  88.629  16.387  1.00  0.00     0.182 HD
HETATM    8  N5  UNL     1      77.159  88.179  18.793  1.00  0.00    -0.125 N
ATOM      9  H5  UNL     1      77.039  87.276  19.250  1.00  0.00     0.197 HD
HETATM   10  C4  UNL     1      76.688  89.340  19.410  1.00  0.00     0.196 C
HETATM   11  N6  UNL     1      76.294  90.310  19.935  1.00  0.00    -0.171 NA
ENDROOT
BRANCH   6  12
HETATM   12  C3  UNL     1      79.946  89.037  18.335  1.00  0.00     0.438 C
BRANCH  12  13
HETATM   13  N4  UNL     1      80.041  90.449  18.543  1.00  0.00    -0.034 N
ATOM     14  H43 UNL     1      79.179  90.799  18.963  1.00  0.00     0.279 HD
ATOM     15  H42 UNL     1      80.702  90.648  19.294  1.00  0.00     0.279 HD
ATOM     16  H41 UNL     1      80.275  91.000  17.717  1.00  0.00     0.279 HD
ENDBRANCH  12  13
BRANCH  12  17
HETATM   17  O1  UNL     1      81.221  88.590  17.920  1.00  0.00    -0.354 OA
ATOM     18  H1  UNL     1      81.844  89.279  18.119  1.00  0.00     0.213 HD
ENDBRANCH  12  17
ENDBRANCH   6  12
TORSDOF 3
ENDMDL