MODEL 5
REMARK VINA RESULT: -5.582707727      1.726      2.507
REMARK  2 active torsions:
REMARK  status: ('A' for Active; 'I' for Inactive)
REMARK    1  A    between atoms: N1_2  and  C2_4
REMARK    2  A    between atoms: C4_10  and  N4_11
REMARK       I    between atoms: N4_11  and  C5_13
REMARK       I    between atoms: C5_13  and  N5_14
REMARK       I    between atoms: C5_13  and  N6_18
ROOT
HETATM    1  C2  UNL     1      76.669  87.223  15.010  1.00  0.00     0.693 A
HETATM    2  N2  UNL     1      76.984  86.004  15.500  1.00  0.00    -0.187 N
ATOM      3  H2  UNL     1      76.721  85.181  14.957  1.00  0.00     0.185 HD
HETATM    4  C3  UNL     1      77.624  85.821  16.664  1.00  0.00     0.215 A
HETATM    5  N3  UNL     1      77.956  86.948  17.362  1.00  0.00    -0.187 N
ATOM      6  H3  UNL     1      78.442  86.850  18.253  1.00  0.00     0.185 HD
HETATM    7  C4  UNL     1      77.665  88.177  16.916  1.00  0.00     0.696 A
HETATM    8  N7  UNL     1      77.023  88.279  15.741  1.00  0.00    -0.022 N
ATOM      9  H7  UNL     1      76.796  89.210  15.391  1.00  0.00     0.203 HD
ENDROOT
BRANCH   7  10
HETATM   10  N4  UNL     1      78.005  89.205  17.618  1.00  0.00    -0.173 N
HETATM   11  C5  UNL     1      79.222  89.243  18.395  1.00  0.00     0.494 C
HETATM   12  N5  UNL     1      79.195  90.379  19.308  1.00  0.00    -0.032 N
HETATM   13  N6  UNL     1      80.407  89.388  17.584  1.00  0.00    -0.032 N
ATOM     14  H53 UNL     1      79.025  91.259  18.820  1.00  0.00     0.278 HD
ATOM     15  H52 UNL     1      78.364  90.375  19.900  1.00  0.00     0.278 HD
ATOM     16  H51 UNL     1      80.055  90.406  19.857  1.00  0.00     0.278 HD
ATOM     17  H63 UNL     1      80.452  88.658  16.873  1.00  0.00     0.278 HD
ATOM     18  H62 UNL     1      80.336  90.207  16.980  1.00  0.00     0.278 HD
ATOM     19  H61 UNL     1      81.267  89.415  18.133  1.00  0.00     0.278 HD
ATOM     20  H4  UNL     1      77.391  90.020  17.625  1.00  0.00     0.181 HD
ENDBRANCH   7  10
BRANCH   1  21
HETATM   21  N1  UNL     1      76.059  87.267  13.890  1.00  0.00    -0.230 N
HETATM   22  C1  UNL     1      75.489  88.415  13.273  1.00  0.00     0.165 C
ATOM     23  H1  UNL     1      75.972  86.387  13.384  1.00  0.00     0.177 HD
ENDBRANCH   1  21
TORSDOF 2
ENDMDL