MODEL 1
REMARK VINA RESULT: -5.465191035      0.000      0.000
REMARK  4 active torsions:
REMARK  status: ('A' for Active; 'I' for Inactive)
REMARK    1  A    between atoms: N1_2  and  N2_4
REMARK    2  A    between atoms: N2_4  and  N3_5
REMARK       I    between atoms: N3_5  and  C3_7
REMARK       I    between atoms: C3_7  and  N4_9
REMARK    3  A    between atoms: N4_9  and  O2_11
REMARK    4  A    between atoms: O2_11  and  C4_12
ROOT
HETATM    1  N3  UNL     1      77.113  88.154  16.056  1.00  0.00    -0.238 N
ATOM      2  H3  UNL     1      76.299  88.734  15.848  1.00  0.00     0.188 HD
HETATM    3  C3  UNL     1      78.154  88.477  16.991  1.00  0.00     0.357 C
HETATM    4  O1  UNL     1      79.113  87.689  17.171  1.00  0.00    -0.244 OA
HETATM    5  N4  UNL     1      78.108  89.689  17.718  1.00  0.00    -0.205 N
ATOM      6  H4  UNL     1      77.335  90.341  17.583  1.00  0.00     0.200 HD
ENDROOT
BRANCH   1   7
HETATM    7  N2  UNL     1      77.397  86.925  15.483  1.00  0.00    -0.045 NA
BRANCH   7   8
HETATM    8  N1  UNL     1      76.631  86.647  14.360  1.00  0.00    -0.222 NA
HETATM    9  C1  UNL     1      75.572  85.709  14.603  1.00  0.00     0.133 C
HETATM   10  C2  UNL     1      76.049  87.898  13.908  1.00  0.00     0.133 C
ENDBRANCH   7   8
ENDBRANCH   1   7
BRANCH   5  11
HETATM   11  O2  UNL     1      79.105  89.979  18.602  1.00  0.00    -0.179 OA
BRANCH  11  12
HETATM   12  C4  UNL     1      79.013  89.824  19.970  1.00  0.00     0.394 C
HETATM   13  N5  UNL     1      79.602  88.683  20.557  1.00  0.00    -0.031 NA
HETATM   14  O3  UNL     1      78.409  90.708  20.624  1.00  0.00    -0.240 OA
ENDBRANCH  11  12
ENDBRANCH   5  11
TORSDOF 4
ENDMDL