MODEL 5
REMARK VINA RESULT: -5.700546977      2.110      4.285
REMARK  4 active torsions:
REMARK  status: ('A' for Active; 'I' for Inactive)
REMARK    1  A    between atoms: C2_2  and  C3_4
REMARK    2  A    between atoms: C3_4  and  N5_12
REMARK    3  A    between atoms: N1_5  and  N2_7
REMARK    4  A    between atoms: N5_12  and  N6_14
ROOT
HETATM    1  C3  UNL     1      78.761  87.652  19.297  1.00  0.00     0.180 C
HETATM    2  N1  UNL     1      78.312  88.142  20.356  1.00  0.00    -0.279 N
ATOM      3  H1  UNL     1      77.797  87.496  20.955  1.00  0.00     0.189 HD
ENDROOT
BRANCH   1   4
HETATM    4  C2  UNL     1      79.517  88.388  18.313  1.00  0.00     0.191 C
HETATM    5  C1  UNL     1      80.945  88.674  18.526  1.00  0.00     0.100 C
HETATM    6  O1  UNL     1      78.978  88.804  17.252  1.00  0.00    -0.289 OA
ENDBRANCH   1   4
BRANCH   1   7
HETATM    7  N5  UNL     1      78.515  86.259  19.031  1.00  0.00    -0.288 N
ATOM      8  H5  UNL     1      78.102  85.677  19.760  1.00  0.00     0.188 HD
BRANCH   7   9
HETATM    9  N6  UNL     1      78.826  85.694  17.813  1.00  0.00    -0.343 N
ATOM     10  H62 UNL     1      79.022  84.693  17.780  1.00  0.00     0.176 HD
ATOM     11  H61 UNL     1      78.861  86.254  16.961  1.00  0.00     0.176 HD
ENDBRANCH   7   9
ENDBRANCH   1   7
BRANCH   2  12
HETATM   12  N2  UNL     1      78.413  89.415  20.821  1.00  0.00    -0.274 N
HETATM   13  C4  UNL     1      77.453  90.253  20.674  1.00  0.00     0.215 C
HETATM   14  N3  UNL     1      76.266  89.868  20.021  1.00  0.00    -0.065 NA
HETATM   15  N4  UNL     1      77.586  91.582  21.171  1.00  0.00    -0.065 NA
ATOM     16  H2  UNL     1      79.267  89.709  21.296  1.00  0.00     0.189 HD
ENDBRANCH   2  12
TORSDOF 4
ENDMDL