MODEL 4
REMARK VINA RESULT: -5.979389262      0.907      1.107
REMARK  2 active torsions:
REMARK  status: ('A' for Active; 'I' for Inactive)
REMARK    1  A    between atoms: N2_3  and  S1_5
REMARK    2  A    between atoms: S1_5  and  N3_8
REMARK       I    between atoms: N3_8  and  C2_10
ROOT
HETATM    1  N1  UNL     1      78.946  85.808  17.602  1.00  0.00    -0.171 NA
HETATM    2  C1  UNL     1      78.715  86.919  17.822  1.00  0.00     0.193 C
HETATM    3  N2  UNL     1      78.420  88.240  18.085  1.00  0.00    -0.203 N
ATOM      4  H2  UNL     1      77.555  88.648  17.732  1.00  0.00     0.192 HD
ENDROOT
BRANCH   3   5
HETATM    5  S1  UNL     1      79.506  89.199  19.005  1.00  0.00     0.333 S
HETATM    6  O1  UNL     1      80.592  89.808  18.133  1.00  0.00    -0.181 OA
HETATM    7  O2  UNL     1      80.162  88.407  20.099  1.00  0.00    -0.181 OA
BRANCH   5   8
HETATM    8  N3  UNL     1      78.655  90.511  19.719  1.00  0.00    -0.240 N
HETATM    9  C2  UNL     1      77.524  90.199  20.512  1.00  0.00     0.196 C
HETATM   10  N4  UNL     1      77.682  89.544  21.613  1.00  0.00    -0.373 N
HETATM   11  N5  UNL     1      76.239  90.602  20.097  1.00  0.00    -0.063 NA
ATOM     12  H42 UNL     1      78.612  89.252  21.913  1.00  0.00     0.158 HD
ATOM     13  H41 UNL     1      76.867  89.320  22.184  1.00  0.00     0.158 HD
ATOM     14  H3  UNL     1      78.953  91.476  19.578  1.00  0.00     0.183 HD
ENDBRANCH   5   8
ENDBRANCH   3   5
TORSDOF 2
ENDMDL