MODEL 3
REMARK VINA RESULT: -5.207032279      1.660      1.808
REMARK  4 active torsions:
REMARK  status: ('A' for Active; 'I' for Inactive)
REMARK    1  A    between atoms: N1_2  and  N2_3
REMARK       I    between atoms: N1_2  and  C3_12
REMARK    2  A    between atoms: N2_3  and  C2_5
REMARK    3  A    between atoms: C2_5  and  N3_7
REMARK    4  A    between atoms: N3_7  and  N4_9
ROOT
HETATM    1  N2  UNL     1      78.610  87.708  20.003  1.00  0.00    -0.270 N
ATOM      2  H2  UNL     1      78.945  87.204  20.823  1.00  0.00     0.189 HD
ENDROOT
BRANCH   1   3
HETATM    3  N1  UNL     1      78.781  89.087  19.957  1.00  0.00    -0.247 N
HETATM    4  C1  UNL     1      79.781  89.682  19.101  1.00  0.00     0.182 C
HETATM    5  C3  UNL     1      77.973  89.935  20.753  1.00  0.00     0.349 C
HETATM    6  N5  UNL     1      76.971  89.417  21.615  1.00  0.00    -0.038 NA
HETATM    7  O1  UNL     1      78.124  91.183  20.716  1.00  0.00    -0.249 OA
ENDBRANCH   1   3
BRANCH   1   8
HETATM    8  C2  UNL     1      77.993  86.972  18.967  1.00  0.00     0.205 C
HETATM    9  S1  UNL     1      78.463  85.428  18.754  1.00  0.00    -0.038 SA
BRANCH   8  10
HETATM   10  N3  UNL     1      76.999  87.521  18.123  1.00  0.00    -0.282 N
ATOM     11  H3  UNL     1      76.022  87.526  18.419  1.00  0.00     0.189 HD
BRANCH  10  12
HETATM   12  N4  UNL     1      77.359  88.065  16.867  1.00  0.00    -0.343 N
ATOM     13  H42 UNL     1      78.304  88.425  16.737  1.00  0.00     0.176 HD
ATOM     14  H41 UNL     1      76.677  88.091  16.109  1.00  0.00     0.176 HD
ENDBRANCH  10  12
ENDBRANCH   8  10
ENDBRANCH   1   8
TORSDOF 4
ENDMDL