MODEL 4
REMARK VINA RESULT: -5.280155106      1.901      4.345
REMARK  1 active torsions:
REMARK  status: ('A' for Active; 'I' for Inactive)
REMARK       I    between atoms: C1_4  and  N2_5
REMARK       I    between atoms: C1_4  and  N5_14
REMARK       I    between atoms: N2_5  and  C2_7
REMARK       I    between atoms: C2_7  and  N3_9
REMARK    1  A    between atoms: N3_9  and  N4_11
ROOT
HETATM    1  N1  UNL     1      77.339  88.695  16.343  1.00  0.00    -0.234 N
ATOM      2  H11 UNL     1      77.249  89.707  16.429  1.00  0.00     0.174 HD
ATOM      3  H12 UNL     1      77.010  88.171  15.532  1.00  0.00     0.174 HD
HETATM    4  C1  UNL     1      77.890  88.007  17.293  1.00  0.00     0.679 C
HETATM    5  N2  UNL     1      78.014  86.617  17.175  1.00  0.00    -0.140 N
ATOM      6  H2  UNL     1      77.652  86.194  16.320  1.00  0.00     0.189 HD
HETATM    7  C2  UNL     1      78.591  85.740  18.127  1.00  0.00     0.352 C
HETATM    8  O1  UNL     1      79.078  86.110  19.225  1.00  0.00    -0.245 OA
HETATM    9  N3  UNL     1      78.651  84.330  17.875  1.00  0.00    -0.258 N
ATOM     10  H3  UNL     1      78.270  83.971  16.998  1.00  0.00     0.191 HD
HETATM   11  N5  UNL     1      78.343  88.728  18.410  1.00  0.00    -0.195 N
HETATM   12  C3  UNL     1      77.676  88.976  19.669  1.00  0.00     0.169 C
HETATM   13  C4  UNL     1      78.796  89.557  20.517  1.00  0.00     0.190 C
HETATM   14  O2  UNL     1      79.968  89.282  19.826  1.00  0.00    -0.370 OA
HETATM   15  C5  UNL     1      79.615  89.409  18.502  1.00  0.00     0.311 C
ENDROOT
BRANCH   9  16
HETATM   16  N4  UNL     1      79.204  83.436  18.775  1.00  0.00    -0.341 N
ATOM     17  H42 UNL     1      79.143  83.663  19.767  1.00  0.00     0.177 HD
ATOM     18  H41 UNL     1      79.663  82.574  18.479  1.00  0.00     0.177 HD
ENDBRANCH   9  16
TORSDOF 1
ENDMDL