MODEL 4
REMARK VINA RESULT: -5.863462103      1.913      2.279
REMARK  0 active torsions:
REMARK  status: ('A' for Active; 'I' for Inactive)
ROOT
HETATM    1  N1  UNL     1      76.872  89.359  21.596  1.00  0.00    -0.111 NA
HETATM    2  C1  UNL     1      76.746  89.415  20.184  1.00  0.00     0.149 C
HETATM    3  C2  UNL     1      77.225  88.470  19.409  1.00  0.00     0.136 A
HETATM    4  N2  UNL     1      77.887  87.363  20.002  1.00  0.00    -0.282 N
ATOM      5  H2  UNL     1      77.981  87.318  21.017  1.00  0.00     0.188 HD
HETATM    6  N3  UNL     1      78.416  86.329  19.208  1.00  0.00    -0.260 N
ATOM      7  H3  UNL     1      78.889  85.541  19.651  1.00  0.00     0.190 HD
HETATM    8  C3  UNL     1      78.295  86.375  17.793  1.00  0.00     0.328 A
HETATM    9  O1  UNL     1      78.761  85.460  17.054  1.00  0.00    -0.261 OA
HETATM   10  C4  UNL     1      77.629  87.482  17.153  1.00  0.00     0.316 A
HETATM   11  O2  UNL     1      77.480  87.601  15.918  1.00  0.00    -0.262 OA
HETATM   12  N4  UNL     1      77.100  88.523  17.998  1.00  0.00    -0.303 N
ATOM     13  H4  UNL     1      76.624  89.317  17.570  1.00  0.00     0.171 HD
ENDROOT
TORSDOF 0
ENDMDL