MODEL 1
REMARK VINA RESULT: -5.643772813      0.000      0.000
REMARK  2 active torsions:
REMARK  status: ('A' for Active; 'I' for Inactive)
REMARK    1  A    between atoms: N1_1  and  N2_4
REMARK       I    between atoms: N2_4  and  C1_6
REMARK    2  A    between atoms: C1_6  and  C2_8
REMARK       I    between atoms: C2_8  and  N3_10
ROOT
HETATM    1  N2  UNL     1      77.065  87.414  16.538  1.00  0.00    -0.268 N
ATOM      2  H2  UNL     1      76.594  88.308  16.670  1.00  0.00     0.190 HD
HETATM    3  C1  UNL     1      78.196  87.166  17.331  1.00  0.00     0.327 C
HETATM    4  O1  UNL     1      78.797  86.076  17.193  1.00  0.00    -0.261 OA
ENDROOT
BRANCH   3   5
HETATM    5  C2  UNL     1      78.700  88.115  18.304  1.00  0.00     0.317 C
HETATM    6  O2  UNL     1      79.927  88.125  18.654  1.00  0.00    -0.262 OA
HETATM    7  N3  UNL     1      77.830  89.063  18.898  1.00  0.00    -0.295 N
HETATM    8  C3  UNL     1      77.950  89.335  20.148  1.00  0.00     0.203 C
ATOM      9  H3  UNL     1      77.114  89.527  18.338  1.00  0.00     0.171 HD
HETATM   10  N4  UNL     1      77.080  90.296  20.782  1.00  0.00    -0.066 NA
HETATM   11  N5  UNL     1      78.947  88.689  20.934  1.00  0.00    -0.066 NA
ENDBRANCH   3   5
BRANCH   1  12
HETATM   12  N1  UNL     1      76.536  86.559  15.598  1.00  0.00    -0.342 N
ATOM     13  H12 UNL     1      77.168  85.844  15.239  1.00  0.00     0.176 HD
ATOM     14  H11 UNL     1      75.581  86.582  15.240  1.00  0.00     0.176 HD
ENDBRANCH   1  12
TORSDOF 2
ENDMDL