MODEL 1
REMARK VINA RESULT: -6.213106988      0.000      0.000
REMARK  2 active torsions:
REMARK  status: ('A' for Active; 'I' for Inactive)
REMARK       I    between atoms: C1_2  and  N2_4
REMARK    1  A    between atoms: N2_4  and  N3_6
REMARK       I    between atoms: N3_6  and  C2_8
REMARK    2  A    between atoms: N5_10  and  O2_12
ROOT
HETATM    1  N3  UNL     1      77.756  89.435  19.072  1.00  0.00    -0.268 N
ATOM      2  H3  UNL     1      77.619  90.440  18.970  1.00  0.00     0.190 HD
HETATM    3  C2  UNL     1      78.516  88.987  20.180  1.00  0.00     0.227 C
HETATM    4  N4  UNL     1      79.847  88.555  19.923  1.00  0.00    -0.060 NA
HETATM    5  N5  UNL     1      78.072  88.958  21.389  1.00  0.00    -0.240 N
ATOM      6  H5  UNL     1      78.703  88.617  22.114  1.00  0.00     0.197 HD
ENDROOT
BRANCH   1   7
HETATM    7  N2  UNL     1      77.183  88.609  18.113  1.00  0.00    -0.252 N
HETATM    8  C1  UNL     1      77.860  88.161  16.957  1.00  0.00     0.347 C
HETATM    9  N1  UNL     1      77.242  87.322  16.006  1.00  0.00    -0.038 NA
HETATM   10  O1  UNL     1      79.065  88.485  16.698  1.00  0.00    -0.249 OA
ATOM     11  H2  UNL     1      76.218  88.310  18.252  1.00  0.00     0.191 HD
ENDBRANCH   1   7
BRANCH   5  12
HETATM   12  O2  UNL     1      76.833  89.347  21.773  1.00  0.00    -0.287 OA
ATOM     13  H2  UNL     1      76.187  88.784  22.184  1.00  0.00     0.244 HD
ENDBRANCH   5  12
TORSDOF 2
ENDMDL