MODEL 1
REMARK VINA RESULT: -6.732281313      0.000      0.000
REMARK  0 active torsions:
REMARK  status: ('A' for Active; 'I' for Inactive)
REMARK       I    between atoms: C1_4  and  N3_6
ROOT
HETATM    1  N1  UNL     1      77.489  89.097  16.930  1.00  0.00    -0.373 N
ATOM      2  H11 UNL     1      76.891  89.844  17.283  1.00  0.00     0.158 HD
ATOM      3  H12 UNL     1      77.531  88.914  15.927  1.00  0.00     0.158 HD
HETATM    4  C1  UNL     1      78.178  88.397  17.746  1.00  0.00     0.200 C
HETATM    5  N2  UNL     1      79.004  87.364  17.258  1.00  0.00    -0.063 NA
HETATM    6  N3  UNL     1      78.120  88.651  19.130  1.00  0.00    -0.185 N
HETATM    7  C2  UNL     1      77.069  89.100  19.861  1.00  0.00     0.351 A
HETATM    8  O1  UNL     1      75.921  89.384  19.432  1.00  0.00    -0.244 OA
HETATM    9  N4  UNL     1      77.488  89.187  21.140  1.00  0.00    -0.247 N
ATOM     10  H4  UNL     1      76.912  89.498  21.923  1.00  0.00     0.192 HD
HETATM   11  N5  UNL     1      78.749  88.812  21.232  1.00  0.00    -0.247 N
ATOM     12  H5  UNL     1      79.311  88.782  22.083  1.00  0.00     0.192 HD
HETATM   13  C3  UNL     1      79.156  88.476  19.996  1.00  0.00     0.351 A
HETATM   14  O2  UNL     1      80.322  88.073  19.749  1.00  0.00    -0.244 OA
ENDROOT
TORSDOF 0
ENDMDL