MODEL 2
REMARK VINA RESULT: -4.931807267      1.143      1.542
REMARK  4 active torsions:
REMARK  status: ('A' for Active; 'I' for Inactive)
REMARK    1  A    between atoms: N2_4  and  C1_6
REMARK    2  A    between atoms: C1_6  and  N3_7
REMARK    3  A    between atoms: C1_6  and  N4_11
REMARK    4  A    between atoms: C1_6  and  C2_15
ROOT
HETATM    1  C1  UNL     1      77.891  88.616  18.891  1.00  0.00     0.449 C
ENDROOT
BRANCH   1   2
HETATM    2  N2  UNL     1      78.731  89.069  17.833  1.00  0.00    -0.277 N
HETATM    3  N1  UNL     1      79.837  89.614  18.026  1.00  0.00    -0.345 N
ATOM      4  H12 UNL     1      80.140  89.733  18.993  1.00  0.00     0.176 HD
ATOM      5  H11 UNL     1      80.438  89.939  17.269  1.00  0.00     0.176 HD
ATOM      6  H2  UNL     1      78.413  88.943  16.872  1.00  0.00     0.184 HD
ENDBRANCH   1   2
BRANCH   1   7
HETATM    7  N3  UNL     1      77.800  87.175  18.956  1.00  0.00    -0.017 N
ATOM      8  H33 UNL     1      77.789  86.767  18.022  1.00  0.00     0.280 HD
ATOM      9  H32 UNL     1      78.669  86.770  19.304  1.00  0.00     0.280 HD
ATOM     10  H31 UNL     1      77.003  86.854  19.505  1.00  0.00     0.280 HD
ENDBRANCH   1   7
BRANCH   1  11
HETATM   11  N4  UNL     1      76.540  89.115  18.655  1.00  0.00    -0.017 N
ATOM     12  H43 UNL     1      76.296  89.135  17.665  1.00  0.00     0.280 HD
ATOM     13  H42 UNL     1      75.822  88.459  18.962  1.00  0.00     0.280 HD
ATOM     14  H41 UNL     1      76.451  90.029  19.099  1.00  0.00     0.280 HD
ENDBRANCH   1  11
BRANCH   1  15
HETATM   15  C2  UNL     1      78.326  89.176  20.212  1.00  0.00     0.318 C
HETATM   16  N5  UNL     1      77.784  90.396  20.686  1.00  0.00    -0.056 NA
HETATM   17  O1  UNL     1      79.177  88.516  20.860  1.00  0.00    -0.270 OA
ENDBRANCH   1  15
TORSDOF 4
ENDMDL