MODEL 2
REMARK VINA RESULT: -5.309770589      1.187      1.187
REMARK  2 active torsions:
REMARK  status: ('A' for Active; 'I' for Inactive)
REMARK    1  A    between atoms: C2_5  and  N3_6
REMARK    2  A    between atoms: N3_6  and  N4_8
ROOT
HETATM    1  C1  UNL     1      78.391  86.207  17.626  1.00  0.00     0.183 C
HETATM    2  N1  UNL     1      78.627  87.491  18.230  1.00  0.00    -0.232 N
HETATM    3  N2  UNL     1      78.111  87.900  19.354  1.00  0.00    -0.125 N
ATOM      4  H2  UNL     1      77.478  87.343  19.928  1.00  0.00     0.206 HD
HETATM    5  C2  UNL     1      78.513  89.150  19.668  1.00  0.00     0.715 A
HETATM    6  N5  UNL     1      79.328  89.515  18.664  1.00  0.00    -0.137 N
ATOM      7  H5  UNL     1      79.810  90.410  18.585  1.00  0.00     0.189 HD
HETATM    8  C3  UNL     1      79.400  88.502  17.783  1.00  0.00     0.355 A
HETATM    9  O1  UNL     1      80.063  88.450  16.698  1.00  0.00    -0.244 OA
ENDROOT
BRANCH   5  10
HETATM   10  N3  UNL     1      78.176  89.844  20.726  1.00  0.00    -0.137 N
ATOM     11  H3  UNL     1      78.637  89.688  21.623  1.00  0.00     0.205 HD
BRANCH  10  12
HETATM   12  N4  UNL     1      77.178  90.795  20.597  1.00  0.00    -0.331 N
ATOM     13  H42 UNL     1      76.564  90.779  19.784  1.00  0.00     0.177 HD
ATOM     14  H41 UNL     1      77.082  91.498  21.330  1.00  0.00     0.177 HD
ENDBRANCH  10  12
ENDBRANCH   5  10
TORSDOF 2
ENDMDL