MODEL 3
REMARK VINA RESULT: -5.747088797      2.498      4.396
REMARK  2 active torsions:
REMARK  status: ('A' for Active; 'I' for Inactive)
REMARK    1  A    between atoms: N2_4  and  N3_6
REMARK       I    between atoms: N3_6  and  C1_8
REMARK    2  A    between atoms: N5_10  and  N6_12
REMARK       I    between atoms: N6_12  and  C2_14
ROOT
HETATM    1  N3  UNL     1      76.895  87.292  15.794  1.00  0.00    -0.258 N
ATOM      2  H3  UNL     1      76.844  87.891  14.969  1.00  0.00     0.191 HD
HETATM    3  C1  UNL     1      77.584  87.748  16.946  1.00  0.00     0.223 C
HETATM    4  N4  UNL     1      78.839  87.171  17.259  1.00  0.00    -0.061 NA
HETATM    5  N5  UNL     1      77.082  88.675  17.706  1.00  0.00    -0.269 N
ATOM      6  H5  UNL     1      76.179  89.101  17.495  1.00  0.00     0.190 HD
ENDROOT
BRANCH   1   7
HETATM    7  N2  UNL     1      76.292  86.047  15.774  1.00  0.00    -0.247 N
HETATM    8  N1  UNL     1      76.175  85.318  16.816  1.00  0.00    -0.331 N
ATOM      9  H12 UNL     1      76.547  85.684  17.693  1.00  0.00     0.178 HD
ATOM     10  H11 UNL     1      75.731  84.400  16.802  1.00  0.00     0.178 HD
ATOM     11  H2  UNL     1      75.926  85.696  14.889  1.00  0.00     0.207 HD
ENDBRANCH   1   7
BRANCH   5  12
HETATM   12  N6  UNL     1      77.822  89.065  18.818  1.00  0.00    -0.252 N
HETATM   13  C2  UNL     1      77.198  89.564  20.004  1.00  0.00     0.347 C
HETATM   14  N7  UNL     1      78.045  89.933  21.077  1.00  0.00    -0.038 NA
HETATM   15  O1  UNL     1      75.946  89.669  20.085  1.00  0.00    -0.249 OA
ATOM     16  H6  UNL     1      78.839  88.991  18.787  1.00  0.00     0.191 HD
ENDBRANCH   5  12
TORSDOF 2
ENDMDL