MODEL 5
REMARK VINA RESULT: -4.631964728      1.118      1.283
REMARK  3 active torsions:
REMARK  status: ('A' for Active; 'I' for Inactive)
REMARK    1  A    between atoms: N1_2  and  N2_3
REMARK    2  A    between atoms: N1_2  and  C2_6
REMARK    3  A    between atoms: N3_7  and  N4_9
ROOT
HETATM    1  C2  UNL     1      76.963  88.800  19.005  1.00  0.00     0.215 C
HETATM    2  N3  UNL     1      77.632  88.046  18.199  1.00  0.00    -0.293 N
ATOM      3  H3  UNL     1      78.638  87.949  18.338  1.00  0.00     0.187 HD
ENDROOT
BRANCH   2   4
HETATM    4  N4  UNL     1      77.038  87.369  17.159  1.00  0.00    -0.275 N
HETATM    5  C3  UNL     1      77.411  86.248  16.687  1.00  0.00     0.215 C
HETATM    6  N5  UNL     1      78.530  85.590  17.235  1.00  0.00    -0.065 NA
HETATM    7  N6  UNL     1      76.718  85.649  15.614  1.00  0.00    -0.065 NA
ATOM      8  H4  UNL     1      76.222  87.805  16.728  1.00  0.00     0.189 HD
ENDBRANCH   2   4
BRANCH   1   9
HETATM    9  N1  UNL     1      77.684  89.445  20.036  1.00  0.00    -0.297 N
HETATM   10  C1  UNL     1      78.888  88.835  20.543  1.00  0.00     0.178 C
BRANCH   9  11
HETATM   11  N2  UNL     1      77.221  90.642  20.535  1.00  0.00    -0.342 N
ATOM     12  H22 UNL     1      77.889  91.377  20.768  1.00  0.00     0.177 HD
ATOM     13  H21 UNL     1      76.226  90.808  20.677  1.00  0.00     0.177 HD
ENDBRANCH   9  11
ENDBRANCH   1   9
TORSDOF 3
ENDMDL