MODEL 4
REMARK VINA RESULT: -4.491186049      1.653      4.340
REMARK  1 active torsions:
REMARK  status: ('A' for Active; 'I' for Inactive)
REMARK       I    between atoms: N1_2  and  C2_4
REMARK       I    between atoms: C2_4  and  N2_6
REMARK       I    between atoms: C3_8  and  N4_10
REMARK    1  A    between atoms: N4_10  and  N5_12
ROOT
HETATM    1  C1  UNL     1      78.500  89.617  20.286  1.00  0.00     0.151 C
HETATM    2  N1  UNL     1      77.715  89.027  19.234  1.00  0.00    -0.347 N
ATOM      3  H1  UNL     1      77.270  89.631  18.543  1.00  0.00     0.163 HD
HETATM    4  C2  UNL     1      77.548  87.618  19.141  1.00  0.00     0.322 C
HETATM    5  O1  UNL     1      78.101  86.886  20.000  1.00  0.00    -0.247 OA
HETATM    6  N2  UNL     1      76.767  87.067  18.089  1.00  0.00    -0.282 N
ATOM      7  H2  UNL     1      75.763  87.249  18.067  1.00  0.00     0.173 HD
HETATM    8  C3  UNL     1      77.292  86.348  17.167  1.00  0.00     0.210 C
HETATM    9  N3  UNL     1      78.690  86.112  17.221  1.00  0.00    -0.062 NA
HETATM   10  N4  UNL     1      76.468  85.820  16.135  1.00  0.00    -0.280 N
ATOM     11  H4  UNL     1      75.563  86.255  15.953  1.00  0.00     0.189 HD
ENDROOT
BRANCH  10  12
HETATM   12  N5  UNL     1      76.861  84.726  15.368  1.00  0.00    -0.343 N
ATOM     13  H52 UNL     1      77.403  84.903  14.521  1.00  0.00     0.176 HD
ATOM     14  H51 UNL     1      76.621  83.770  15.631  1.00  0.00     0.176 HD
ENDBRANCH  10  12
TORSDOF 1
ENDMDL