MODEL 3
REMARK VINA RESULT: -5.290048673      1.193      1.832
REMARK  1 active torsions:
REMARK  status: ('A' for Active; 'I' for Inactive)
REMARK       I    between atoms: C1_4  and  N2_5
REMARK       I    between atoms: C1_4  and  N4_10
REMARK    1  A    between atoms: N2_5  and  N3_7
ROOT
HETATM    1  N1  UNL     1      78.741  88.806  21.279  1.00  0.00    -0.230 N
ATOM      2  H11 UNL     1      79.308  87.979  21.465  1.00  0.00     0.174 HD
ATOM      3  H12 UNL     1      78.245  89.218  22.069  1.00  0.00     0.174 HD
HETATM    4  C1  UNL     1      78.665  89.296  20.093  1.00  0.00     0.726 C
HETATM    5  N2  UNL     1      77.878  90.443  19.835  1.00  0.00    -0.136 N
ATOM      6  H2  UNL     1      78.049  90.993  18.994  1.00  0.00     0.205 HD
HETATM    7  N4  UNL     1      79.355  88.723  18.991  1.00  0.00    -0.011 N
HETATM    8  N5  UNL     1      80.286  89.154  18.132  1.00  0.00    -0.214 N
ATOM      9  H5  UNL     1      80.783  90.036  18.014  1.00  0.00     0.194 HD
HETATM   10  C2  UNL     1      80.313  87.997  17.497  1.00  0.00     0.357 A
HETATM   11  O1  UNL     1      80.936  87.520  16.524  1.00  0.00    -0.244 OA
HETATM   12  N6  UNL     1      79.380  87.555  18.352  1.00  0.00    -0.214 N
ATOM     13  H6  UNL     1      78.883  86.671  18.469  1.00  0.00     0.194 HD
ENDROOT
BRANCH   5  14
HETATM   14  N3  UNL     1      76.854  90.835  20.733  1.00  0.00    -0.331 N
ATOM     15  H32 UNL     1      76.794  90.370  21.639  1.00  0.00     0.177 HD
ATOM     16  H31 UNL     1      76.191  91.567  20.479  1.00  0.00     0.177 HD
ENDBRANCH   5  14
TORSDOF 1
ENDMDL