MODEL 5
REMARK VINA RESULT: -5.936863902      2.458      4.934
REMARK  1 active torsions:
REMARK  status: ('A' for Active; 'I' for Inactive)
REMARK       I    between atoms: C1_2  and  N2_4
REMARK       I    between atoms: N2_4  and  C2_6
REMARK       I    between atoms: C2_6  and  N3_8
REMARK    1  A    between atoms: N3_8  and  C3_10
ROOT
HETATM    1  N1  UNL     1      76.371  87.665  14.275  1.00  0.00    -0.040 NA
HETATM    2  C1  UNL     1      76.084  86.319  14.587  1.00  0.00     0.336 C
HETATM    3  O1  UNL     1      75.662  85.595  13.648  1.00  0.00    -0.251 OA
HETATM    4  N2  UNL     1      76.248  85.759  15.884  1.00  0.00    -0.263 N
ATOM      5  H2  UNL     1      76.020  84.776  16.037  1.00  0.00     0.174 HD
HETATM    6  C2  UNL     1      76.718  86.535  16.962  1.00  0.00     0.342 C
HETATM    7  O2  UNL     1      76.860  86.034  18.107  1.00  0.00    -0.246 OA
HETATM    8  N3  UNL     1      77.054  87.929  16.804  1.00  0.00    -0.139 N
ATOM      9  H3  UNL     1      76.543  88.524  16.153  1.00  0.00     0.189 HD
ENDROOT
BRANCH   8  10
HETATM   10  C3  UNL     1      78.025  88.397  17.515  1.00  0.00     0.712 A
HETATM   11  N4  UNL     1      78.024  88.791  18.811  1.00  0.00    -0.117 N
HETATM   12  N5  UNL     1      79.240  89.208  19.143  1.00  0.00     0.006 NA
ATOM     13  H4  UNL     1      77.216  88.771  19.434  1.00  0.00     0.202 HD
HETATM   14  N6  UNL     1      80.027  89.090  18.085  1.00  0.00     0.006 NA
HETATM   15  N7  UNL     1      79.289  88.600  17.103  1.00  0.00    -0.117 N
ATOM     16  H7  UNL     1      79.631  88.404  16.162  1.00  0.00     0.202 HD
ENDBRANCH   8  10
TORSDOF 1
ENDMDL