MODEL 2
REMARK VINA RESULT: -5.392241391      2.193      2.472
REMARK  4 active torsions:
REMARK  status: ('A' for Active; 'I' for Inactive)
REMARK    1  A    between atoms: N1_2  and  N2_4
REMARK       I    between atoms: C2_6  and  N4_8
REMARK    2  A    between atoms: N4_8  and  S1_10
REMARK    3  A    between atoms: S1_10  and  N5_11
REMARK    4  A    between atoms: S1_10  and  N6_15
ROOT
HETATM    1  N2  UNL     1      76.585  87.174  16.142  1.00  0.00    -0.278 N
ATOM      2  H2  UNL     1      75.944  86.416  16.374  1.00  0.00     0.189 HD
HETATM    3  C2  UNL     1      77.527  87.469  16.965  1.00  0.00     0.216 C
HETATM    4  N3  UNL     1      78.404  88.529  16.617  1.00  0.00    -0.061 NA
HETATM    5  N4  UNL     1      77.657  86.731  18.185  1.00  0.00    -0.257 N
ATOM      6  H4  UNL     1      77.540  85.718  18.228  1.00  0.00     0.181 HD
ENDROOT
BRANCH   5   7
HETATM    7  S1  UNL     1      77.997  87.605  19.464  1.00  0.00     0.194 S
HETATM    8  O1  UNL     1      77.575  86.788  20.657  1.00  0.00    -0.206 OA
BRANCH   7   9
HETATM    9  N5  UNL     1      79.684  87.847  19.520  1.00  0.00    -0.328 N
ATOM     10  H52 UNL     1      80.180  88.618  19.073  1.00  0.00     0.168 HD
ATOM     11  H51 UNL     1      80.100  87.096  20.071  1.00  0.00     0.168 HD
ENDBRANCH   7   9
BRANCH   7  12
HETATM   12  N6  UNL     1      77.076  89.005  19.394  1.00  0.00    -0.324 N
HETATM   13  C3  UNL     1      77.117  89.878  20.491  1.00  0.00     0.159 C
ATOM     14  H6  UNL     1      76.504  89.216  18.578  1.00  0.00     0.171 HD
ENDBRANCH   7  12
ENDBRANCH   5   7
BRANCH   1  15
HETATM   15  N1  UNL     1      76.417  87.854  14.957  1.00  0.00    -0.338 N
HETATM   16  C1  UNL     1      75.691  87.159  13.887  1.00  0.00     0.167 C
ATOM     17  H1  UNL     1      76.780  88.798  14.827  1.00  0.00     0.179 HD
ENDBRANCH   1  15
TORSDOF 4
ENDMDL