MODEL 2
REMARK VINA RESULT: -5.971798346      2.248      2.441
REMARK  1 active torsions:
REMARK  status: ('A' for Active; 'I' for Inactive)
REMARK       I    between atoms: C1_2  and  N2_4
REMARK       I    between atoms: N2_4  and  C2_6
REMARK       I    between atoms: C2_6  and  N3_8
REMARK    1  A    between atoms: N3_8  and  C3_10
ROOT
HETATM    1  N1  UNL     1      77.088  83.167  17.514  1.00  0.00    -0.040 NA
HETATM    2  C1  UNL     1      77.471  84.490  17.206  1.00  0.00     0.336 C
HETATM    3  O1  UNL     1      78.364  84.682  16.354  1.00  0.00    -0.251 OA
HETATM    4  N2  UNL     1      76.802  85.561  17.900  1.00  0.00    -0.263 N
ATOM      5  H2  UNL     1      76.080  85.340  18.586  1.00  0.00     0.174 HD
HETATM    6  C2  UNL     1      77.130  86.918  17.647  1.00  0.00     0.342 C
HETATM    7  O2  UNL     1      78.027  87.158  16.793  1.00  0.00    -0.246 OA
HETATM    8  N3  UNL     1      76.458  87.933  18.342  1.00  0.00    -0.140 N
ATOM      9  H3  UNL     1      75.525  88.180  18.015  1.00  0.00     0.189 HD
ENDROOT
BRANCH   8  10
HETATM   10  C3  UNL     1      76.908  88.574  19.345  1.00  0.00     0.701 A
HETATM   11  N4  UNL     1      76.538  89.843  19.641  1.00  0.00    -0.185 N
HETATM   12  C4  UNL     1      77.179  90.242  20.749  1.00  0.00     0.215 A
ATOM     13  H4  UNL     1      75.875  90.405  19.106  1.00  0.00     0.185 HD
HETATM   14  N5  UNL     1      77.954  89.230  21.156  1.00  0.00    -0.281 N
HETATM   15  N6  UNL     1      77.784  88.230  20.306  1.00  0.00    -0.131 N
ATOM     16  H5  UNL     1      78.564  89.229  21.973  1.00  0.00     0.188 HD
ATOM     17  H6  UNL     1      78.252  87.326  20.369  1.00  0.00     0.205 HD
ENDBRANCH   8  10
TORSDOF 1
ENDMDL