MODEL 2
REMARK VINA RESULT: -5.746378484      1.867      4.191
REMARK  2 active torsions:
REMARK  status: ('A' for Active; 'I' for Inactive)
REMARK    1  A    between atoms: N1_2  and  C2_4
REMARK    2  A    between atoms: C2_4  and  C3_8
ROOT
HETATM    1  C3  UNL     1      77.366  87.708  17.702  1.00  0.00     0.091 A
HETATM    2  C4  UNL     1      76.495  87.705  18.780  1.00  0.00     0.113 A
HETATM    3  N3  UNL     1      76.830  88.465  19.831  1.00  0.00    -0.318 N
ATOM      4  H3  UNL     1      76.207  88.481  20.638  1.00  0.00     0.170 HD
HETATM    5  C5  UNL     1      77.953  89.212  19.872  1.00  0.00     0.327 A
HETATM    6  O1  UNL     1      78.230  89.913  20.880  1.00  0.00    -0.247 OA
HETATM    7  N4  UNL     1      78.808  89.220  18.820  1.00  0.00    -0.275 N
ATOM      8  H4  UNL     1      79.657  89.785  18.851  1.00  0.00     0.173 HD
HETATM    9  C6  UNL     1      78.529  88.477  17.738  1.00  0.00     0.264 A
HETATM   10  O2  UNL     1      79.318  88.486  16.772  1.00  0.00    -0.267 OA
ENDROOT
BRANCH   1  11
HETATM   11  C2  UNL     1      77.095  86.915  16.510  1.00  0.00     0.111 C
HETATM   12  N2  UNL     1      77.354  85.654  16.505  1.00  0.00    -0.385 N
ATOM     13  H22 UNL     1      77.165  85.099  15.671  1.00  0.00     0.157 HD
ATOM     14  H21 UNL     1      77.747  85.170  17.313  1.00  0.00     0.157 HD
BRANCH  11  15
HETATM   15  N1  UNL     1      76.547  87.589  15.384  1.00  0.00    -0.380 N
HETATM   16  C1  UNL     1      75.959  86.756  14.343  1.00  0.00     0.147 C
ATOM     17  H1  UNL     1      76.564  88.606  15.309  1.00  0.00     0.160 HD
ENDBRANCH  11  15
ENDBRANCH   1  11
TORSDOF 2
ENDMDL