MODEL 2
REMARK VINA RESULT: -6.368035667      1.001      1.192
REMARK  2 active torsions:
REMARK  status: ('A' for Active; 'I' for Inactive)
REMARK    1  A    between atoms: C2_5  and  N2_6
REMARK    2  A    between atoms: N2_6  and  C3_8
ROOT
HETATM    1  C3  UNL     1      77.623  88.450  17.880  1.00  0.00     0.122 A
HETATM    2  C4  UNL     1      78.608  88.211  18.818  1.00  0.00     0.055 A
HETATM    3  C5  UNL     1      78.349  88.562  20.124  1.00  0.00     0.079 A
HETATM    4  C6  UNL     1      77.143  89.133  20.478  1.00  0.00     0.259 A
HETATM    5  O2  UNL     1      76.885  89.462  21.665  1.00  0.00    -0.267 OA
HETATM    6  N3  UNL     1      76.229  89.341  19.537  1.00  0.00    -0.265 N
ATOM      7  H3  UNL     1      75.336  89.762  19.790  1.00  0.00     0.190 HD
HETATM    8  N4  UNL     1      76.462  89.007  18.265  1.00  0.00    -0.283 N
ATOM      9  H4  UNL     1      75.738  89.179  17.567  1.00  0.00     0.188 HD
ENDROOT
BRANCH   1  10
HETATM   10  N2  UNL     1      77.856  88.126  16.669  1.00  0.00    -0.313 N
ATOM     11  H2  UNL     1      78.736  88.429  16.252  1.00  0.00     0.170 HD
BRANCH  10  12
HETATM   12  C2  UNL     1      76.967  87.374  15.871  1.00  0.00     0.193 A
HETATM   13  N1  UNL     1      76.539  86.158  15.946  1.00  0.00    -0.280 N
HETATM   14  C1  UNL     1      75.743  86.315  14.787  1.00  0.00     0.329 A
ATOM     15  H1  UNL     1      76.709  85.386  16.590  1.00  0.00     0.173 HD
HETATM   16  O1  UNL     1      74.976  85.565  14.153  1.00  0.00    -0.246 OA
HETATM   17  N5  UNL     1      76.212  87.650  14.706  1.00  0.00    -0.280 N
ATOM     18  H5  UNL     1      76.070  88.449  14.087  1.00  0.00     0.173 HD
ENDBRANCH  10  12
ENDBRANCH   1  10
TORSDOF 2
ENDMDL