MODEL 3
REMARK VINA RESULT: -5.671287129      1.548      5.093
REMARK  2 active torsions:
REMARK  status: ('A' for Active; 'I' for Inactive)
REMARK       I    between atoms: C1_2  and  N2_4
REMARK    1  A    between atoms: N2_4  and  C2_6
REMARK    2  A    between atoms: C4_10  and  C5_11
ROOT
HETATM    1  C2  UNL     1      77.138  87.899  18.547  1.00  0.00     0.686 A
HETATM    2  N3  UNL     1      77.239  88.619  17.422  1.00  0.00    -0.199 N
ATOM      3  H3  UNL     1      77.301  89.634  17.355  1.00  0.00     0.183 HD
HETATM    4  C3  UNL     1      77.243  87.758  16.408  1.00  0.00     0.141 A
HETATM    5  C4  UNL     1      77.142  86.464  16.877  1.00  0.00     0.130 A
HETATM    6  N5  UNL     1      77.078  86.594  18.233  1.00  0.00    -0.185 N
ATOM      7  H5  UNL     1      76.998  85.827  18.900  1.00  0.00     0.184 HD
ENDROOT
BRANCH   1   8
HETATM    8  N2  UNL     1      77.098  88.318  19.766  1.00  0.00    -0.143 N
HETATM    9  C1  UNL     1      76.621  89.576  20.156  1.00  0.00     0.346 C
HETATM   10  N1  UNL     1      77.311  90.438  21.061  1.00  0.00    -0.039 NA
HETATM   11  O1  UNL     1      75.522  89.990  19.695  1.00  0.00    -0.250 OA
ATOM     12  H2  UNL     1      77.437  87.690  20.497  1.00  0.00     0.188 HD
ENDBRANCH   1   8
BRANCH   5  13
HETATM   13  C5  UNL     1      77.111  85.238  16.097  1.00  0.00     0.283 C
HETATM   14  N4  UNL     1      78.198  84.343  16.187  1.00  0.00    -0.056 NA
HETATM   15  O2  UNL     1      76.152  84.960  15.357  1.00  0.00    -0.269 OA
ENDBRANCH   5  13
TORSDOF 2
ENDMDL