MODEL 4
REMARK VINA RESULT: -5.368927036      2.969      4.736
REMARK  4 active torsions:
REMARK  status: ('A' for Active; 'I' for Inactive)
REMARK    1  A    between atoms: N1_1  and  N2_4
REMARK    2  A    between atoms: N2_4  and  C1_6
REMARK    3  A    between atoms: C1_6  and  N3_8
REMARK    4  A    between atoms: N3_8  and  C2_10
ROOT
HETATM    1  C2  UNL     1      77.145  87.875  17.716  1.00  0.00     0.703 A
HETATM    2  N4  UNL     1      76.462  86.826  18.177  1.00  0.00    -0.128 N
ATOM      3  H4  UNL     1      76.146  86.687  19.137  1.00  0.00     0.205 HD
HETATM    4  N5  UNL     1      76.269  86.005  17.167  1.00  0.00    -0.237 N
ATOM      5  H5  UNL     1      75.774  85.116  17.225  1.00  0.00     0.192 HD
HETATM    6  C3  UNL     1      76.817  86.506  16.049  1.00  0.00     0.353 A
HETATM    7  O1  UNL     1      76.818  85.976  14.890  1.00  0.00    -0.245 OA
HETATM    8  N6  UNL     1      77.362  87.678  16.411  1.00  0.00    -0.139 N
ATOM      9  H6  UNL     1      77.861  88.316  15.790  1.00  0.00     0.189 HD
ENDROOT
BRANCH   1  10
HETATM   10  N3  UNL     1      77.504  88.869  18.438  1.00  0.00    -0.163 N
ATOM     11  H3  UNL     1      77.125  89.784  18.195  1.00  0.00     0.186 HD
BRANCH  10  12
HETATM   12  C1  UNL     1      78.378  88.804  19.541  1.00  0.00     0.204 C
HETATM   13  S1  UNL     1      79.825  88.077  19.369  1.00  0.00    -0.039 SA
BRANCH  12  14
HETATM   14  N2  UNL     1      78.066  89.345  20.817  1.00  0.00    -0.282 N
ATOM     15  H2  UNL     1      78.405  88.881  21.660  1.00  0.00     0.189 HD
BRANCH  14  16
HETATM   16  N1  UNL     1      77.300  90.506  20.929  1.00  0.00    -0.343 N
ATOM     17  H12 UNL     1      77.778  91.403  21.008  1.00  0.00     0.176 HD
ATOM     18  H11 UNL     1      76.281  90.458  20.932  1.00  0.00     0.176 HD
ENDBRANCH  14  16
ENDBRANCH  12  14
ENDBRANCH  10  12
ENDBRANCH   1  10
TORSDOF 4
ENDMDL