MODEL 1
REMARK VINA RESULT: -6.707968497      0.000      0.000
REMARK  1 active torsions:
REMARK  status: ('A' for Active; 'I' for Inactive)
REMARK    1  A    between atoms: C2_2  and  C3_3
ROOT
HETATM    1  C1  UNL     1      78.932  88.816  20.226  1.00  0.00     0.074 C
HETATM    2  C2  UNL     1      77.673  88.234  19.564  1.00  0.00     0.188 C
HETATM    3  N2  UNL     1      77.732  86.809  19.781  1.00  0.00    -0.308 N
ATOM      4  H2  UNL     1      78.022  86.477  20.700  1.00  0.00     0.167 HD
HETATM    5  C4  UNL     1      77.412  85.839  18.792  1.00  0.00     0.326 C
HETATM    6  O2  UNL     1      77.275  84.629  19.041  1.00  0.00    -0.247 OA
HETATM    7  N3  UNL     1      77.234  86.271  17.432  1.00  0.00    -0.261 N
ATOM      8  H3  UNL     1      77.004  85.604  16.695  1.00  0.00     0.175 HD
HETATM    9  C5  UNL     1      77.390  87.656  17.145  1.00  0.00     0.326 C
HETATM   10  O3  UNL     1      77.233  88.031  15.941  1.00  0.00    -0.247 OA
HETATM   11  N4  UNL     1      77.712  88.590  18.170  1.00  0.00    -0.308 N
ATOM     12  H4  UNL     1      77.977  89.539  17.910  1.00  0.00     0.167 HD
ENDROOT
BRANCH   2  13
HETATM   13  C3  UNL     1      76.530  88.800  20.288  1.00  0.00     0.280 C
HETATM   14  N1  UNL     1      75.628  89.728  19.703  1.00  0.00    -0.058 NA
HETATM   15  O1  UNL     1      76.359  88.434  21.481  1.00  0.00    -0.272 OA
ENDBRANCH   2  13
TORSDOF 1
ENDMDL