MODEL 5
REMARK VINA RESULT: -6.280381422      2.147      3.719
REMARK  0 active torsions:
REMARK  status: ('A' for Active; 'I' for Inactive)
ROOT
HETATM    1  O1  UNL     1      80.656  88.483  16.357  1.00  0.00    -0.247 OA
HETATM    2  C1  UNL     1      79.871  88.442  17.364  1.00  0.00     0.328 A
HETATM    3  N1  UNL     1      80.352  88.091  18.569  1.00  0.00    -0.273 N
ATOM      4  H1  UNL     1      81.339  87.857  18.677  1.00  0.00     0.173 HD
HETATM    5  C2  UNL     1      79.524  88.047  19.637  1.00  0.00     0.280 A
HETATM    6  O2  UNL     1      79.937  87.721  20.783  1.00  0.00    -0.265 OA
HETATM    7  C3  UNL     1      78.188  88.356  19.522  1.00  0.00     0.149 A
HETATM    8  N2  UNL     1      77.135  88.406  20.372  1.00  0.00    -0.301 N
ATOM      9  H2  UNL     1      77.177  88.191  21.369  1.00  0.00     0.171 HD
HETATM   10  C4  UNL     1      76.026  88.781  19.709  1.00  0.00     0.326 A
HETATM   11  O3  UNL     1      74.868  88.925  20.206  1.00  0.00    -0.247 OA
HETATM   12  N3  UNL     1      76.408  88.963  18.432  1.00  0.00    -0.292 N
ATOM     13  H3  UNL     1      75.783  89.252  17.680  1.00  0.00     0.172 HD
HETATM   14  C5  UNL     1      77.715  88.715  18.276  1.00  0.00     0.146 A
HETATM   15  N4  UNL     1      78.570  88.751  17.217  1.00  0.00    -0.292 N
ATOM     16  H4  UNL     1      78.217  89.017  16.297  1.00  0.00     0.172 HD
ENDROOT
TORSDOF 0
ENDMDL