MODEL 3
REMARK VINA RESULT: -5.411638459      1.853      3.857
REMARK  1 active torsions:
REMARK  status: ('A' for Active; 'I' for Inactive)
REMARK    1  A    between atoms: C5_11  and  C6_12
ROOT
HETATM    1  C1  UNL     1      77.067  88.215  16.316  1.00  0.00     0.069 C
HETATM    2  C2  UNL     1      77.260  88.488  17.760  1.00  0.00     0.030 A
HETATM    3  N1  UNL     1      76.328  89.235  18.415  1.00  0.00    -0.312 N
ATOM      4  H1  UNL     1      75.519  89.590  17.905  1.00  0.00     0.170 HD
HETATM    5  C3  UNL     1      76.458  89.508  19.720  1.00  0.00     0.327 A
HETATM    6  O1  UNL     1      75.580  90.201  20.298  1.00  0.00    -0.247 OA
HETATM    7  N2  UNL     1      77.536  89.025  20.369  1.00  0.00    -0.275 N
ATOM      8  H2  UNL     1      77.644  89.228  21.363  1.00  0.00     0.173 HD
HETATM    9  C4  UNL     1      78.473  88.287  19.755  1.00  0.00     0.266 A
HETATM   10  O2  UNL     1      79.451  87.858  20.378  1.00  0.00    -0.267 OA
HETATM   11  C5  UNL     1      78.368  87.982  18.392  1.00  0.00     0.119 A
ENDROOT
BRANCH  11  12
HETATM   12  C6  UNL     1      79.401  87.180  17.758  1.00  0.00     0.272 C
HETATM   13  N3  UNL     1      80.641  87.819  17.457  1.00  0.00    -0.057 NA
HETATM   14  O3  UNL     1      79.243  85.973  17.473  1.00  0.00    -0.271 OA
ENDBRANCH  11  12
TORSDOF 1
ENDMDL