MODEL 4
REMARK VINA RESULT: -6.112775869      2.937      4.103
REMARK  1 active torsions:
REMARK  status: ('A' for Active; 'I' for Inactive)
REMARK    1  A    between atoms: N3_4  and  N4_6
ROOT
HETATM    1  N4  UNL     1      78.292  86.678  20.381  1.00  0.00    -0.279 N
ATOM      2  H4  UNL     1      77.800  87.105  21.165  1.00  0.00     0.189 HD
HETATM    3  C2  UNL     1      78.802  87.460  19.498  1.00  0.00     0.193 A
HETATM    4  N5  UNL     1      79.525  87.081  18.330  1.00  0.00    -0.289 N
ATOM      5  H5  UNL     1      79.739  86.129  18.034  1.00  0.00     0.172 HD
HETATM    6  C3  UNL     1      79.894  88.282  17.652  1.00  0.00     0.328 A
HETATM    7  O1  UNL     1      80.548  88.336  16.572  1.00  0.00    -0.247 OA
HETATM    8  N6  UNL     1      79.406  89.404  18.387  1.00  0.00    -0.272 N
ATOM      9  H6  UNL     1      79.524  90.385  18.134  1.00  0.00     0.174 HD
HETATM   10  C4  UNL     1      78.730  88.916  19.529  1.00  0.00     0.295 A
HETATM   11  O2  UNL     1      78.158  89.580  20.431  1.00  0.00    -0.264 OA
ENDROOT
BRANCH   1  12
HETATM   12  N3  UNL     1      78.365  85.298  20.343  1.00  0.00    -0.274 N
HETATM   13  C1  UNL     1      77.663  84.629  19.487  1.00  0.00     0.215 C
HETATM   14  N1  UNL     1      76.808  85.322  18.579  1.00  0.00    -0.065 NA
HETATM   15  N2  UNL     1      77.755  83.204  19.467  1.00  0.00    -0.065 NA
ATOM     16  H3  UNL     1      78.976  84.805  20.993  1.00  0.00     0.189 HD
ENDBRANCH   1  12
TORSDOF 1
ENDMDL