MODEL 4
REMARK VINA RESULT: -5.418866058      1.441      2.781
REMARK  4 active torsions:
REMARK  status: ('A' for Active; 'I' for Inactive)
REMARK       I    between atoms: C1_4  and  N2_5
REMARK       I    between atoms: C1_4  and  N5_11
REMARK    1  A    between atoms: N2_5  and  N3_7
REMARK    2  A    between atoms: N3_7  and  N4_8
REMARK    3  A    between atoms: N5_11  and  S1_13
REMARK    4  A    between atoms: S1_13  and  N6_14
ROOT
HETATM    1  N1  UNL     1      76.780  87.790  17.068  1.00  0.00    -0.233 N
ATOM      2  H11 UNL     1      77.482  87.589  16.357  1.00  0.00     0.174 HD
ATOM      3  H12 UNL     1      75.821  87.462  16.958  1.00  0.00     0.174 HD
HETATM    4  C1  UNL     1      77.044  88.458  18.131  1.00  0.00     0.699 C
HETATM    5  N2  UNL     1      76.068  88.737  19.120  1.00  0.00    -0.116 N
ATOM      6  H2  UNL     1      75.150  88.294  19.074  1.00  0.00     0.203 HD
HETATM    7  N5  UNL     1      78.381  88.916  18.286  1.00  0.00    -0.099 N
ATOM      8  H5  UNL     1      78.560  89.823  18.717  1.00  0.00     0.199 HD
ENDROOT
BRANCH   5   9
HETATM    9  N3  UNL     1      76.369  89.623  20.160  1.00  0.00    -0.015 NA
BRANCH   9  10
HETATM   10  N4  UNL     1      76.962  88.861  21.177  1.00  0.00    -0.328 N
ATOM     11  H42 UNL     1      77.418  89.229  22.012  1.00  0.00     0.174 HD
ATOM     12  H41 UNL     1      76.847  87.882  20.915  1.00  0.00     0.174 HD
ENDBRANCH   9  10
ENDBRANCH   5   9
BRANCH   7  13
HETATM   13  S1  UNL     1      79.709  87.942  17.747  1.00  0.00     0.330 S
HETATM   14  O1  UNL     1      80.273  88.510  16.463  1.00  0.00    -0.182 OA
HETATM   15  O2  UNL     1      79.218  86.534  17.558  1.00  0.00    -0.182 OA
BRANCH  13  16
HETATM   16  N6  UNL     1      80.935  88.030  18.936  1.00  0.00    -0.311 N
ATOM     17  H62 UNL     1      81.938  88.024  18.752  1.00  0.00     0.170 HD
ATOM     18  H61 UNL     1      80.479  88.090  19.847  1.00  0.00     0.170 HD
ENDBRANCH  13  16
ENDBRANCH   7  13
TORSDOF 4
ENDMDL