MODEL 4
REMARK VINA RESULT: -6.245561783      1.371      1.685
REMARK  1 active torsions:
REMARK  status: ('A' for Active; 'I' for Inactive)
REMARK       I    between atoms: N1_1  and  C1_4
REMARK       I    between atoms: C1_4  and  N3_6
REMARK    1  A    between atoms: N3_6  and  C2_8
ROOT
HETATM    1  C2  UNL     1      77.528  87.656  17.811  1.00  0.00     0.192 A
HETATM    2  N4  UNL     1      76.731  88.734  17.845  1.00  0.00    -0.277 N
ATOM      3  H4  UNL     1      76.355  89.141  16.989  1.00  0.00     0.189 HD
HETATM    4  N5  UNL     1      76.450  89.248  19.031  1.00  0.00    -0.250 N
ATOM      5  H5  UNL     1      75.843  90.067  19.071  1.00  0.00     0.192 HD
HETATM    6  C3  UNL     1      76.919  88.751  20.181  1.00  0.00     0.341 A
HETATM    7  O1  UNL     1      76.648  89.248  21.315  1.00  0.00    -0.245 OA
HETATM    8  N6  UNL     1      77.726  87.666  20.182  1.00  0.00    -0.271 N
ATOM      9  H6  UNL     1      78.093  87.274  21.050  1.00  0.00     0.174 HD
HETATM   10  C4  UNL     1      78.023  87.126  18.982  1.00  0.00     0.295 A
HETATM   11  O2  UNL     1      78.782  86.104  18.989  1.00  0.00    -0.264 OA
ENDROOT
BRANCH   1  12
HETATM   12  N3  UNL     1      77.837  87.107  16.691  1.00  0.00    -0.311 N
HETATM   13  C1  UNL     1      76.913  86.745  15.699  1.00  0.00     0.187 C
HETATM   14  N1  UNL     1      76.138  85.717  15.870  1.00  0.00    -0.373 N
HETATM   15  N2  UNL     1      76.764  87.457  14.473  1.00  0.00    -0.064 NA
ATOM     16  H12 UNL     1      75.467  85.454  15.149  1.00  0.00     0.158 HD
ATOM     17  H11 UNL     1      76.245  85.208  16.748  1.00  0.00     0.158 HD
ATOM     18  H3  UNL     1      78.824  86.922  16.511  1.00  0.00     0.170 HD
ENDBRANCH   1  12
TORSDOF 1
ENDMDL