MODEL 4
REMARK VINA RESULT: -5.955601610      1.088      1.088
REMARK  0 active torsions:
REMARK  status: ('A' for Active; 'I' for Inactive)
REMARK       I    between atoms: C1_4  and  N3_6
ROOT
HETATM    1  N1  UNL     1      78.767  85.560  18.308  1.00  0.00    -0.373 N
ATOM      2  H11 UNL     1      78.165  85.334  19.099  1.00  0.00     0.158 HD
ATOM      3  H12 UNL     1      79.177  84.846  17.706  1.00  0.00     0.158 HD
HETATM    4  C1  UNL     1      79.018  86.796  18.064  1.00  0.00     0.200 C
HETATM    5  N2  UNL     1      79.856  87.111  16.963  1.00  0.00    -0.063 NA
HETATM    6  N3  UNL     1      78.446  87.791  18.904  1.00  0.00    -0.187 N
HETATM    7  C2  UNL     1      78.883  88.045  20.150  1.00  0.00     0.341 A
HETATM    8  O1  UNL     1      79.845  87.369  20.591  1.00  0.00    -0.246 OA
HETATM    9  N4  UNL     1      78.358  88.976  20.955  1.00  0.00    -0.260 N
ATOM     10  H4  UNL     1      78.730  89.128  21.892  1.00  0.00     0.175 HD
HETATM   11  C3  UNL     1      77.326  89.708  20.496  1.00  0.00     0.332 A
HETATM   12  O2  UNL     1      76.806  90.600  21.237  1.00  0.00    -0.246 OA
HETATM   13  N5  UNL     1      76.844  89.492  19.242  1.00  0.00    -0.260 N
ATOM     14  H5  UNL     1      76.062  90.044  18.888  1.00  0.00     0.175 HD
HETATM   15  C4  UNL     1      77.410  88.543  18.474  1.00  0.00     0.341 A
HETATM   16  O3  UNL     1      76.923  88.386  17.322  1.00  0.00    -0.246 OA
ENDROOT
TORSDOF 0
ENDMDL