MODEL 1
REMARK VINA RESULT: -6.334946047      0.000      0.000
REMARK  2 active torsions:
REMARK  status: ('A' for Active; 'I' for Inactive)
REMARK       I    between atoms: C1_2  and  N2_4
REMARK    1  A    between atoms: N2_4  and  C2_5
REMARK    2  A    between atoms: C2_5  and  N3_6
ROOT
HETATM    1  C2  UNL     1      78.056  88.328  18.735  1.00  0.00     0.421 C
HETATM    2  N4  UNL     1      76.923  89.057  19.324  1.00  0.00    -0.274 N
ATOM      3  H4  UNL     1      75.963  89.097  18.983  1.00  0.00     0.170 HD
HETATM    4  C3  UNL     1      77.470  89.703  20.487  1.00  0.00     0.327 C
HETATM    5  O2  UNL     1      77.173  90.786  21.033  1.00  0.00    -0.247 OA
HETATM    6  N5  UNL     1      78.503  88.790  20.931  1.00  0.00    -0.273 N
ATOM      7  H5  UNL     1      79.109  88.920  21.741  1.00  0.00     0.173 HD
HETATM    8  C4  UNL     1      78.524  87.683  20.041  1.00  0.00     0.319 C
HETATM    9  O3  UNL     1      78.826  86.485  20.197  1.00  0.00    -0.265 OA
ENDROOT
BRANCH   1  10
HETATM   10  N2  UNL     1      77.851  87.511  17.732  1.00  0.00    -0.329 NA
HETATM   11  C1  UNL     1      77.633  86.642  16.667  1.00  0.00     0.405 C
HETATM   12  N1  UNL     1      78.277  85.327  16.703  1.00  0.00    -0.025 NA
HETATM   13  O1  UNL     1      76.944  86.832  15.641  1.00  0.00    -0.234 OA
ENDBRANCH   1  10
BRANCH   1  14
HETATM   14  N3  UNL     1      79.081  89.384  18.501  1.00  0.00    -0.012 N
ATOM     15  H33 UNL     1      80.012  89.016  18.696  1.00  0.00     0.281 HD
ATOM     16  H32 UNL     1      79.168  89.572  17.502  1.00  0.00     0.281 HD
ATOM     17  H31 UNL     1      78.936  90.256  19.010  1.00  0.00     0.281 HD
ENDBRANCH   1  14
TORSDOF 2
ENDMDL