MODEL 1
REMARK VINA RESULT: -5.942213926      0.000      0.000
REMARK  3 active torsions:
REMARK  status: ('A' for Active; 'I' for Inactive)
REMARK    1  A    between atoms: N1_1  and  O1_4
REMARK    2  A    between atoms: O1_4  and  N2_5
REMARK       I    between atoms: N2_5  and  C1_7
REMARK       I    between atoms: C1_7  and  N3_9
REMARK    3  A    between atoms: N3_9  and  C2_11
ROOT
HETATM    1  N2  UNL     1      76.372  87.290  14.779  1.00  0.00    -0.191 N
ATOM      2  H2  UNL     1      75.941  88.199  14.610  1.00  0.00     0.201 HD
HETATM    3  C1  UNL     1      77.107  87.079  16.038  1.00  0.00     0.360 C
HETATM    4  O2  UNL     1      77.595  85.939  16.154  1.00  0.00    -0.244 OA
HETATM    5  N3  UNL     1      77.195  88.059  16.928  1.00  0.00    -0.138 N
ATOM      6  H3  UNL     1      76.987  88.897  16.383  1.00  0.00     0.189 HD
ENDROOT
BRANCH   5   7
HETATM    7  C2  UNL     1      77.392  88.493  18.057  1.00  0.00     0.705 A
HETATM    8  N4  UNL     1      78.468  89.149  18.571  1.00  0.00    -0.128 N
HETATM    9  N5  UNL     1      78.276  89.396  19.846  1.00  0.00    -0.237 N
ATOM     10  H4  UNL     1      79.301  89.411  18.042  1.00  0.00     0.205 HD
HETATM   11  C3  UNL     1      77.089  88.919  20.225  1.00  0.00     0.353 A
ATOM     12  H5  UNL     1      78.936  89.880  20.455  1.00  0.00     0.192 HD
HETATM   13  O3  UNL     1      76.619  89.002  21.400  1.00  0.00    -0.245 OA
HETATM   14  N6  UNL     1      76.544  88.370  19.144  1.00  0.00    -0.138 N
ATOM     15  H6  UNL     1      75.628  87.921  19.120  1.00  0.00     0.189 HD
ENDBRANCH   5   7
BRANCH   1  16
HETATM   16  O1  UNL     1      76.245  86.336  13.848  1.00  0.00    -0.160 OA
BRANCH  16  17
HETATM   17  N1  UNL     1      75.239  85.516  14.192  1.00  0.00    -0.286 N
ATOM     18  H12 UNL     1      75.093  85.137  15.128  1.00  0.00     0.186 HD
ATOM     19  H11 UNL     1      74.656  85.339  13.374  1.00  0.00     0.186 HD
ENDBRANCH  16  17
ENDBRANCH   1  16
TORSDOF 3
ENDMDL