MODEL 3
REMARK VINA RESULT: -6.031626424      2.381      4.059
REMARK  3 active torsions:
REMARK  status: ('A' for Active; 'I' for Inactive)
REMARK    1  A    between atoms: N1_1  and  N2_4
REMARK       I    between atoms: N2_4  and  C1_5
REMARK    2  A    between atoms: C1_5  and  C2_7
REMARK       I    between atoms: C2_7  and  N3_9
REMARK       I    between atoms: N3_9  and  C3_10
REMARK       I    between atoms: C3_10  and  N5_12
REMARK    3  A    between atoms: N5_12  and  N6_14
ROOT
HETATM    1  C2  UNL     1      78.085  86.602  19.378  1.00  0.00     0.403 C
HETATM    2  O2  UNL     1      77.960  85.390  19.817  1.00  0.00    -0.244 OA
HETATM    3  N3  UNL     1      77.539  87.632  19.986  1.00  0.00    -0.327 NA
HETATM    4  C3  UNL     1      77.027  88.663  20.302  1.00  0.00     0.285 C
HETATM    5  N4  UNL     1      76.750  88.910  21.695  1.00  0.00    -0.048 NA
HETATM    6  N5  UNL     1      76.630  89.745  19.442  1.00  0.00    -0.268 N
ATOM      7  H5  UNL     1      77.156  90.618  19.485  1.00  0.00     0.190 HD
ENDROOT
BRANCH   1   8
HETATM    8  C1  UNL     1      78.927  86.686  18.101  1.00  0.00     0.417 C
HETATM    9  N2  UNL     1      79.648  87.764  17.812  1.00  0.00    -0.283 NA
HETATM   10  O1  UNL     1      78.777  85.580  17.448  1.00  0.00    -0.242 OA
BRANCH   9  11
HETATM   11  N1  UNL     1      80.388  88.870  17.517  1.00  0.00    -0.276 N
ATOM     12  H12 UNL     1      79.818  88.052  17.731  1.00  0.00     0.191 HD
ATOM     13  H11 UNL     1      80.941  89.698  17.295  1.00  0.00     0.191 HD
ENDBRANCH   9  11
ENDBRANCH   1   8
BRANCH   6  14
HETATM   14  N6  UNL     1      75.568  89.657  18.562  1.00  0.00    -0.342 N
ATOM     15  H62 UNL     1      75.786  89.627  17.566  1.00  0.00     0.176 HD
ATOM     16  H61 UNL     1      74.595  89.622  18.866  1.00  0.00     0.176 HD
ENDBRANCH   6  14
TORSDOF 3
ENDMDL