MODEL 4
REMARK VINA RESULT: -6.375879470      2.168      2.469
REMARK  3 active torsions:
REMARK  status: ('A' for Active; 'I' for Inactive)
REMARK       I    between atoms: C1_2  and  N2_4
REMARK    1  A    between atoms: N2_4  and  N3_6
REMARK    2  A    between atoms: N3_6  and  C2_8
REMARK    3  A    between atoms: N7_15  and  O2_16
ROOT
HETATM    1  C2  UNL     1      77.015  88.688  19.462  1.00  0.00     0.755 A
HETATM    2  N4  UNL     1      76.056  89.582  19.241  1.00  0.00    -0.112 N
ATOM      3  H4  UNL     1      75.319  89.499  18.542  1.00  0.00     0.207 HD
HETATM    4  N5  UNL     1      76.214  90.591  20.067  1.00  0.00    -0.211 N
ATOM      5  H5  UNL     1      75.629  91.424  20.128  1.00  0.00     0.210 HD
HETATM    6  N6  UNL     1      77.275  90.318  20.803  1.00  0.00    -0.186 N
ATOM      7  H6  UNL     1      77.648  90.918  21.539  1.00  0.00     0.213 HD
HETATM    8  N7  UNL     1      77.782  89.157  20.447  1.00  0.00     0.035 N
ENDROOT
BRANCH   1   9
HETATM    9  N3  UNL     1      77.227  87.559  18.874  1.00  0.00    -0.123 N
ATOM     10  H3  UNL     1      77.674  86.814  19.409  1.00  0.00     0.206 HD
BRANCH   9  11
HETATM   11  N2  UNL     1      76.880  87.299  17.547  1.00  0.00    -0.239 N
HETATM   12  C1  UNL     1      77.669  87.631  16.438  1.00  0.00     0.347 C
HETATM   13  N1  UNL     1      77.206  87.315  15.136  1.00  0.00    -0.038 NA
HETATM   14  O1  UNL     1      78.784  88.203  16.518  1.00  0.00    -0.249 OA
ATOM     15  H2  UNL     1      75.989  86.835  17.372  1.00  0.00     0.192 HD
ENDBRANCH   9  11
ENDBRANCH   1   9
BRANCH   8  16
HETATM   16  O2  UNL     1      78.790  88.620  20.956  1.00  0.00    -0.253 OA
ATOM     17  H2  UNL     1      79.104  87.732  20.829  1.00  0.00     0.247 HD
ENDBRANCH   8  16
TORSDOF 3
ENDMDL