MODEL 1
REMARK VINA RESULT: -6.476121319      0.000      0.000
REMARK  3 active torsions:
REMARK  status: ('A' for Active; 'I' for Inactive)
REMARK    1  A    between atoms: C3_5  and  C4_6
REMARK    2  A    between atoms: C4_6  and  N2_7
REMARK    3  A    between atoms: N2_7  and  N3_9
ROOT
HETATM    1  C1  UNL     1      77.983  85.089  19.545  1.00  0.00     0.047 C
HETATM    2  C2  UNL     1      78.269  86.357  19.218  1.00  0.00     0.080 A
HETATM    3  N1  UNL     1      78.021  87.369  20.067  1.00  0.00    -0.339 N
ATOM      4  H1  UNL     1      77.607  87.146  20.972  1.00  0.00     0.167 HD
HETATM    5  C3  UNL     1      78.284  88.643  19.795  1.00  0.00     0.125 A
HETATM    6  N4  UNL     1      78.828  88.937  18.606  1.00  0.00    -0.305 N
ATOM      7  H4  UNL     1      79.039  89.908  18.376  1.00  0.00     0.170 HD
HETATM    8  C5  UNL     1      79.102  87.965  17.708  1.00  0.00     0.299 A
HETATM    9  O1  UNL     1      79.605  88.212  16.602  1.00  0.00    -0.264 OA
HETATM   10  C6  UNL     1      78.824  86.627  17.998  1.00  0.00     0.265 A
HETATM   11  O2  UNL     1      79.090  85.740  17.142  1.00  0.00    -0.280 OA
ENDROOT
BRANCH   5  12
HETATM   12  C4  UNL     1      78.024  89.613  20.661  1.00  0.00     0.155 C
BRANCH  12  13
HETATM   13  N2  UNL     1      76.974  90.523  20.476  1.00  0.00    -0.315 N
ATOM     14  H2  UNL     1      77.029  91.455  20.887  1.00  0.00     0.185 HD
BRANCH  13  15
HETATM   15  N3  UNL     1      75.861  90.160  19.735  1.00  0.00    -0.345 N
ATOM     16  H32 UNL     1      75.010  89.883  20.226  1.00  0.00     0.176 HD
ATOM     17  H31 UNL     1      75.898  90.171  18.716  1.00  0.00     0.176 HD
ENDBRANCH  13  15
ENDBRANCH  12  13
ENDBRANCH   5  12
TORSDOF 3
ENDMDL