MODEL 2
REMARK VINA RESULT: -5.390448508      1.545      1.782
REMARK  3 active torsions:
REMARK  status: ('A' for Active; 'I' for Inactive)
REMARK    1  A    between atoms: C3_3  and  N1_4
REMARK    2  A    between atoms: C3_3  and  C4_8
REMARK       I    between atoms: C4_8  and  N2_10
REMARK    3  A    between atoms: N2_10  and  N3_12
ROOT
HETATM    1  C1  UNL     1      78.363  85.482  20.139  1.00  0.00     0.015 C
HETATM    2  C2  UNL     1      78.650  86.517  19.584  1.00  0.00    -0.075 C
HETATM    3  C3  UNL     1      78.976  87.781  18.925  1.00  0.00     0.353 C
ENDROOT
BRANCH   3   4
HETATM    4  N1  UNL     1      80.401  88.018  18.971  1.00  0.00    -0.056 N
ATOM      5  H13 UNL     1      80.638  88.965  18.677  1.00  0.00     0.276 HD
ATOM      6  H12 UNL     1      80.748  88.067  19.929  1.00  0.00     0.276 HD
ATOM      7  H11 UNL     1      80.896  87.314  18.423  1.00  0.00     0.276 HD
ENDBRANCH   3   4
BRANCH   3   8
HETATM    8  C4  UNL     1      78.454  87.843  17.536  1.00  0.00     0.278 C
HETATM    9  O1  UNL     1      79.243  88.285  16.656  1.00  0.00    -0.268 OA
HETATM   10  N2  UNL     1      77.140  87.429  17.198  1.00  0.00    -0.265 N
ATOM     11  H2  UNL     1      76.514  87.073  17.919  1.00  0.00     0.190 HD
BRANCH  10  12
HETATM   12  N3  UNL     1      76.714  87.510  15.893  1.00  0.00    -0.273 N
HETATM   13  C5  UNL     1      76.683  86.552  15.052  1.00  0.00     0.215 C
HETATM   14  N4  UNL     1      77.084  85.227  15.312  1.00  0.00    -0.065 NA
HETATM   15  N5  UNL     1      76.203  86.851  13.737  1.00  0.00    -0.065 NA
ATOM     16  H3  UNL     1      76.394  88.422  15.567  1.00  0.00     0.189 HD
ENDBRANCH  10  12
ENDBRANCH   3   8
TORSDOF 3
ENDMDL