MODEL 1
REMARK VINA RESULT: -7.097403862      0.000      0.000
REMARK  5 active torsions:
REMARK  status: ('A' for Active; 'I' for Inactive)
REMARK       I    between atoms: C1_2  and  N1_3
REMARK    1  A    between atoms: C1_2  and  C12_15
REMARK    2  A    between atoms: N1_3  and  C2_4
REMARK    3  A    between atoms: C2_4  and  C3_5
REMARK    4  A    between atoms: C3_5  and  N2_6
REMARK       I    between atoms: C12_15  and  N3_17
REMARK    5  A    between atoms: N3_17  and  C13_19
ROOT
HETATM    1  O1  UNL     1       5.626  -5.096 -57.170  1.00  0.00    -0.246 OA
HETATM    2  C1  UNL     1       5.768  -5.836 -56.188  1.00  0.00     0.379 C
HETATM    3  N1  UNL     1       7.091  -6.082 -55.700  1.00  0.00    -0.405 NA
ENDROOT
BRANCH   2   4
HETATM    4  C12 UNL     1       4.587  -6.435 -55.563  1.00  0.00     0.324 C
HETATM    5  O2  UNL     1       3.963  -7.368 -56.148  1.00  0.00    -0.261 OA
HETATM    6  N3  UNL     1       4.193  -5.932 -54.317  1.00  0.00    -0.347 N
ATOM      7  H3  UNL     1       4.704  -5.152 -53.903  1.00  0.00     0.163 HD
BRANCH   6   8
HETATM    8  C13 UNL     1       3.063  -6.511 -53.604  1.00  0.00     0.085 C
HETATM    9  C14 UNL     1       2.436  -5.443 -52.677  1.00  0.00     0.025 C
HETATM   10  C15 UNL     1       1.073  -6.018 -52.323  1.00  0.00     0.002 C
HETATM   11  C16 UNL     1       1.233  -7.324 -51.610  1.00  0.00     0.000 C
HETATM   12  C17 UNL     1       2.618  -7.860 -51.515  1.00  0.00     0.002 C
HETATM   13  C18 UNL     1       3.500  -7.605 -52.685  1.00  0.00     0.025 C
ENDBRANCH   6   8
ENDBRANCH   2   4
BRANCH   3  14
HETATM   14  C2  UNL     1       8.308  -6.308 -55.253  1.00  0.00     0.253 C
BRANCH  14  15
HETATM   15  C3  UNL     1       8.390  -7.484 -54.203  1.00  0.00     0.063 A
HETATM   16  C9  UNL     1       7.422  -7.385 -53.076  1.00  0.00     0.034 A
HETATM   17  C10 UNL     1       8.558  -7.027 -52.104  1.00  0.00     0.005 A
HETATM   18  C11 UNL     1       9.485  -7.119 -53.286  1.00  0.00     0.034 A
BRANCH  15  19
HETATM   19  N2  UNL     1       8.354  -8.777 -54.847  1.00  0.00    -0.361 N
HETATM   20  C4  UNL     1       7.209  -9.520 -54.614  1.00  0.00     0.064 C
HETATM   21  C5  UNL     1       6.542 -10.142 -55.796  1.00  0.00     0.045 C
HETATM   22  C6  UNL     1       6.946  -9.441 -57.106  1.00  0.00     0.010 C
HETATM   23  C7  UNL     1       8.437  -9.582 -57.149  1.00  0.00     0.045 C
HETATM   24  C8  UNL     1       9.097  -8.825 -56.042  1.00  0.00     0.064 C
ENDBRANCH  15  19
ENDBRANCH  14  15
ENDBRANCH   3  14
TORSDOF 5
ENDMDL