MODEL 4
REMARK VINA RESULT: -6.533373372      1.338      1.468
REMARK  5 active torsions:
REMARK  status: ('A' for Active; 'I' for Inactive)
REMARK    1  A    between atoms: C2_2  and  S1_5
REMARK    2  A    between atoms: S1_5  and  N1_8
REMARK    3  A    between atoms: N1_8  and  C5_10
REMARK    4  A    between atoms: C5_10  and  C6_11
REMARK    5  A    between atoms: C6_11  and  N2_12
REMARK       I    between atoms: N2_12  and  C7_14
REMARK       I    between atoms: C7_14  and  N3_16
ROOT
HETATM    1  C6  UNL     1       6.134  -8.429 -55.370  1.00  0.00     0.051 C
HETATM    2  C11 UNL     1       7.158  -7.346 -55.354  1.00  0.00     0.033 C
HETATM    3  C12 UNL     1       8.405  -8.048 -55.844  1.00  0.00     0.002 C
HETATM    4  C13 UNL     1       8.357  -9.323 -55.028  1.00  0.00     0.002 C
HETATM    5  C14 UNL     1       6.888  -9.640 -54.906  1.00  0.00     0.033 C
ENDROOT
BRANCH   1   6
HETATM    6  C5  UNL     1       5.676  -8.733 -56.805  1.00  0.00     0.163 C
BRANCH   6   7
HETATM    7  N1  UNL     1       4.299  -8.585 -57.002  1.00  0.00    -0.317 N
ATOM      8  H1  UNL     1       3.602  -9.259 -56.684  1.00  0.00     0.172 HD
BRANCH   7   9
HETATM    9  S1  UNL     1       3.923  -7.153 -57.830  1.00  0.00     0.234 S
HETATM   10  O1  UNL     1       2.499  -7.285 -58.330  1.00  0.00    -0.205 OA
HETATM   11  O2  UNL     1       3.840  -6.056 -56.759  1.00  0.00    -0.205 OA
BRANCH   9  12
HETATM   12  C2  UNL     1       4.965  -6.646 -59.120  1.00  0.00     0.072 C
HETATM   13  C1  UNL     1       5.496  -7.712 -60.007  1.00  0.00     0.033 C
HETATM   14  C3  UNL     1       6.144  -5.829 -58.621  1.00  0.00     0.033 C
HETATM   15  C4  UNL     1       4.149  -5.703 -60.022  1.00  0.00     0.033 C
ENDBRANCH   9  12
ENDBRANCH   7   9
ENDBRANCH   6   7
ENDBRANCH   1   6
BRANCH   1  16
HETATM   16  N2  UNL     1       4.971  -8.099 -54.611  1.00  0.00    -0.332 N
HETATM   17  C7  UNL     1       4.863  -7.959 -53.212  1.00  0.00     0.319 C
HETATM   18  O3  UNL     1       5.871  -8.139 -52.503  1.00  0.00    -0.247 OA
HETATM   19  N3  UNL     1       3.650  -7.622 -52.567  1.00  0.00    -0.334 N
HETATM   20  C8  UNL     1       3.181  -7.402 -51.215  1.00  0.00     0.129 C
HETATM   21  C10 UNL     1       2.299  -7.342 -53.023  1.00  0.00     0.129 C
HETATM   22  C9  UNL     1       1.746  -7.694 -51.664  1.00  0.00     0.040 C
ATOM     23  H2  UNL     1       4.115  -7.947 -55.144  1.00  0.00     0.165 HD
ENDBRANCH   1  16
TORSDOF 5
ENDMDL