MODEL 3
REMARK VINA RESULT: -7.241488334      2.921      4.274
REMARK  4 active torsions:
REMARK  status: ('A' for Active; 'I' for Inactive)
REMARK    1  A    between atoms: C1_2  and  C2_3
REMARK       I    between atoms: C1_2  and  N3_17
REMARK    2  A    between atoms: C2_3  and  N1_4
REMARK    3  A    between atoms: N3_17  and  C12_19
REMARK    4  A    between atoms: C12_19  and  C13_20
ROOT
HETATM    1  N1  UNL     1       5.354  -5.765 -57.052  1.00  0.00    -0.323 N
HETATM    2  C3  UNL     1       6.666  -6.135 -56.595  1.00  0.00     0.159 C
HETATM    3  C4  UNL     1       6.677  -7.655 -56.469  1.00  0.00     0.051 C
HETATM    4  C5  UNL     1       7.957  -8.158 -56.981  1.00  0.00     0.033 C
HETATM    5  C6  UNL     1       8.690  -9.143 -56.157  1.00  0.00     0.002 C
HETATM    6  C7  UNL     1       8.857  -8.765 -54.722  1.00  0.00     0.000 C
HETATM    7  C8  UNL     1       7.832  -9.525 -53.913  1.00  0.00     0.000 C
HETATM    8  C9  UNL     1       6.508  -9.405 -54.668  1.00  0.00     0.002 C
HETATM    9  C10 UNL     1       6.339  -7.980 -55.052  1.00  0.00     0.033 C
HETATM   10  N2  UNL     1       5.558  -8.051 -57.295  1.00  0.00    -0.332 N
ATOM     11  H2  UNL     1       5.448  -8.942 -57.780  1.00  0.00     0.165 HD
HETATM   12  C11 UNL     1       4.638  -6.966 -57.306  1.00  0.00     0.319 C
HETATM   13  O2  UNL     1       3.392  -6.993 -57.499  1.00  0.00    -0.247 OA
ENDROOT
BRANCH   1  14
HETATM   14  C2  UNL     1       4.887  -4.417 -57.194  1.00  0.00     0.230 C
BRANCH  14  15
HETATM   15  C1  UNL     1       4.095  -4.002 -55.962  1.00  0.00     0.239 C
HETATM   16  O1  UNL     1       3.853  -2.753 -55.943  1.00  0.00    -0.271 OA
HETATM   17  N3  UNL     1       3.716  -4.941 -55.010  1.00  0.00    -0.339 N
ATOM     18  H3  UNL     1       4.018  -5.897 -55.193  1.00  0.00     0.167 HD
BRANCH  17  19
HETATM   19  C12 UNL     1       2.981  -4.759 -53.842  1.00  0.00     0.068 C
BRANCH  19  20
HETATM   20  C13 UNL     1       2.221  -5.834 -53.195  1.00  0.00     0.028 C
HETATM   21  C14 UNL     1       2.975  -7.052 -52.799  1.00  0.00     0.036 C
HETATM   22  C15 UNL     1       1.862  -8.075 -52.397  1.00  0.00     0.168 C
HETATM   23  O3  UNL     1       1.345  -7.582 -51.202  1.00  0.00    -0.391 OA
HETATM   24  C16 UNL     1       0.650  -6.404 -51.337  1.00  0.00     0.168 C
HETATM   25  C17 UNL     1       1.434  -5.290 -51.998  1.00  0.00     0.036 C
ENDBRANCH  19  20
ENDBRANCH  17  19
ENDBRANCH  14  15
ENDBRANCH   1  14
TORSDOF 4
ENDMDL