MODEL 5
REMARK VINA RESULT: -7.113673845      3.459      4.228
REMARK  4 active torsions:
REMARK  status: ('A' for Active; 'I' for Inactive)
REMARK       I    between atoms: C1_2  and  N1_3
REMARK       I    between atoms: C1_2  and  N2_11
REMARK    1  A    between atoms: N1_3  and  C2_5
REMARK    2  A    between atoms: C11_15  and  C12_16
REMARK    3  A    between atoms: C12_16  and  C13_17
REMARK    4  A    between atoms: C13_17  and  N3_18
ROOT
HETATM    1  O1  UNL     1       4.131  -7.017 -55.295  1.00  0.00    -0.247 OA
HETATM    2  C1  UNL     1       4.779  -7.300 -54.255  1.00  0.00     0.318 C
HETATM    3  N1  UNL     1       4.085  -7.324 -53.023  1.00  0.00    -0.338 N
ATOM      4  H1  UNL     1       4.596  -7.551 -52.170  1.00  0.00     0.164 HD
HETATM    5  N2  UNL     1       6.155  -7.572 -54.392  1.00  0.00    -0.334 N
HETATM    6  C8  UNL     1       7.043  -7.911 -53.289  1.00  0.00     0.127 C
HETATM    7  C9  UNL     1       7.472  -9.337 -53.521  1.00  0.00     0.020 C
HETATM    8  C10 UNL     1       7.998  -9.632 -54.871  1.00  0.00     0.008 C
HETATM    9  C11 UNL     1       7.515  -8.830 -56.003  1.00  0.00     0.005 C
HETATM   10  C18 UNL     1       6.829  -7.539 -55.681  1.00  0.00     0.132 C
ENDROOT
BRANCH   3  11
HETATM   11  C2  UNL     1       2.671  -7.037 -52.941  1.00  0.00     0.086 C
HETATM   12  C3  UNL     1       2.191  -7.571 -51.610  1.00  0.00     0.025 C
HETATM   13  C4  UNL     1       0.821  -7.105 -51.235  1.00  0.00     0.002 C
HETATM   14  C5  UNL     1       0.485  -5.725 -51.705  1.00  0.00     0.000 C
HETATM   15  C6  UNL     1       1.799  -4.955 -51.833  1.00  0.00     0.002 C
HETATM   16  C7  UNL     1       2.513  -5.536 -53.033  1.00  0.00     0.025 C
ENDBRANCH   3  11
BRANCH   9  17
HETATM   17  C12 UNL     1       8.618  -8.550 -56.995  1.00  0.00     0.036 C
BRANCH  17  18
HETATM   18  C13 UNL     1       8.450  -9.194 -58.326  1.00  0.00     0.273 C
BRANCH  18  19
HETATM   19  N3  UNL     1       9.714  -9.567 -58.911  1.00  0.00     0.092 N
HETATM   20  C14 UNL     1      10.830  -9.393 -58.015  1.00  0.00     0.298 C
HETATM   21  C15 UNL     1      12.101  -9.873 -58.723  1.00  0.00     0.198 C
HETATM   22  O2  UNL     1      11.936 -11.243 -58.887  1.00  0.00    -0.388 OA
HETATM   23  C16 UNL     1      10.969 -11.471 -59.824  1.00  0.00     0.198 C
HETATM   24  C17 UNL     1       9.637 -10.852 -59.509  1.00  0.00     0.298 C
ENDBRANCH  18  19
ENDBRANCH  17  18
ENDBRANCH   9  17
TORSDOF 4
ENDMDL