MODEL 5
REMARK VINA RESULT: -6.327560827      2.431      3.438
REMARK  5 active torsions:
REMARK  status: ('A' for Active; 'I' for Inactive)
REMARK    1  A    between atoms: C3_4  and  C4_5
REMARK       I    between atoms: C4_5  and  N1_7
REMARK    2  A    between atoms: C7_13  and  C8_14
REMARK    3  A    between atoms: C8_14  and  C9_15
REMARK       I    between atoms: C9_15  and  N4_17
REMARK    4  A    between atoms: N4_17  and  C11_19
REMARK    5  A    between atoms: C11_19  and  C12_20
ROOT
HETATM    1  C1  UNL     1       2.803  -8.014 -51.632  1.00  0.00     0.057 C
HETATM    2  C2  UNL     1       3.507  -7.394 -52.782  1.00  0.00    -0.010 A
HETATM    3  S1  UNL     1       2.778  -6.262 -53.871  1.00  0.00    -0.089 SA
HETATM    4  C3  UNL     1       4.098  -5.990 -54.898  1.00  0.00     0.074 A
HETATM    5  C6  UNL     1       5.065  -6.768 -54.388  1.00  0.00     0.037 A
HETATM    6  C7  UNL     1       4.772  -7.513 -53.274  1.00  0.00    -0.017 A
ENDROOT
BRANCH   6   7
HETATM    7  C8  UNL     1       5.858  -8.380 -52.692  1.00  0.00     0.086 C
BRANCH   7   8
HETATM    8  C9  UNL     1       6.948  -8.774 -53.504  1.00  0.00     0.243 C
HETATM    9  O2  UNL     1       6.803  -9.657 -54.391  1.00  0.00    -0.268 OA
HETATM   10  N4  UNL     1       8.254  -8.226 -53.376  1.00  0.00    -0.352 N
HETATM   11  C10 UNL     1       8.504  -7.094 -52.464  1.00  0.00     0.152 C
BRANCH  10  12
HETATM   12  C11 UNL     1       9.431  -8.736 -54.018  1.00  0.00     0.133 C
BRANCH  12  13
HETATM   13  C12 UNL     1       9.835  -8.231 -55.340  1.00  0.00    -0.035 C
HETATM   14  C13 UNL     1       9.807  -6.727 -55.506  1.00  0.00     0.016 C
HETATM   15  C14 UNL     1       9.293  -8.921 -56.536  1.00  0.00     0.016 C
HETATM   16  C15 UNL     1      11.388  -8.528 -55.380  1.00  0.00     0.016 C
ENDBRANCH  12  13
ENDBRANCH  10  12
ENDBRANCH   7   8
ENDBRANCH   6   7
BRANCH   4  17
HETATM   17  C4  UNL     1       4.140  -5.106 -56.062  1.00  0.00     0.264 C
HETATM   18  O1  UNL     1       3.959  -5.619 -57.188  1.00  0.00    -0.267 OA
HETATM   19  N1  UNL     1       4.371  -3.742 -55.971  1.00  0.00    -0.299 N
HETATM   20  C5  UNL     1       3.859  -2.816 -55.308  1.00  0.00     0.203 C
ATOM     21  H1  UNL     1       5.126  -3.425 -56.579  1.00  0.00     0.171 HD
HETATM   22  N2  UNL     1       2.782  -2.920 -54.366  1.00  0.00    -0.066 NA
HETATM   23  N3  UNL     1       4.363  -1.466 -55.470  1.00  0.00    -0.066 NA
ENDBRANCH   4  17
TORSDOF 5
ENDMDL