MODEL 5
REMARK VINA RESULT: -6.146620410      1.361      1.506
REMARK  5 active torsions:
REMARK  status: ('A' for Active; 'I' for Inactive)
REMARK    1  A    between atoms: C2_2  and  C4_4
REMARK    2  A    between atoms: C4_4  and  C5_5
REMARK    3  A    between atoms: C5_5  and  N1_6
REMARK    4  A    between atoms: C5_5  and  C6_10
REMARK       I    between atoms: C6_10  and  N2_12
REMARK       I    between atoms: N3_19  and  C13_20
REMARK       I    between atoms: C13_20  and  N4_22
REMARK    5  A    between atoms: N4_22  and  C14_24
ROOT
HETATM    1  C6  UNL     1       5.411  -6.892 -55.393  1.00  0.00     0.251 C
HETATM    2  O1  UNL     1       5.316  -6.557 -56.626  1.00  0.00    -0.271 OA
HETATM    3  N2  UNL     1       6.531  -7.707 -55.079  1.00  0.00    -0.339 N
HETATM    4  C7  UNL     1       6.775  -8.181 -53.705  1.00  0.00     0.127 C
HETATM    5  C8  UNL     1       7.342  -9.573 -53.903  1.00  0.00     0.022 C
HETATM    6  C9  UNL     1       8.231  -9.357 -55.091  1.00  0.00     0.034 C
HETATM    7  C10 UNL     1       7.585  -8.230 -55.861  1.00  0.00     0.053 C
HETATM    8  C11 UNL     1       8.681  -7.254 -56.225  1.00  0.00     0.053 C
HETATM    9  C12 UNL     1       9.517  -8.129 -57.176  1.00  0.00     0.130 C
HETATM   10  N3  UNL     1       8.565  -9.074 -57.731  1.00  0.00    -0.332 N
HETATM   11  C13 UNL     1       8.892 -10.128 -58.620  1.00  0.00     0.318 C
HETATM   12  O2  UNL     1       7.977 -10.889 -59.039  1.00  0.00    -0.247 OA
HETATM   13  N4  UNL     1      10.206 -10.383 -59.074  1.00  0.00    -0.339 N
ATOM     14  H4  UNL     1      10.950  -9.773 -58.739  1.00  0.00     0.164 HD
HETATM   15  C17 UNL     1       7.218  -8.760 -57.218  1.00  0.00     0.158 C
ENDROOT
BRANCH   1  16
HETATM   16  C5  UNL     1       4.407  -6.445 -54.400  1.00  0.00     0.275 C
BRANCH  16  17
HETATM   17  C4  UNL     1       3.503  -5.368 -54.940  1.00  0.00     0.046 C
BRANCH  17  18
HETATM   18  C2  UNL     1       3.180  -4.313 -53.917  1.00  0.00    -0.020 C
HETATM   19  C1  UNL     1       2.871  -2.979 -54.503  1.00  0.00     0.009 C
HETATM   20  C3  UNL     1       2.030  -4.733 -53.029  1.00  0.00     0.009 C
ENDBRANCH  17  18
ENDBRANCH  16  17
BRANCH  16  21
HETATM   21  N1  UNL     1       3.593  -7.627 -54.055  1.00  0.00    -0.066 N
ATOM     22  H13 UNL     1       3.797  -7.979 -53.120  1.00  0.00     0.275 HD
ATOM     23  H12 UNL     1       2.611  -7.394 -53.909  1.00  0.00     0.275 HD
ATOM     24  H11 UNL     1       3.721  -8.339 -54.775  1.00  0.00     0.275 HD
ENDBRANCH  16  21
ENDBRANCH   1  16
BRANCH  13  25
HETATM   25  C14 UNL     1      10.562 -11.437 -59.970  1.00  0.00     0.078 C
HETATM   26  C15 UNL     1      10.884 -10.915 -61.369  1.00  0.00     0.032 C
HETATM   27  C16 UNL     1      11.702 -12.293 -59.512  1.00  0.00     0.032 C
ENDBRANCH  13  25
TORSDOF 5
ENDMDL