MODEL 1
REMARK VINA RESULT: -6.749187416      0.000      0.000
REMARK  5 active torsions:
REMARK  status: ('A' for Active; 'I' for Inactive)
REMARK    1  A    between atoms: C3_3  and  N1_6
REMARK       I    between atoms: N1_6  and  C6_8
REMARK    2  A    between atoms: C6_8  and  C7_10
REMARK       I    between atoms: C7_10  and  N2_12
REMARK    3  A    between atoms: N2_12  and  C8_14
REMARK    4  A    between atoms: C8_14  and  C9_15
REMARK    5  A    between atoms: C9_15  and  N3_16
ROOT
HETATM    1  C1  UNL     1       0.657  -5.387 -51.591  1.00  0.00     0.015 C
HETATM    2  C2  UNL     1       1.329  -6.348 -51.843  1.00  0.00    -0.086 C
HETATM    3  C3  UNL     1       2.162  -7.524 -52.129  1.00  0.00     0.089 C
HETATM    4  C4  UNL     1       1.291  -8.782 -52.147  1.00  0.00     0.053 C
HETATM    5  C5  UNL     1       3.276  -7.652 -51.126  1.00  0.00     0.053 C
ENDROOT
BRANCH   3   6
HETATM    6  N1  UNL     1       2.740  -7.403 -53.447  1.00  0.00    -0.334 N
HETATM    7  C6  UNL     1       4.140  -7.546 -53.605  1.00  0.00     0.310 C
HETATM    8  O1  UNL     1       4.848  -7.773 -52.602  1.00  0.00    -0.262 OA
ATOM      9  H1  UNL     1       2.147  -7.216 -54.255  1.00  0.00     0.164 HD
BRANCH   7  10
HETATM   10  C7  UNL     1       4.792  -7.437 -54.901  1.00  0.00     0.309 C
HETATM   11  O2  UNL     1       4.850  -6.303 -55.432  1.00  0.00    -0.262 OA
HETATM   12  N2  UNL     1       5.356  -8.539 -55.586  1.00  0.00    -0.350 N
ATOM     13  H2  UNL     1       5.321  -9.471 -55.174  1.00  0.00     0.162 HD
BRANCH  12  14
HETATM   14  C8  UNL     1       5.978  -8.336 -56.859  1.00  0.00     0.164 C
BRANCH  14  15
HETATM   15  C9  UNL     1       7.477  -8.392 -56.816  1.00  0.00     0.175 C
HETATM   16  C15 UNL     1       8.114  -7.035 -56.580  1.00  0.00     0.043 C
HETATM   17  C16 UNL     1       9.563  -7.467 -56.298  1.00  0.00     0.003 C
HETATM   18  C17 UNL     1       9.491  -8.858 -55.733  1.00  0.00     0.003 C
HETATM   19  C18 UNL     1       7.990  -9.166 -55.634  1.00  0.00     0.043 C
BRANCH  15  20
HETATM   20  N3  UNL     1       8.036  -8.888 -58.047  1.00  0.00     0.099 N
HETATM   21  C10 UNL     1       7.817 -10.273 -58.299  1.00  0.00     0.273 C
HETATM   22  C11 UNL     1       8.843 -10.702 -59.357  1.00  0.00     0.030 C
HETATM   23  C12 UNL     1       8.677  -9.884 -60.605  1.00  0.00     0.003 C
HETATM   24  C13 UNL     1       7.514  -8.924 -60.444  1.00  0.00     0.030 C
HETATM   25  C14 UNL     1       7.750  -8.092 -59.196  1.00  0.00     0.273 C
ENDBRANCH  15  20
ENDBRANCH  14  15
ENDBRANCH  12  14
ENDBRANCH   7  10
ENDBRANCH   3   6
TORSDOF 5
ENDMDL