MODEL 3
REMARK VINA RESULT: -6.719494648      1.481      2.285
REMARK  4 active torsions:
REMARK  status: ('A' for Active; 'I' for Inactive)
REMARK       I    between atoms: C1_2  and  N1_3
REMARK       I    between atoms: C1_2  and  N2_12
REMARK    1  A    between atoms: N1_3  and  C2_5
REMARK    2  A    between atoms: C2_5  and  C3_6
REMARK    3  A    between atoms: C10_15  and  C11_16
REMARK    4  A    between atoms: C11_16  and  N3_17
ROOT
HETATM    1  O1  UNL     1       6.659  -7.189 -53.495  1.00  0.00    -0.247 OA
HETATM    2  C1  UNL     1       6.016  -7.794 -54.394  1.00  0.00     0.318 C
HETATM    3  N1  UNL     1       4.717  -7.378 -54.702  1.00  0.00    -0.343 N
ATOM      4  H1  UNL     1       4.210  -7.873 -55.436  1.00  0.00     0.164 HD
HETATM    5  N2  UNL     1       6.664  -8.869 -55.044  1.00  0.00    -0.334 N
HETATM    6  C8  UNL     1       6.081  -9.675 -56.105  1.00  0.00     0.128 C
HETATM    7  C9  UNL     1       7.171 -10.010 -57.134  1.00  0.00     0.030 C
HETATM    8  C10 UNL     1       8.237  -8.912 -57.078  1.00  0.00     0.027 C
HETATM    9  C17 UNL     1       8.997  -9.042 -55.812  1.00  0.00     0.030 C
HETATM   10  C18 UNL     1       8.029  -9.256 -54.662  1.00  0.00     0.128 C
ENDROOT
BRANCH   3  11
HETATM   11  C2  UNL     1       4.059  -6.286 -54.033  1.00  0.00     0.129 C
BRANCH  11  12
HETATM   12  C3  UNL     1       2.785  -6.700 -53.394  1.00  0.00     0.007 C
HETATM   13  C4  UNL     1       2.970  -7.857 -52.423  1.00  0.00     0.032 C
HETATM   14  C5  UNL     1       1.586  -8.244 -51.942  1.00  0.00     0.168 C
HETATM   15  O2  UNL     1       1.057  -7.189 -51.179  1.00  0.00    -0.391 OA
HETATM   16  C6  UNL     1       0.866  -6.088 -52.006  1.00  0.00     0.168 C
HETATM   17  C7  UNL     1       2.165  -5.569 -52.588  1.00  0.00     0.032 C
ENDBRANCH  11  12
ENDBRANCH   3  11
BRANCH   8  18
HETATM   18  C11 UNL     1       9.009  -8.822 -58.344  1.00  0.00     0.068 C
BRANCH  18  19
HETATM   19  N3  UNL     1       9.949  -9.817 -58.638  1.00  0.00    -0.373 N
HETATM   20  C12 UNL     1      11.260  -9.745 -58.153  1.00  0.00     0.063 C
HETATM   21  C13 UNL     1      12.315 -10.144 -59.176  1.00  0.00     0.044 C
HETATM   22  C14 UNL     1      11.995 -11.521 -59.674  1.00  0.00     0.007 C
HETATM   23  C15 UNL     1      10.633 -11.505 -60.285  1.00  0.00     0.021 C
HETATM   24  C16 UNL     1       9.555 -10.936 -59.403  1.00  0.00     0.127 C
ENDBRANCH  18  19
ENDBRANCH   8  18
TORSDOF 4
ENDMDL