MODEL 4
REMARK VINA RESULT: -6.295880307      4.589      9.086
REMARK  4 active torsions:
REMARK  status: ('A' for Active; 'I' for Inactive)
REMARK    1  A    between atoms: C1_2  and  C2_4
REMARK    2  A    between atoms: C2_4  and  O2_5
REMARK       I    between atoms: N2_12  and  C8_13
REMARK    3  A    between atoms: C8_13  and  C9_15
REMARK    4  A    between atoms: C9_15  and  C10_16
ROOT
HETATM    1  C2  UNL     1      11.178  -6.891 -55.068  1.00  0.00     0.136 C
HETATM    2  C3  UNL     1      10.946  -8.317 -55.526  1.00  0.00     0.048 C
HETATM    3  C4  UNL     1       9.965  -8.832 -54.493  1.00  0.00     0.013 C
HETATM    4  C5  UNL     1       9.010  -7.649 -54.288  1.00  0.00    -0.034 C
HETATM    5  C6  UNL     1       8.112  -7.614 -55.488  1.00  0.00     0.029 C
HETATM    6  C7  UNL     1       6.985  -6.614 -55.328  1.00  0.00     0.126 C
HETATM    7  N2  UNL     1       6.254  -7.029 -54.129  1.00  0.00    -0.352 N
HETATM    8  C8  UNL     1       4.864  -7.354 -54.220  1.00  0.00     0.220 C
HETATM    9  O3  UNL     1       4.286  -7.281 -55.319  1.00  0.00    -0.273 OA
HETATM   10  C16 UNL     1       6.988  -7.088 -52.903  1.00  0.00     0.126 C
HETATM   11  C17 UNL     1       8.304  -7.762 -52.987  1.00  0.00     0.029 C
HETATM   12  C18 UNL     1       9.975  -6.495 -54.251  1.00  0.00     0.057 C
ENDROOT
BRANCH   1  13
HETATM   13  C1  UNL     1      12.434  -6.793 -54.277  1.00  0.00     0.265 C
HETATM   14  N1  UNL     1      12.721  -5.640 -53.496  1.00  0.00    -0.059 NA
HETATM   15  O1  UNL     1      13.284  -7.720 -54.271  1.00  0.00    -0.273 OA
ENDBRANCH   1  13
BRANCH   1  16
HETATM   16  O2  UNL     1      11.246  -6.015 -56.152  1.00  0.00    -0.381 OA
ATOM     17  H2  UNL     1      12.000  -5.448 -56.051  1.00  0.00     0.211 HD
ENDBRANCH   1  16
BRANCH   8  18
HETATM   18  C9  UNL     1       4.180  -7.763 -52.988  1.00  0.00     0.107 C
BRANCH  18  19
HETATM   19  C10 UNL     1       2.866  -7.059 -52.874  1.00  0.00    -0.006 C
HETATM   20  C11 UNL     1       2.974  -5.787 -52.065  1.00  0.00     0.005 C
HETATM   21  C12 UNL     1       1.665  -5.040 -52.099  1.00  0.00     0.000 C
HETATM   22  C13 UNL     1       0.534  -6.007 -51.856  1.00  0.00     0.000 C
HETATM   23  C14 UNL     1       1.085  -7.256 -51.212  1.00  0.00     0.000 C
HETATM   24  C15 UNL     1       1.855  -8.000 -52.301  1.00  0.00     0.005 C
ENDBRANCH  18  19
ENDBRANCH   8  18
TORSDOF 4
ENDMDL