MODEL 2
REMARK VINA RESULT: -6.557334789      0.850      1.240
REMARK  5 active torsions:
REMARK  status: ('A' for Active; 'I' for Inactive)
REMARK    1  A    between atoms: C2_2  and  C3_3
REMARK    2  A    between atoms: C3_3  and  C4_4
REMARK    3  A    between atoms: N5_18  and  C9_19
REMARK    4  A    between atoms: C9_19  and  C10_20
REMARK       I    between atoms: C10_20  and  N6_22
REMARK    5  A    between atoms: N6_22  and  C11_24
ROOT
HETATM    1  C4  UNL     1       3.159  -6.746 -53.438  1.00  0.00     0.009 C
HETATM    2  N1  UNL     1       4.044  -7.577 -52.904  1.00  0.00    -0.313 N
ATOM      3  H1  UNL     1       3.761  -8.041 -52.041  1.00  0.00     0.170 HD
HETATM    4  C5  UNL     1       5.362  -7.902 -53.398  1.00  0.00     0.348 C
HETATM    5  O1  UNL     1       6.304  -8.081 -52.614  1.00  0.00    -0.245 OA
HETATM    6  N2  UNL     1       5.686  -8.048 -54.777  1.00  0.00    -0.166 N
HETATM    7  C6  UNL     1       4.978  -7.402 -55.846  1.00  0.00     0.210 A
HETATM    8  N3  UNL     1       4.026  -6.556 -55.757  1.00  0.00    -0.355 N
ATOM      9  H3  UNL     1       3.682  -6.241 -56.664  1.00  0.00     0.163 HD
HETATM   10  C7  UNL     1       3.334  -5.950 -54.645  1.00  0.00     0.175 C
HETATM   11  N4  UNL     1       5.544  -7.815 -57.082  1.00  0.00    -0.277 N
ATOM     12  H4  UNL     1       5.249  -7.524 -58.014  1.00  0.00     0.173 HD
HETATM   13  C8  UNL     1       6.616  -8.725 -56.763  1.00  0.00     0.344 A
HETATM   14  O2  UNL     1       7.361  -9.306 -57.585  1.00  0.00    -0.245 OA
HETATM   15  N5  UNL     1       6.674  -8.844 -55.319  1.00  0.00    -0.220 N
ENDROOT
BRANCH  15  16
HETATM   16  C9  UNL     1       7.592  -9.650 -54.556  1.00  0.00     0.257 C
BRANCH  16  17
HETATM   17  C10 UNL     1       8.914  -8.961 -54.474  1.00  0.00     0.238 C
HETATM   18  O3  UNL     1       9.328  -8.435 -53.402  1.00  0.00    -0.272 OA
HETATM   19  N6  UNL     1       9.760  -8.873 -55.612  1.00  0.00    -0.352 N
ATOM     20  H6  UNL     1       9.453  -9.288 -56.492  1.00  0.00     0.163 HD
BRANCH  19  21
HETATM   21  C11 UNL     1      11.039  -8.214 -55.554  1.00  0.00     0.022 C
HETATM   22  C12 UNL     1      11.934  -8.815 -54.528  1.00  0.00     0.037 C
HETATM   23  C13 UNL     1      11.676  -8.301 -56.938  1.00  0.00     0.037 C
HETATM   24  C14 UNL     1      10.842  -6.740 -55.237  1.00  0.00     0.037 C
ENDBRANCH  19  21
ENDBRANCH  16  17
ENDBRANCH  15  16
BRANCH   1  25
HETATM   25  C3  UNL     1       1.895  -6.639 -52.681  1.00  0.00     0.054 C
BRANCH  25  26
HETATM   26  C2  UNL     1       1.644  -7.561 -51.570  1.00  0.00     0.001 C
HETATM   27  C1  UNL     1       1.102  -8.898 -51.972  1.00  0.00     0.005 C
ENDBRANCH  25  26
ENDBRANCH   1  25
TORSDOF 5
ENDMDL