MODEL 4
REMARK VINA RESULT: -8.881301180      2.496      6.747
REMARK  3 active torsions:
REMARK  status: ('A' for Active; 'I' for Inactive)
REMARK    1  A    between atoms: C6_7  and  N1_8
REMARK    2  A    between atoms: C6_7  and  C12_18
REMARK       I    between atoms: N1_8  and  C7_10
REMARK       I    between atoms: C7_10  and  N2_12
REMARK       I    between atoms: C12_18  and  N3_20
REMARK    3  A    between atoms: N3_20  and  C13_22
ROOT
HETATM    1  C1  UNL     1     -22.862  13.836  -0.097  1.00  0.00     0.053 C
HETATM    2  C2  UNL     1     -23.258  12.384   0.021  1.00  0.00     0.110 C
HETATM    3  F1  UNL     1     -24.622  12.270  -0.065  1.00  0.00    -0.242 F
HETATM    4  C3  UNL     1     -22.649  11.445  -1.027  1.00  0.00     0.029 C
HETATM    5  C4  UNL     1     -21.432  11.460  -0.156  1.00  0.00     0.019 C
HETATM    6  C5  UNL     1     -22.503  11.536   0.962  1.00  0.00     0.063 C
HETATM    7  C6  UNL     1     -23.098  10.206   0.897  1.00  0.00     0.122 C
HETATM    8  C18 UNL     1     -23.271  10.140  -0.664  1.00  0.00     0.049 C
ENDROOT
BRANCH   7   9
HETATM    9  N1  UNL     1     -24.380  10.021   1.491  1.00  0.00    -0.324 N
HETATM   10  C7  UNL     1     -24.752  10.352   2.823  1.00  0.00     0.319 C
HETATM   11  O1  UNL     1     -23.949  10.860   3.636  1.00  0.00    -0.247 OA
HETATM   12  N2  UNL     1     -26.093  10.131   3.272  1.00  0.00    -0.330 N
HETATM   13  C8  UNL     1     -26.514  10.756   4.545  1.00  0.00     0.153 C
HETATM   14  C11 UNL     1     -27.083   9.315   2.629  1.00  0.00     0.153 C
HETATM   15  C9  UNL     1     -27.899  10.280   4.890  1.00  0.00     0.187 C
HETATM   16  O2  UNL     1     -28.008   8.907   4.843  1.00  0.00    -0.388 OA
HETATM   17  C10 UNL     1     -27.758   8.373   3.606  1.00  0.00     0.187 C
ATOM     18  H1  UNL     1     -25.104   9.611   0.901  1.00  0.00     0.165 HD
ENDBRANCH   7   9
BRANCH   7  19
HETATM   19  C12 UNL     1     -22.129   9.152   1.281  1.00  0.00     0.247 C
HETATM   20  O3  UNL     1     -21.901   8.151   0.558  1.00  0.00    -0.271 OA
HETATM   21  N3  UNL     1     -21.443   9.292   2.532  1.00  0.00    -0.354 N
ATOM     22  H3  UNL     1     -21.720  10.110   3.075  1.00  0.00     0.162 HD
BRANCH  21  23
HETATM   23  C13 UNL     1     -20.469   8.509   3.135  1.00  0.00     0.084 C
HETATM   24  C14 UNL     1     -19.457   8.984   4.109  1.00  0.00     0.025 C
HETATM   25  C15 UNL     1     -18.841   7.609   4.530  1.00  0.00     0.002 C
HETATM   26  C16 UNL     1     -20.010   6.623   4.451  1.00  0.00     0.002 C
HETATM   27  C17 UNL     1     -21.194   7.464   4.041  1.00  0.00     0.025 C
ENDBRANCH  21  23
ENDBRANCH   7  19
TORSDOF 3
ENDMDL