MODEL 1
REMARK VINA RESULT: -9.000838663      0.000      0.000
REMARK  4 active torsions:
REMARK  status: ('A' for Active; 'I' for Inactive)
REMARK       I    between atoms: N1_2  and  C2_3
REMARK    1  A    between atoms: N1_2  and  C11_20
REMARK       I    between atoms: C2_3  and  N3_7
REMARK    2  A    between atoms: C3_8  and  C4_9
REMARK    3  A    between atoms: C4_9  and  C5_10
REMARK    4  A    between atoms: C5_10  and  O1_11
ROOT
HETATM    1  C1  UNL     1     -20.777   8.145  -0.273  1.00  0.00     0.175 C
HETATM    2  N1  UNL     1     -20.821   9.620  -0.264  1.00  0.00    -0.191 N
HETATM    3  C2  UNL     1     -20.887  10.204   1.037  1.00  0.00     0.695 C
HETATM    4  N2  UNL     1     -19.847  10.972   1.254  1.00  0.00    -0.233 N
ATOM      5  H21 UNL     1     -19.895  11.389   2.184  1.00  0.00     0.174 HD
ATOM      6  H22 UNL     1     -19.118  11.168   0.568  1.00  0.00     0.174 HD
HETATM    7  N3  UNL     1     -21.899   9.932   1.991  1.00  0.00    -0.114 N
HETATM    8  C3  UNL     1     -23.350  10.319   1.780  1.00  0.00     0.133 C
HETATM    9  C6  UNL     1     -24.118   9.745   2.955  1.00  0.00     0.021 C
HETATM   10  C7  UNL     1     -23.982   8.226   2.985  1.00  0.00     0.029 C
HETATM   11  C8  UNL     1     -22.422   7.919   3.242  1.00  0.00     0.153 C
HETATM   12  N4  UNL     1     -22.014   9.293   3.218  1.00  0.00    -0.244 N
HETATM   13  C9  UNL     1     -22.185   9.999   4.403  1.00  0.00     0.239 C
HETATM   14  O2  UNL     1     -21.635  10.472   5.402  1.00  0.00    -0.272 OA
HETATM   15  C10 UNL     1     -23.765  10.245   4.334  1.00  0.00     0.111 C
ENDROOT
BRANCH   2  16
HETATM   16  C11 UNL     1     -20.748  10.258  -1.530  1.00  0.00     0.040 C
HETATM   17  C12 UNL     1     -21.918  10.210  -2.420  1.00  0.00     0.057 C
HETATM   18  C13 UNL     1     -21.765   9.737  -3.819  1.00  0.00     0.014 C
HETATM   19  C14 UNL     1     -20.608   8.869  -4.159  1.00  0.00    -0.044 C
HETATM   20  C15 UNL     1     -21.021   7.498  -4.620  1.00  0.00     0.015 C
HETATM   21  C16 UNL     1     -19.803   9.481  -5.293  1.00  0.00     0.015 C
HETATM   22  C17 UNL     1     -19.643   8.690  -3.007  1.00  0.00     0.052 C
HETATM   23  C18 UNL     1     -19.497  10.024  -2.316  1.00  0.00     0.217 C
HETATM   24  F1  UNL     1     -18.323  10.207  -1.686  1.00  0.00    -0.243 F
ENDBRANCH   2  16
BRANCH   8  25
HETATM   25  C4  UNL     1     -23.661  11.661   1.406  1.00  0.00     0.054 C
BRANCH  25  26
HETATM   26  C5  UNL     1     -23.203  12.873   2.105  1.00  0.00     0.166 C
BRANCH  26  27
HETATM   27  O1  UNL     1     -21.956  13.362   1.796  1.00  0.00    -0.401 OA
ATOM     28  H1  UNL     1     -21.883  13.970   1.070  1.00  0.00     0.209 HD
ENDBRANCH  26  27
ENDBRANCH  25  26
ENDBRANCH   8  25
TORSDOF 4
ENDMDL