MODEL 2
REMARK VINA RESULT: -8.013537218      2.400      3.131
REMARK  5 active torsions:
REMARK  status: ('A' for Active; 'I' for Inactive)
REMARK       I    between atoms: C2_2  and  N1_4
REMARK    1  A    between atoms: C7_10  and  C8_11
REMARK    2  A    between atoms: C8_11  and  N3_12
REMARK    3  A    between atoms: N3_12  and  C9_14
REMARK    4  A    between atoms: C9_14  and  N4_16
REMARK    5  A    between atoms: N4_16  and  C10_18
ROOT
HETATM    1  C8  UNL     1     -22.533   8.596   1.306  1.00  0.00     0.159 C
ENDROOT
BRANCH   1   2
HETATM    2  C7  UNL     1     -21.533   7.841   0.415  1.00  0.00     0.258 C
HETATM    3  N2  UNL     1     -20.248   8.457   0.645  1.00  0.00     0.098 N
HETATM    4  C4  UNL     1     -20.068   9.552  -0.256  1.00  0.00     0.237 C
HETATM    5  C6  UNL     1     -19.245   7.416   0.477  1.00  0.00     0.311 C
HETATM    6  C3  UNL     1     -19.832   8.966  -1.627  1.00  0.00     0.161 C
HETATM    7  C5  UNL     1     -18.894  10.423   0.168  1.00  0.00     0.044 C
HETATM    8  N1  UNL     1     -20.997   8.192  -1.986  1.00  0.00    -0.348 N
HETATM    9  C2  UNL     1     -21.108   7.732  -3.351  1.00  0.00     0.215 C
HETATM   10  C16 UNL     1     -21.996   7.903  -1.016  1.00  0.00     0.163 C
HETATM   11  C1  UNL     1     -22.290   6.929  -3.765  1.00  0.00     0.117 C
HETATM   12  O1  UNL     1     -20.240   7.985  -4.210  1.00  0.00    -0.274 OA
ENDBRANCH   1   2
BRANCH   1  13
HETATM   13  N3  UNL     1     -23.339   7.605   1.982  1.00  0.00    -0.365 N
ATOM     14  H3  UNL     1     -23.608   6.785   1.437  1.00  0.00     0.161 HD
BRANCH  13  15
HETATM   15  C9  UNL     1     -23.788   7.653   3.303  1.00  0.00     0.167 C
HETATM   16  S1  UNL     1     -22.645   7.798   4.495  1.00  0.00    -0.041 SA
BRANCH  15  17
HETATM   17  N4  UNL     1     -25.138   7.611   3.686  1.00  0.00    -0.363 N
ATOM     18  H4  UNL     1     -25.447   6.871   4.317  1.00  0.00     0.162 HD
BRANCH  17  19
HETATM   19  C10 UNL     1     -26.118   8.591   3.211  1.00  0.00     0.083 C
HETATM   20  C11 UNL     1     -27.484   8.078   3.569  1.00  0.00     0.025 C
HETATM   21  C12 UNL     1     -28.546   9.119   3.702  1.00  0.00     0.002 C
HETATM   22  C13 UNL     1     -28.128  10.319   4.505  1.00  0.00     0.000 C
HETATM   23  C14 UNL     1     -26.737  10.233   5.023  1.00  0.00     0.002 C
HETATM   24  C15 UNL     1     -25.802   9.905   3.879  1.00  0.00     0.025 C
ENDBRANCH  17  19
ENDBRANCH  15  17
ENDBRANCH  13  15
ENDBRANCH   1  13
TORSDOF 5
ENDMDL