MODEL 3
REMARK VINA RESULT: -7.473622119      2.955      3.383
REMARK  5 active torsions:
REMARK  status: ('A' for Active; 'I' for Inactive)
REMARK    1  A    between atoms: N1_4  and  N2_6
REMARK       I    between atoms: N2_6  and  C3_8
REMARK    2  A    between atoms: C3_8  and  C4_10
REMARK    3  A    between atoms: N3_14  and  C8_15
REMARK    4  A    between atoms: C8_15  and  N4_17
REMARK    5  A    between atoms: N4_17  and  C9_19
ROOT
HETATM    1  C4  UNL     1     -21.610   7.814   2.407  1.00  0.00     0.180 C
HETATM    2  C5  UNL     1     -21.499   6.640   3.336  1.00  0.00     0.037 C
HETATM    3  C6  UNL     1     -20.126   6.817   4.005  1.00  0.00     0.022 C
HETATM    4  C7  UNL     1     -20.002   8.300   4.064  1.00  0.00     0.126 C
HETATM    5  N3  UNL     1     -20.704   8.792   2.921  1.00  0.00    -0.345 N
ENDROOT
BRANCH   1   6
HETATM    6  C3  UNL     1     -21.216   7.331   1.052  1.00  0.00     0.259 C
HETATM    7  N2  UNL     1     -22.165   7.321   0.001  1.00  0.00    -0.268 N
ATOM      8  H2  UNL     1     -23.115   7.646   0.183  1.00  0.00     0.190 HD
HETATM    9  O1  UNL     1     -20.056   6.928   0.811  1.00  0.00    -0.269 OA
BRANCH   7  10
HETATM   10  N1  UNL     1     -21.829   6.877  -1.278  1.00  0.00    -0.295 N
HETATM   11  C2  UNL     1     -22.028   7.581  -2.335  1.00  0.00     0.068 C
HETATM   12  C1  UNL     1     -22.641   8.923  -2.174  1.00  0.00     0.078 C
HETATM   13 BR1  UNL     1     -21.575   6.989  -4.083  1.00  0.00    -0.035 Br
ATOM     14  H1  UNL     1     -21.408   5.953  -1.379  1.00  0.00     0.187 HD
ENDBRANCH   7  10
ENDBRANCH   1   6
BRANCH   5  15
HETATM   15  C8  UNL     1     -20.472  10.126   2.417  1.00  0.00     0.170 C
HETATM   16  S1  UNL     1     -19.085  10.387   1.611  1.00  0.00    -0.041 SA
BRANCH  15  17
HETATM   17  N4  UNL     1     -21.402  11.173   2.601  1.00  0.00    -0.362 N
ATOM     18  H4  UNL     1     -21.628  11.453   3.556  1.00  0.00     0.162 HD
BRANCH  17  19
HETATM   19  C9  UNL     1     -22.041  11.861   1.530  1.00  0.00     0.083 C
HETATM   20  C10 UNL     1     -23.155  11.014   0.898  1.00  0.00     0.025 C
HETATM   21  C11 UNL     1     -24.028  12.035   0.221  1.00  0.00     0.002 C
HETATM   22  C12 UNL     1     -23.601  13.385   0.695  1.00  0.00     0.002 C
HETATM   23  C13 UNL     1     -22.891  13.046   2.015  1.00  0.00     0.025 C
ENDBRANCH  17  19
ENDBRANCH  15  17
ENDBRANCH   5  15
TORSDOF 5
ENDMDL