MODEL 1
REMARK VINA RESULT: -9.083442303      0.000      0.000
REMARK  4 active torsions:
REMARK  status: ('A' for Active; 'I' for Inactive)
REMARK    1  A    between atoms: C2_2  and  O1_3
REMARK    2  A    between atoms: C2_2  and  C3_5
REMARK       I    between atoms: N1_7  and  C5_8
REMARK    3  A    between atoms: C5_8  and  C6_10
REMARK    4  A    between atoms: C12_16  and  N2_17
REMARK       I    between atoms: N2_17  and  C13_19
REMARK       I    between atoms: C13_19  and  N3_21
ROOT
HETATM    1  C3  UNL     1     -22.228  11.740   0.002  1.00  0.00     0.056 C
HETATM    2  C4  UNL     1     -20.773  11.425  -0.373  1.00  0.00     0.135 C
HETATM    3  N1  UNL     1     -20.927   9.975  -0.569  1.00  0.00    -0.349 N
HETATM    4  C5  UNL     1     -20.332   9.245  -1.615  1.00  0.00     0.224 C
HETATM    5  O2  UNL     1     -19.609   9.867  -2.462  1.00  0.00    -0.273 OA
HETATM    6  C11 UNL     1     -21.791   9.484   0.481  1.00  0.00     0.151 C
HETATM    7  C12 UNL     1     -22.453  10.727   1.097  1.00  0.00     0.112 C
ENDROOT
BRANCH   7   8
HETATM    8  N2  UNL     1     -23.854  10.478   1.360  1.00  0.00    -0.336 N
HETATM    9  C13 UNL     1     -24.350  10.747   2.670  1.00  0.00     0.318 C
HETATM   10  O3  UNL     1     -23.543  11.199   3.566  1.00  0.00    -0.247 OA
HETATM   11  N3  UNL     1     -25.678  10.561   3.089  1.00  0.00    -0.332 N
HETATM   12  C14 UNL     1     -26.075  10.870   4.442  1.00  0.00     0.127 C
HETATM   13  C18 UNL     1     -26.670  10.061   2.192  1.00  0.00     0.164 C
HETATM   14  C15 UNL     1     -27.398  10.239   4.817  1.00  0.00     0.023 C
HETATM   15  C16 UNL     1     -27.493   8.834   4.239  1.00  0.00     0.040 C
HETATM   16  C17 UNL     1     -27.417   8.864   2.750  1.00  0.00     0.188 C
HETATM   17  F1  UNL     1     -28.698   8.917   2.226  1.00  0.00    -0.248 F
ATOM     18  H2  UNL     1     -24.469  10.120   0.630  1.00  0.00     0.164 HD
ENDBRANCH   7   8
BRANCH   1  19
HETATM   19  C2  UNL     1     -22.400  13.163   0.437  1.00  0.00     0.121 C
HETATM   20  C1  UNL     1     -23.787  13.690   0.286  1.00  0.00     0.040 C
BRANCH  19  21
HETATM   21  O1  UNL     1     -22.104  13.189   1.820  1.00  0.00    -0.395 OA
ATOM     22  H1  UNL     1     -21.907  14.093   2.040  1.00  0.00     0.210 HD
ENDBRANCH  19  21
ENDBRANCH   1  19
BRANCH   4  23
HETATM   23  C6  UNL     1     -20.476   7.795  -1.817  1.00  0.00     0.078 C
HETATM   24  C7  UNL     1     -21.951   7.401  -1.924  1.00  0.00     0.014 C
HETATM   25  C8  UNL     1     -22.388   7.899  -3.277  1.00  0.00     0.001 C
HETATM   26  C9  UNL     1     -21.121   8.040  -4.076  1.00  0.00     0.001 C
HETATM   27  C10 UNL     1     -20.013   7.442  -3.216  1.00  0.00     0.014 C
ENDBRANCH   4  23
TORSDOF 4
ENDMDL