MODEL 3
REMARK VINA RESULT: -7.955463267      3.162      3.392
REMARK  4 active torsions:
REMARK  status: ('A' for Active; 'I' for Inactive)
REMARK       I    between atoms: N1_2  and  C2_4
REMARK       I    between atoms: C2_4  and  N2_6
REMARK       I    between atoms: N2_6  and  C3_8
REMARK       I    between atoms: C3_8  and  N3_10
REMARK    1  A    between atoms: C6_13  and  C7_14
REMARK    2  A    between atoms: C7_14  and  C8_15
REMARK    3  A    between atoms: C8_15  and  N4_16
REMARK    4  A    between atoms: N4_16  and  C10_18
ROOT
HETATM    1  C1  UNL     1     -16.511   9.476   0.241  1.00  0.00     0.151 C
HETATM    2  N1  UNL     1     -17.686   9.664   1.111  1.00  0.00    -0.347 N
ATOM      3  H1  UNL     1     -17.738   9.230   2.032  1.00  0.00     0.163 HD
HETATM    4  C2  UNL     1     -18.731  10.465   0.620  1.00  0.00     0.323 C
HETATM    5  O1  UNL     1     -18.601  10.979  -0.539  1.00  0.00    -0.247 OA
HETATM    6  N2  UNL     1     -19.921  10.754   1.300  1.00  0.00    -0.261 N
ATOM      7  H2  UNL     1     -20.578  11.357   0.805  1.00  0.00     0.175 HD
HETATM    8  C3  UNL     1     -20.329  10.321   2.576  1.00  0.00     0.326 C
HETATM    9  O2  UNL     1     -19.564   9.583   3.245  1.00  0.00    -0.247 OA
HETATM   10  N3  UNL     1     -21.598  10.728   3.087  1.00  0.00    -0.333 N
HETATM   11  C4  UNL     1     -22.470  11.562   2.324  1.00  0.00     0.128 C
HETATM   12  C5  UNL     1     -23.850  11.677   2.938  1.00  0.00     0.030 C
HETATM   13  C6  UNL     1     -24.347  10.333   3.426  1.00  0.00    -0.032 A
HETATM   14  C15 UNL     1     -23.717   9.121   2.920  1.00  0.00     0.017 A
HETATM   15  C16 UNL     1     -23.403   9.660   4.312  1.00  0.00     0.013 A
HETATM   16  C17 UNL     1     -22.045  10.310   4.411  1.00  0.00     0.133 C
ENDROOT
BRANCH  13  17
HETATM   17  C7  UNL     1     -25.853  10.355   3.727  1.00  0.00     0.040 C
BRANCH  17  18
HETATM   18  C8  UNL     1     -26.632   9.874   2.549  1.00  0.00     0.273 C
BRANCH  18  19
HETATM   19  N4  UNL     1     -27.535   8.801   2.726  1.00  0.00     0.089 N
HETATM   20  C9  UNL     1     -27.040   8.022   3.878  1.00  0.00     0.310 C
BRANCH  19  21
HETATM   21  C10 UNL     1     -28.923   9.019   2.843  1.00  0.00     0.226 C
HETATM   22  C11 UNL     1     -29.413   9.411   4.190  1.00  0.00     0.062 C
HETATM   23  C12 UNL     1     -30.374  10.619   4.083  1.00  0.00     0.169 C
HETATM   24  O3  UNL     1     -31.320  10.264   3.130  1.00  0.00    -0.391 OA
HETATM   25  C13 UNL     1     -30.773  10.403   1.880  1.00  0.00     0.169 C
HETATM   26  C14 UNL     1     -29.315  10.066   1.787  1.00  0.00     0.062 C
ENDBRANCH  19  21
ENDBRANCH  18  19
ENDBRANCH  17  18
ENDBRANCH  13  17
TORSDOF 4
ENDMDL