MODEL 5
REMARK VINA RESULT: -7.777836613      1.242      1.377
REMARK  4 active torsions:
REMARK  status: ('A' for Active; 'I' for Inactive)
REMARK    1  A    between atoms: C2_2  and  N1_3
REMARK       I    between atoms: N1_3  and  C3_5
REMARK    2  A    between atoms: C3_5  and  C4_7
REMARK       I    between atoms: N2_13  and  C10_14
REMARK       I    between atoms: C10_14  and  N3_16
REMARK    3  A    between atoms: N3_16  and  S1_18
REMARK    4  A    between atoms: S1_18  and  C11_21
ROOT
HETATM    1  C4  UNL     1     -20.817  10.319   3.067  1.00  0.00     0.061 A
HETATM    2  C5  UNL     1     -19.390  10.029   3.386  1.00  0.00     0.027 A
HETATM    3  C6  UNL     1     -20.391   9.011   2.748  1.00  0.00     0.006 A
HETATM    4  C7  UNL     1     -20.591   7.820   3.542  1.00  0.00     0.007 C
HETATM    5  C8  UNL     1     -21.989   7.335   3.801  1.00  0.00     0.020 C
HETATM    6  C9  UNL     1     -22.531   8.214   4.923  1.00  0.00     0.127 C
HETATM    7  N2  UNL     1     -22.756   9.513   4.371  1.00  0.00    -0.332 N
HETATM    8  C10 UNL     1     -24.065   9.806   3.931  1.00  0.00     0.331 C
HETATM    9  O2  UNL     1     -24.353  10.952   3.446  1.00  0.00    -0.246 OA
HETATM   10  N3  UNL     1     -25.091   8.836   4.014  1.00  0.00    -0.233 N
ATOM     11  H3  UNL     1     -24.899   7.909   4.393  1.00  0.00     0.183 HD
HETATM   12  C14 UNL     1     -21.753  10.552   4.215  1.00  0.00     0.147 C
ENDROOT
BRANCH  10  13
HETATM   13  S1  UNL     1     -26.692   9.255   3.456  1.00  0.00     0.271 S
HETATM   14  O3  UNL     1     -27.479   8.001   3.197  1.00  0.00    -0.202 OA
HETATM   15  O4  UNL     1     -26.591  10.044   2.184  1.00  0.00    -0.202 OA
BRANCH  13  16
HETATM   16  C11 UNL     1     -27.515  10.226   4.689  1.00  0.00     0.217 C
HETATM   17  C12 UNL     1     -28.952  10.444   4.327  1.00  0.00     0.071 C
HETATM   18  C13 UNL     1     -27.413   9.477   6.002  1.00  0.00     0.071 C
HETATM   19  F1  UNL     1     -26.860  11.439   4.785  1.00  0.00    -0.225 F
ENDBRANCH  13  16
ENDBRANCH  10  13
BRANCH   1  20
HETATM   20  C3  UNL     1     -20.949  11.346   1.998  1.00  0.00     0.228 C
HETATM   21  N1  UNL     1     -22.087  12.163   1.834  1.00  0.00    -0.361 N
ATOM     22  H1  UNL     1     -22.867  12.047   2.481  1.00  0.00     0.162 HD
HETATM   23  O1  UNL     1     -20.014  11.547   1.150  1.00  0.00    -0.273 OA
BRANCH  21  24
HETATM   24  C2  UNL     1     -22.198  13.164   0.785  1.00  0.00     0.118 C
HETATM   25  C1  UNL     1     -23.649  13.387   0.420  1.00  0.00     0.026 C
ENDBRANCH  21  24
ENDBRANCH   1  20
TORSDOF 4
ENDMDL