MODEL 4
REMARK VINA RESULT: -7.397747490      3.120      3.683
REMARK  5 active torsions:
REMARK  status: ('A' for Active; 'I' for Inactive)
REMARK    1  A    between atoms: C2_2  and  C5_5
REMARK    2  A    between atoms: C5_5  and  C6_6
REMARK       I    between atoms: C6_6  and  N1_8
REMARK    3  A    between atoms: N1_8  and  C7_10
REMARK    4  A    between atoms: C7_10  and  C8_11
REMARK       I    between atoms: C8_11  and  N2_13
REMARK    5  A    between atoms: C12_17  and  N3_18
ROOT
HETATM    1  C8  UNL     1     -23.348   9.557   4.019  1.00  0.00     0.237 C
HETATM    2  O2  UNL     1     -23.281  10.804   3.939  1.00  0.00    -0.272 OA
HETATM    3  N2  UNL     1     -22.273   8.835   4.579  1.00  0.00    -0.351 N
HETATM    4  C9  UNL     1     -22.370   7.398   4.651  1.00  0.00     0.126 C
HETATM    5  C10 UNL     1     -21.594   6.736   3.510  1.00  0.00     0.023 C
HETATM    6  C11 UNL     1     -20.107   6.762   3.791  1.00  0.00     0.052 C
HETATM    7  C12 UNL     1     -19.605   8.193   3.833  1.00  0.00     0.182 C
HETATM    8 BR1  UNL     1     -20.219   9.226   2.340  1.00  0.00    -0.054 Br
HETATM    9  C13 UNL     1     -19.944   8.806   5.164  1.00  0.00     0.070 C
HETATM   10  C14 UNL     1     -21.171   9.657   5.031  1.00  0.00     0.129 C
ENDROOT
BRANCH   1  11
HETATM   11  C7  UNL     1     -24.545   8.863   3.524  1.00  0.00     0.225 C
BRANCH  11  12
HETATM   12  N1  UNL     1     -25.751   9.138   4.268  1.00  0.00    -0.352 N
HETATM   13  C6  UNL     1     -26.953   8.405   4.128  1.00  0.00     0.218 C
HETATM   14  O1  UNL     1     -26.950   7.466   3.296  1.00  0.00    -0.274 OA
ATOM     15  H1  UNL     1     -25.736   9.909   4.936  1.00  0.00     0.162 HD
BRANCH  13  16
HETATM   16  C5  UNL     1     -28.153   8.719   4.914  1.00  0.00     0.111 C
BRANCH  16  17
HETATM   17  C2  UNL     1     -28.895   9.922   4.455  1.00  0.00    -0.043 C
HETATM   18  C1  UNL     1     -30.345   9.922   4.879  1.00  0.00     0.015 C
HETATM   19  C3  UNL     1     -28.806  10.181   2.980  1.00  0.00     0.015 C
HETATM   20  C4  UNL     1     -28.253  11.136   5.146  1.00  0.00     0.015 C
ENDBRANCH  16  17
ENDBRANCH  13  16
ENDBRANCH  11  12
ENDBRANCH   1  11
BRANCH   7  21
HETATM   21  N3  UNL     1     -18.138   8.152   3.755  1.00  0.00    -0.060 N
ATOM     22  H33 UNL     1     -17.690   8.288   4.661  1.00  0.00     0.276 HD
ATOM     23  H32 UNL     1     -17.777   7.218   3.565  1.00  0.00     0.276 HD
ATOM     24  H31 UNL     1     -17.847   8.840   3.060  1.00  0.00     0.276 HD
ENDBRANCH   7  21
TORSDOF 5
ENDMDL