MODEL 2
REMARK VINA RESULT: -8.166751378      2.387      2.926
REMARK  4 active torsions:
REMARK  status: ('A' for Active; 'I' for Inactive)
REMARK       I    between atoms: C2_2  and  N1_4
REMARK    1  A    between atoms: N1_4  and  C3_6
REMARK    2  A    between atoms: N2_12  and  C9_13
REMARK    3  A    between atoms: C9_13  and  C10_14
REMARK       I    between atoms: N3_19  and  C14_20
REMARK       I    between atoms: C14_20  and  N4_22
REMARK    4  A    between atoms: N4_22  and  C15_24
ROOT
HETATM    1  C10 UNL     1     -22.876  11.178   0.619  1.00  0.00     0.120 C
HETATM    2  C11 UNL     1     -21.869  12.149   1.171  1.00  0.00     0.032 C
HETATM    3  C12 UNL     1     -21.318  12.910  -0.015  1.00  0.00     0.061 C
HETATM    4  C13 UNL     1     -22.146  12.308  -1.169  1.00  0.00     0.275 C
HETATM    5  F1  UNL     1     -21.563  12.532  -2.357  1.00  0.00    -0.227 F
HETATM    6  N3  UNL     1     -22.274  10.947  -0.709  1.00  0.00    -0.296 N
HETATM    7  C14 UNL     1     -21.938   9.778  -1.367  1.00  0.00     0.321 C
HETATM    8  O2  UNL     1     -22.193   8.673  -0.736  1.00  0.00    -0.247 OA
HETATM    9  N4  UNL     1     -21.352   9.683  -2.644  1.00  0.00    -0.335 N
ATOM     10  H4  UNL     1     -21.144  10.538  -3.159  1.00  0.00     0.165 HD
ENDROOT
BRANCH   1  11
HETATM   11  C9  UNL     1     -23.129  10.008   1.452  1.00  0.00     0.298 C
BRANCH  11  12
HETATM   12  N2  UNL     1     -24.312   9.879   2.185  1.00  0.00     0.095 N
HETATM   13  C5  UNL     1     -24.188   8.911   3.229  1.00  0.00     0.225 C
HETATM   14  C4  UNL     1     -25.576   8.262   3.384  1.00  0.00     0.061 C
HETATM   15  C6  UNL     1     -24.209   9.757   4.497  1.00  0.00     0.044 C
HETATM   16  C3  UNL     1     -26.434   9.351   3.993  1.00  0.00     0.092 C
HETATM   17  C7  UNL     1     -25.510  10.496   4.116  1.00  0.00     0.039 C
HETATM   18  C8  UNL     1     -25.031  10.945   2.723  1.00  0.00     0.279 C
BRANCH  16  19
HETATM   19  N1  UNL     1     -27.624   9.603   3.217  1.00  0.00    -0.356 N
HETATM   20  C2  UNL     1     -28.817   9.956   3.895  1.00  0.00     0.213 C
HETATM   21  C1  UNL     1     -30.062  10.223   3.138  1.00  0.00     0.117 C
HETATM   22  O1  UNL     1     -28.862  10.055   5.151  1.00  0.00    -0.274 OA
ATOM     23  H1  UNL     1     -27.606   9.528   2.201  1.00  0.00     0.162 HD
ENDBRANCH  16  19
ENDBRANCH  11  12
ENDBRANCH   1  11
BRANCH   9  24
HETATM   24  C15 UNL     1     -21.036   8.392  -3.250  1.00  0.00     0.023 C
HETATM   25  C16 UNL     1     -22.307   7.581  -3.437  1.00  0.00     0.037 C
HETATM   26  C17 UNL     1     -20.477   8.643  -4.631  1.00  0.00     0.037 C
HETATM   27  C18 UNL     1     -20.038   7.601  -2.474  1.00  0.00     0.037 C
ENDBRANCH   9  24
TORSDOF 4
ENDMDL