MODEL 3
REMARK VINA RESULT: -9.833416686      2.340      3.740
REMARK  4 active torsions:
REMARK  status: ('A' for Active; 'I' for Inactive)
REMARK    1  A    between atoms: C2_2  and  O1_3
REMARK       I    between atoms: N2_11  and  C7_12
REMARK    2  A    between atoms: C7_12  and  C8_14
REMARK    3  A    between atoms: C8_14  and  N3_15
REMARK       I    between atoms: N3_15  and  C9_17
REMARK    4  A    between atoms: C9_17  and  C10_19
ROOT
HETATM    1  C1  UNL     1     -20.041   7.714   1.289  1.00  0.00     0.074 C
HETATM    2  C2  UNL     1     -19.873   7.965   2.739  1.00  0.00     0.164 C
HETATM    3  C3  UNL     1     -20.385   6.782   3.578  1.00  0.00     0.228 C
HETATM    4  F1  UNL     1     -21.317   6.045   2.878  1.00  0.00    -0.244 F
HETATM    5  C4  UNL     1     -20.994   7.399   4.829  1.00  0.00     0.082 C
HETATM    6  C5  UNL     1     -20.528   8.843   4.694  1.00  0.00     0.200 C
HETATM    7  C6  UNL     1     -21.196   9.723   5.581  1.00  0.00     0.085 C
HETATM    8  N1  UNL     1     -21.718  10.417   6.316  1.00  0.00    -0.195 NA
HETATM    9  N2  UNL     1     -20.725   9.040   3.277  1.00  0.00    -0.299 N
HETATM   10  C7  UNL     1     -21.468   9.954   2.521  1.00  0.00     0.241 C
HETATM   11  O2  UNL     1     -21.395   9.865   1.243  1.00  0.00    -0.271 OA
ENDROOT
BRANCH   2  12
HETATM   12  O1  UNL     1     -18.550   8.275   3.089  1.00  0.00    -0.368 OA
ATOM     13  H1  UNL     1     -18.063   7.520   3.398  1.00  0.00     0.212 HD
ENDBRANCH   2  12
BRANCH  10  14
HETATM   14  C8  UNL     1     -22.338  11.024   3.022  1.00  0.00     0.225 C
BRANCH  14  15
HETATM   15  N3  UNL     1     -23.615  10.543   3.479  1.00  0.00    -0.352 N
HETATM   16  C9  UNL     1     -24.790  10.485   2.706  1.00  0.00     0.226 C
HETATM   17  O3  UNL     1     -24.751  10.888   1.512  1.00  0.00    -0.273 OA
ATOM     18  H3  UNL     1     -23.674  10.216   4.444  1.00  0.00     0.162 HD
BRANCH  16  19
HETATM   19  C10 UNL     1     -26.081   9.969   3.227  1.00  0.00     0.042 C
HETATM   20  C11 UNL     1     -25.992   8.536   3.663  1.00  0.00     0.024 C
HETATM   21  C12 UNL     1     -27.348   8.075   4.113  1.00  0.00    -0.013 C
HETATM   22  C13 UNL     1     -27.854   8.879   5.296  1.00  0.00     0.009 C
HETATM   23  C17 UNL     1     -28.390   8.198   3.020  1.00  0.00     0.009 C
HETATM   24  C14 UNL     1     -27.888  10.330   4.867  1.00  0.00    -0.013 C
HETATM   25  C15 UNL     1     -28.897  10.546   3.751  1.00  0.00     0.009 C
HETATM   26  C19 UNL     1     -26.522  10.778   4.445  1.00  0.00     0.024 C
HETATM   27  C16 UNL     1     -28.483   9.654   2.602  1.00  0.00    -0.013 C
HETATM   28  C18 UNL     1     -27.124  10.085   2.150  1.00  0.00     0.024 C
ENDBRANCH  16  19
ENDBRANCH  14  15
ENDBRANCH  10  14
TORSDOF 4
ENDMDL