MODEL 5
REMARK VINA RESULT: -7.456746256      2.356      3.084
REMARK  3 active torsions:
REMARK  status: ('A' for Active; 'I' for Inactive)
REMARK    1  A    between atoms: C1_2  and  C2_4
REMARK    2  A    between atoms: C5_7  and  N1_8
REMARK       I    between atoms: N1_8  and  C6_10
REMARK       I    between atoms: C6_10  and  N2_12
REMARK       I    between atoms: N3_17  and  C11_18
REMARK       I    between atoms: C11_18  and  N4_20
REMARK    3  A    between atoms: C15_24  and  C16_25
ROOT
HETATM    1  N1  UNL     1      25.661  10.418  -3.651  1.00  0.00    -0.338 N
ATOM      2  H1  UNL     1      24.786  10.641  -4.127  1.00  0.00     0.164 HD
HETATM    3  C6  UNL     1      25.762  10.686  -2.266  1.00  0.00     0.318 C
HETATM    4  O3  UNL     1      26.885  10.385  -1.723  1.00  0.00    -0.247 OA
HETATM    5  N2  UNL     1      24.711  11.246  -1.506  1.00  0.00    -0.332 N
HETATM    6  C7  UNL     1      23.367  11.691  -1.767  1.00  0.00     0.142 C
HETATM    7  C8  UNL     1      23.064  11.472  -0.347  1.00  0.00     0.025 A
HETATM    8  C9  UNL     1      24.524  11.621  -0.130  1.00  0.00     0.142 C
HETATM    9  C10 UNL     1      22.109  12.298   0.371  1.00  0.00     0.142 A
HETATM   10  N3  UNL     1      21.391  11.056   0.741  1.00  0.00    -0.332 N
HETATM   11  C11 UNL     1      20.182  10.840   1.454  1.00  0.00     0.320 C
HETATM   12  O4  UNL     1      19.533  11.854   1.887  1.00  0.00    -0.247 OA
HETATM   13  N4  UNL     1      19.625   9.596   1.729  1.00  0.00    -0.329 N
HETATM   14  C12 UNL     1      20.127   8.292   1.391  1.00  0.00     0.128 C
HETATM   15  C13 UNL     1      19.964   7.595   2.755  1.00  0.00     0.022 C
HETATM   16  C14 UNL     1      18.568   8.011   3.132  1.00  0.00     0.028 C
HETATM   17  C15 UNL     1      18.373   9.339   2.438  1.00  0.00     0.099 C
HETATM   18  C17 UNL     1      22.393  10.241   0.095  1.00  0.00     0.142 A
ENDROOT
BRANCH   1  19
HETATM   19  C5  UNL     1      26.734   9.847  -4.419  1.00  0.00     0.087 C
HETATM   20  C4  UNL     1      27.153   8.481  -3.935  1.00  0.00     0.026 C
HETATM   21  C3  UNL     1      28.663   8.494  -3.829  1.00  0.00     0.017 C
HETATM   22  C2  UNL     1      29.047   9.632  -4.738  1.00  0.00     0.089 C
HETATM   23  C18 UNL     1      28.006  10.686  -4.345  1.00  0.00     0.040 C
BRANCH  22  24
HETATM   24  C1  UNL     1      30.417  10.119  -4.521  1.00  0.00     0.177 C
HETATM   25  O1  UNL     1      30.723  10.591  -3.396  1.00  0.00    -0.648 OA
HETATM   26  O2  UNL     1      31.387  10.086  -5.487  1.00  0.00    -0.648 OA
ENDBRANCH  22  24
ENDBRANCH   1  19
BRANCH  17  27
HETATM   27  C16 UNL     1      17.221   9.145   1.459  1.00  0.00     0.110 C
HETATM   28 BR1  UNL     1      17.641   9.837  -0.269  1.00  0.00    -0.094 Br
ENDBRANCH  17  27
TORSDOF 3
ENDMDL