MODEL 2
REMARK VINA RESULT: -8.589315187      3.982      6.259
REMARK  4 active torsions:
REMARK  status: ('A' for Active; 'I' for Inactive)
REMARK    1  A    between atoms: C1_2  and  C2_4
REMARK    2  A    between atoms: C2_4  and  C3_5
REMARK       I    between atoms: C3_5  and  N1_7
REMARK       I    between atoms: N2_13  and  C9_14
REMARK    3  A    between atoms: C9_14  and  C10_16
REMARK    4  A    between atoms: C10_16  and  O5_17
ROOT
HETATM    1  C2  UNL     1      21.106   7.846  -2.190  1.00  0.00     0.132 C
HETATM    2  C7  UNL     1      22.387   7.085  -2.148  1.00  0.00     0.050 C
HETATM    3  C8  UNL     1      23.616   7.925  -2.416  1.00  0.00     0.127 C
HETATM    4  N2  UNL     1      23.467   8.547  -3.707  1.00  0.00    -0.349 N
HETATM    5  C9  UNL     1      24.415   9.358  -4.366  1.00  0.00     0.255 C
HETATM    6  O4  UNL     1      24.066   9.795  -5.519  1.00  0.00    -0.270 OA
HETATM    7  C19 UNL     1      22.160   8.279  -4.352  1.00  0.00     0.127 C
HETATM    8  C20 UNL     1      21.048   8.723  -3.432  1.00  0.00     0.050 C
ENDROOT
BRANCH   5   9
HETATM    9  C10 UNL     1      25.712   9.718  -3.841  1.00  0.00     0.146 C
HETATM   10  C11 UNL     1      26.462   8.638  -3.110  1.00  0.00     0.032 C
HETATM   11  C12 UNL     1      26.944   7.742  -4.230  1.00  0.00     0.013 C
HETATM   12  C16 UNL     1      27.722   9.254  -2.521  1.00  0.00     0.029 C
HETATM   13  C13 UNL     1      27.511   8.772  -5.184  1.00  0.00    -0.005 C
HETATM   14  C14 UNL     1      28.919   9.084  -4.649  1.00  0.00     0.026 C
HETATM   15  C18 UNL     1      26.721  10.041  -4.960  1.00  0.00     0.036 C
HETATM   16  C15 UNL     1      28.524  10.033  -3.506  1.00  0.00     0.019 C
HETATM   17 BR1  UNL     1      30.026  10.847  -2.685  1.00  0.00    -0.086 Br
HETATM   18  C17 UNL     1      27.694  11.019  -4.326  1.00  0.00     0.029 C
BRANCH   9  19
HETATM   19  O5  UNL     1      25.608  10.828  -2.988  1.00  0.00    -0.379 OA
ATOM     20  H5  UNL     1      26.437  11.290  -2.939  1.00  0.00     0.211 HD
ENDBRANCH   9  19
ENDBRANCH   5   9
BRANCH   1  21
HETATM   21  C1  UNL     1      19.962   6.894  -2.233  1.00  0.00     0.191 C
HETATM   22  O1  UNL     1      19.998   5.980  -3.128  1.00  0.00    -0.647 OA
HETATM   23  O2  UNL     1      18.875   6.911  -1.396  1.00  0.00    -0.647 OA
ENDBRANCH   1  21
BRANCH   1  24
HETATM   24  C3  UNL     1      20.972   8.690  -0.976  1.00  0.00     0.239 C
HETATM   25  O3  UNL     1      20.483   9.875  -1.129  1.00  0.00    -0.272 OA
HETATM   26  N1  UNL     1      21.354   8.258   0.312  1.00  0.00    -0.351 N
HETATM   27  C4  UNL     1      21.904   7.086   0.933  1.00  0.00     0.127 C
HETATM   28  C6  UNL     1      21.343   8.870   1.631  1.00  0.00     0.127 C
HETATM   29  C5  UNL     1      21.099   7.476   2.183  1.00  0.00     0.040 C
ENDBRANCH   1  24
TORSDOF 4
ENDMDL