MODEL 2
REMARK VINA RESULT: -9.315815470      1.247      1.575
REMARK  7 active torsions:
REMARK  status: ('A' for Active; 'I' for Inactive)
REMARK       I    between atoms: N2_5  and  C4_6
REMARK       I    between atoms: C4_6  and  N3_8
REMARK    1  A    between atoms: N3_8  and  C5_10
REMARK    2  A    between atoms: N4_13  and  C8_14
REMARK    3  A    between atoms: C8_14  and  O2_15
REMARK    4  A    between atoms: C8_14  and  N5_17
REMARK    5  A    between atoms: C11_20  and  C12_22
REMARK       I    between atoms: C12_22  and  N6_24
REMARK    6  A    between atoms: N6_24  and  C13_26
REMARK    7  A    between atoms: C13_26  and  C14_27
ROOT
HETATM    1  C5  UNL     1      24.914   9.701  -2.780  1.00  0.00     0.089 C
HETATM    2  C6  UNL     1      24.459   8.311  -3.150  1.00  0.00     0.045 C
HETATM    3  C7  UNL     1      23.188   7.910  -2.511  1.00  0.00     0.128 C
HETATM    4  N4  UNL     1      22.323   9.009  -2.090  1.00  0.00    -0.347 N
HETATM    5  C18 UNL     1      22.857  10.266  -1.656  1.00  0.00     0.128 C
HETATM    6  C19 UNL     1      24.365   9.979  -1.400  1.00  0.00     0.045 C
ENDROOT
BRANCH   4   7
HETATM    7  C8  UNL     1      20.931   8.782  -2.105  1.00  0.00     0.220 C
BRANCH   7   8
HETATM    8  O2  UNL     1      20.361   8.771  -3.282  1.00  0.00    -0.332 OA
ATOM      9  H2  UNL     1      20.481   7.982  -3.798  1.00  0.00     0.220 HD
ENDBRANCH   7   8
BRANCH   7  10
HETATM   10  N5  UNL     1      20.073   8.562  -1.010  1.00  0.00    -0.303 N
HETATM   11  C9  UNL     1      19.932   7.330  -0.186  1.00  0.00     0.136 C
HETATM   12  C10 UNL     1      18.547   7.774   0.151  1.00  0.00     0.097 C
HETATM   13  C11 UNL     1      19.087   9.152  -0.212  1.00  0.00     0.263 C
HETATM   14  F1  UNL     1      18.115   9.959  -0.763  1.00  0.00    -0.208 F
BRANCH  13  15
HETATM   15  C12 UNL     1      19.562   9.792   1.079  1.00  0.00     0.279 C
HETATM   16  O3  UNL     1      20.479  10.605   0.937  1.00  0.00    -0.268 OA
HETATM   17  N6  UNL     1      18.978   9.452   2.284  1.00  0.00    -0.356 N
ATOM     18  H6  UNL     1      18.238   8.754   2.222  1.00  0.00     0.162 HD
BRANCH  17  19
HETATM   19  C13 UNL     1      19.248   9.921   3.587  1.00  0.00     0.131 C
BRANCH  19  20
HETATM   20  C14 UNL     1      20.264   9.284   4.436  1.00  0.00    -0.035 C
HETATM   21  C15 UNL     1      20.594   7.858   4.278  1.00  0.00     0.016 C
HETATM   22  C16 UNL     1      21.574  10.086   4.268  1.00  0.00     0.016 C
HETATM   23  C17 UNL     1      19.831   9.487   5.914  1.00  0.00     0.016 C
ENDBRANCH  19  20
ENDBRANCH  17  19
ENDBRANCH  13  15
ENDBRANCH   7  10
ENDBRANCH   4   7
BRANCH   1  24
HETATM   24  N3  UNL     1      26.354   9.804  -2.714  1.00  0.00    -0.338 N
HETATM   25  C4  UNL     1      27.156  10.250  -3.776  1.00  0.00     0.318 C
HETATM   26  N2  UNL     1      28.546  10.333  -3.662  1.00  0.00    -0.331 N
HETATM   27  O1  UNL     1      26.606  10.580  -4.853  1.00  0.00    -0.247 OA
HETATM   28  C3  UNL     1      29.371  10.772  -4.767  1.00  0.00     0.147 C
HETATM   29  C20 UNL     1      29.205   9.988  -2.433  1.00  0.00     0.147 C
HETATM   30  C2  UNL     1      30.772  10.204  -4.708  1.00  0.00     0.136 C
HETATM   31  N1  UNL     1      31.412  10.464  -3.443  1.00  0.00    -0.414 N
HETATM   32  C1  UNL     1      32.492   9.582  -3.140  1.00  0.00     0.143 C
HETATM   33  C21 UNL     1      30.514  10.748  -2.381  1.00  0.00     0.136 C
ATOM     34  H3  UNL     1      26.814   9.536  -1.844  1.00  0.00     0.164 HD
ENDBRANCH   1  24
TORSDOF 7
ENDMDL