MODEL 1
REMARK VINA RESULT: -9.601106689      0.000      0.000
REMARK  5 active torsions:
REMARK  status: ('A' for Active; 'I' for Inactive)
REMARK    1  A    between atoms: O1_2  and  C2_3
REMARK    2  A    between atoms: C2_3  and  N5_30
REMARK       I    between atoms: N1_4  and  C3_6
REMARK       I    between atoms: N3_8  and  C4_10
REMARK    3  A    between atoms: C4_10  and  C5_12
REMARK    4  A    between atoms: C14_21  and  N4_22
REMARK       I    between atoms: N4_22  and  C15_24
REMARK    5  A    between atoms: C15_24  and  C16_26
ROOT
HETATM    1  C5  UNL     1      21.772   9.213  -1.191  1.00  0.00     0.079 C
HETATM    2  C6  UNL     1      21.482   7.975  -0.416  1.00  0.00     0.018 C
HETATM    3  C7  UNL     1      21.512   8.120   1.063  1.00  0.00    -0.011 C
HETATM    4  C8  UNL     1      22.551   9.171   1.368  1.00  0.00     0.010 C
HETATM    5  C9  UNL     1      21.891  10.520   0.988  1.00  0.00    -0.007 C
HETATM    6  C10 UNL     1      21.712  10.513  -0.471  1.00  0.00     0.019 C
HETATM    7  C11 UNL     1      20.720  10.532   1.854  1.00  0.00     0.018 C
HETATM    8  C12 UNL     1      19.818  11.544   2.276  1.00  0.00     0.010 C
HETATM    9  C13 UNL     1      18.916  10.380   2.592  1.00  0.00     0.032 C
HETATM   10  C14 UNL     1      19.599   9.673   1.450  1.00  0.00     0.037 C
HETATM   11  C19 UNL     1      20.208   8.285   1.768  1.00  0.00     0.036 C
ENDROOT
BRANCH   1  12
HETATM   12  C4  UNL     1      23.006   9.100  -2.050  1.00  0.00     0.228 C
HETATM   13  N3  UNL     1      24.304   9.301  -1.550  1.00  0.00    -0.301 N
HETATM   14  C3  UNL     1      25.101  10.206  -1.987  1.00  0.00     0.198 C
ATOM     15  H3  UNL     1      24.631   8.694  -0.798  1.00  0.00     0.171 HD
HETATM   16  N1  UNL     1      26.389  10.314  -1.405  1.00  0.00    -0.296 N
HETATM   17  N2  UNL     1      24.760  11.114  -3.034  1.00  0.00    -0.063 NA
HETATM   18  C2  UNL     1      27.488  10.195  -2.058  1.00  0.00     0.223 C
ATOM     19  H1  UNL     1      26.446  10.499  -0.403  1.00  0.00     0.172 HD
HETATM   20  O2  UNL     1      22.846   8.813  -3.264  1.00  0.00    -0.273 OA
BRANCH  18  21
HETATM   21  O1  UNL     1      28.689  10.328  -1.349  1.00  0.00    -0.327 OA
HETATM   22  C1  UNL     1      29.873  10.599  -2.089  1.00  0.00     0.213 C
ENDBRANCH  18  21
BRANCH  18  23
HETATM   23  N5  UNL     1      27.495   9.937  -3.458  1.00  0.00    -0.344 N
HETATM   24  C20 UNL     1      27.430  10.934  -4.492  1.00  0.00     0.129 C
HETATM   25  C21 UNL     1      27.925  10.255  -5.760  1.00  0.00     0.058 C
HETATM   26  C22 UNL     1      28.473   8.949  -5.284  1.00  0.00     0.189 C
HETATM   27  F1  UNL     1      29.764   9.096  -4.859  1.00  0.00    -0.248 F
HETATM   28  C23 UNL     1      27.567   8.633  -4.088  1.00  0.00     0.163 C
ENDBRANCH  18  23
ENDBRANCH   1  12
BRANCH  10  29
HETATM   29  N4  UNL     1      18.771   9.653   0.349  1.00  0.00    -0.351 N
HETATM   30  C15 UNL     1      18.042   8.667  -0.294  1.00  0.00     0.222 C
HETATM   31  O3  UNL     1      18.002   7.464   0.036  1.00  0.00    -0.273 OA
ATOM     32  H4  UNL     1      18.674  10.568  -0.090  1.00  0.00     0.163 HD
BRANCH  30  33
HETATM   33  C16 UNL     1      17.184   9.001  -1.523  1.00  0.00     0.078 A
HETATM   34  C17 UNL     1      16.484  10.310  -1.394  1.00  0.00     0.015 A
HETATM   35  C18 UNL     1      17.580  10.073  -2.430  1.00  0.00     0.015 A
ENDBRANCH  30  33
ENDBRANCH  10  29
TORSDOF 5
ENDMDL