MODEL 1
REMARK VINA RESULT: -9.236312188      0.000      0.000
REMARK  3 active torsions:
REMARK  status: ('A' for Active; 'I' for Inactive)
REMARK       I    between atoms: N2_4  and  C3_5
REMARK       I    between atoms: C3_5  and  N3_7
REMARK    1  A    between atoms: N3_7  and  C4_9
REMARK    2  A    between atoms: C9_15  and  C10_16
REMARK       I    between atoms: C10_16  and  N4_18
REMARK    3  A    between atoms: C13_21  and  N5_22
ROOT
HETATM    1  C1  UNL     1      17.993   7.747  -4.631  1.00  0.00     0.033 C
HETATM    2  C2  UNL     1      18.887   7.504  -3.455  1.00  0.00     0.129 C
HETATM    3  N1  UNL     1      19.566   8.750  -3.110  1.00  0.00    -0.127 NA
HETATM    4  N2  UNL     1      20.805   8.528  -2.569  1.00  0.00    -0.232 N
HETATM    5  C3  UNL     1      21.138   8.842  -1.237  1.00  0.00     0.335 C
HETATM    6  O1  UNL     1      22.320   8.613  -0.788  1.00  0.00    -0.246 OA
HETATM    7  N3  UNL     1      20.248   9.417  -0.291  1.00  0.00    -0.337 N
ATOM      8  H3  UNL     1      19.291   9.628  -0.573  1.00  0.00     0.164 HD
HETATM    9  C9  UNL     1      21.846   7.924  -3.415  1.00  0.00     0.204 C
HETATM   10  C22 UNL     1      21.070   7.164  -4.488  1.00  0.00     0.075 C
HETATM   11  C23 UNL     1      19.931   6.433  -3.772  1.00  0.00     0.193 C
HETATM   12  F1  UNL     1      19.424   5.409  -4.509  1.00  0.00    -0.248 F
ENDROOT
BRANCH   9  13
HETATM   13  C10 UNL     1      22.628   8.949  -4.099  1.00  0.00     0.244 C
HETATM   14  O3  UNL     1      22.037   9.584  -5.051  1.00  0.00    -0.271 OA
HETATM   15  N4  UNL     1      23.953   9.250  -3.763  1.00  0.00    -0.350 N
HETATM   16  C11 UNL     1      24.611   8.596  -2.677  1.00  0.00     0.128 C
HETATM   17  C21 UNL     1      24.640  10.249  -4.584  1.00  0.00     0.128 C
HETATM   18  C12 UNL     1      25.910   8.026  -3.275  1.00  0.00     0.053 C
HETATM   19  C13 UNL     1      26.689   9.216  -3.778  1.00  0.00     0.193 C
HETATM   20  C20 UNL     1      26.012   9.702  -5.017  1.00  0.00     0.053 C
BRANCH  19  21
HETATM   21  N5  UNL     1      28.105   8.926  -3.968  1.00  0.00    -0.067 N
HETATM   22  C14 UNL     1      28.155   7.467  -4.230  1.00  0.00     0.273 C
HETATM   23  C15 UNL     1      28.947   9.199  -2.887  1.00  0.00     0.237 C
HETATM   24  C16 UNL     1      29.917  10.317  -2.985  1.00  0.00     0.028 C
HETATM   25  C17 UNL     1      30.349  10.687  -4.363  1.00  0.00     0.003 C
HETATM   26  C18 UNL     1      29.041  10.882  -5.145  1.00  0.00     0.028 C
HETATM   27  C19 UNL     1      28.467   9.511  -5.242  1.00  0.00     0.237 C
ENDBRANCH  19  21
ENDBRANCH   9  13
BRANCH   7  28
HETATM   28  C4  UNL     1      20.674   9.716   1.085  1.00  0.00     0.090 C
HETATM   29  C5  UNL     1      20.359   8.574   2.014  1.00  0.00     0.051 C
HETATM   30  C6  UNL     1      18.918   8.700   2.438  1.00  0.00     0.169 C
HETATM   31  O2  UNL     1      18.788   9.881   3.179  1.00  0.00    -0.391 OA
HETATM   32  C7  UNL     1      18.810  10.924   2.240  1.00  0.00     0.169 C
HETATM   33  C8  UNL     1      20.136  11.034   1.545  1.00  0.00     0.051 C
ENDBRANCH   7  28
TORSDOF 3
ENDMDL