MODEL 3
REMARK VINA RESULT: -8.259760200      3.815      6.566
REMARK  5 active torsions:
REMARK  status: ('A' for Active; 'I' for Inactive)
REMARK    1  A    between atoms: C3_3  and  C4_4
REMARK    2  A    between atoms: C5_5  and  C6_6
REMARK       I    between atoms: N1_8  and  C8_9
REMARK       I    between atoms: C8_9  and  N2_11
REMARK    3  A    between atoms: N2_11  and  C9_13
REMARK    4  A    between atoms: C16_20  and  C17_21
REMARK    5  A    between atoms: C22_28  and  S1_30
ROOT
HETATM    1  C1  UNL     1      16.531   9.575  -8.599  1.00  0.00     0.113 C
HETATM    2  C2  UNL     1      17.481   9.415  -7.488  1.00  0.00    -0.097 C
HETATM    3  C3  UNL     1      18.267   9.266  -6.585  1.00  0.00    -0.015 C
ENDROOT
BRANCH   3   4
HETATM    4  C4  UNL     1      19.195   9.070  -5.536  1.00  0.00    -0.015 C
HETATM    5  C5  UNL     1      19.992   8.918  -4.616  1.00  0.00    -0.082 C
BRANCH   5   6
HETATM    6  C6  UNL     1      20.966   8.748  -3.559  1.00  0.00     0.137 C
HETATM    7  C7  UNL     1      20.548   7.551  -2.674  1.00  0.00     0.149 C
HETATM    8  N1  UNL     1      21.385   7.592  -1.489  1.00  0.00    -0.333 N
HETATM    9  C8  UNL     1      20.766   7.611  -0.211  1.00  0.00     0.318 C
HETATM   10  C20 UNL     1      22.796   7.606  -1.699  1.00  0.00     0.132 C
HETATM   11  O1  UNL     1      19.496   7.598  -0.149  1.00  0.00    -0.247 OA
HETATM   12  N2  UNL     1      21.457   7.646   1.025  1.00  0.00    -0.338 N
ATOM     13  H2  UNL     1      22.478   7.657   1.032  1.00  0.00     0.164 HD
HETATM   14  C21 UNL     1      23.239   8.546  -2.772  1.00  0.00     0.079 C
HETATM   15  C22 UNL     1      22.335   8.478  -4.025  1.00  0.00     0.196 C
HETATM   16  F1  UNL     1      22.438   7.123  -4.409  1.00  0.00    -0.227 F
BRANCH  12  17
HETATM   17  C9  UNL     1      20.732   7.665   2.280  1.00  0.00     0.094 C
HETATM   18  C10 UNL     1      19.863   8.884   2.362  1.00  0.00     0.010 C
HETATM   19  C11 UNL     1      18.951   8.711   3.571  1.00  0.00     0.011 C
HETATM   20  C19 UNL     1      20.682  10.141   2.519  1.00  0.00     0.025 C
HETATM   21  C12 UNL     1      19.796   8.588   4.808  1.00  0.00    -0.013 C
HETATM   22  C13 UNL     1      20.759   7.451   4.704  1.00  0.00     0.011 C
HETATM   23  C18 UNL     1      20.592   9.870   4.979  1.00  0.00     0.023 C
HETATM   24  C14 UNL     1      21.655   7.619   3.470  1.00  0.00     0.010 C
HETATM   25  C15 UNL     1      22.428   8.888   3.661  1.00  0.00     0.025 C
HETATM   26  C16 UNL     1      21.494  10.077   3.792  1.00  0.00     0.040 C
BRANCH  26  27
HETATM   27  C17 UNL     1      22.285  11.308   3.965  1.00  0.00     0.239 C
HETATM   28  N3  UNL     1      22.444  12.204   2.877  1.00  0.00    -0.061 NA
HETATM   29  O2  UNL     1      22.819  11.565   5.078  1.00  0.00    -0.276 OA
ENDBRANCH  26  27
ENDBRANCH  12  17
BRANCH  15  30
HETATM   30  S1  UNL     1      22.998   9.420  -5.316  1.00  0.00     0.053 S
HETATM   31  C23 UNL     1      24.674   9.864  -5.223  1.00  0.00     0.131 C
HETATM   32  O3  UNL     1      22.518   8.972  -6.831  1.00  0.00    -0.255 OA
ENDBRANCH  15  30
ENDBRANCH   5   6
ENDBRANCH   3   4
TORSDOF 5
ENDMDL