MODEL 3
REMARK VINA RESULT: -10.417079869      0.852      1.365
REMARK  3 active torsions:
REMARK  status: ('A' for Active; 'I' for Inactive)
REMARK       I    between atoms: C2_2  and  N1_4
REMARK       I    between atoms: N2_7  and  C5_8
REMARK    1  A    between atoms: C5_8  and  C6_10
REMARK    2  A    between atoms: C10_17  and  C11_18
REMARK       I    between atoms: C11_18  and  N4_20
REMARK    3  A    between atoms: N4_20  and  C12_22
ROOT
HETATM    1  C6  UNL     1      22.168   7.479  -2.097  1.00  0.00     0.123 C
HETATM    2  C7  UNL     1      20.788   7.339  -2.703  1.00  0.00     0.202 C
HETATM    3  C8  UNL     1      20.776   8.518  -3.663  1.00  0.00     0.067 C
HETATM    4  C9  UNL     1      21.825   7.676  -4.337  1.00  0.00     0.202 C
HETATM    5  N3  UNL     1      20.998   6.528  -3.919  1.00  0.00    -0.065 N
ATOM      6  H31 UNL     1      20.229   6.164  -4.481  1.00  0.00     0.278 HD
ATOM      7  H32 UNL     1      21.350   5.572  -3.893  1.00  0.00     0.278 HD
HETATM    8  C10 UNL     1      22.978   7.508  -3.359  1.00  0.00     0.123 C
ENDROOT
BRANCH   8   9
HETATM    9  C11 UNL     1      24.013   8.495  -3.502  1.00  0.00     0.225 C
HETATM   10  O3  UNL     1      23.777   9.495  -4.270  1.00  0.00    -0.273 OA
HETATM   11  N4  UNL     1      25.295   8.511  -2.893  1.00  0.00    -0.355 N
ATOM     12  H4  UNL     1      25.533   7.740  -2.269  1.00  0.00     0.162 HD
BRANCH  11  13
HETATM   13  C12 UNL     1      26.275   9.533  -3.091  1.00  0.00     0.092 C
HETATM   14  C13 UNL     1      26.465   9.867  -4.539  1.00  0.00     0.009 C
HETATM   15  C14 UNL     1      27.187   8.737  -5.281  1.00  0.00     0.011 C
HETATM   16  C18 UNL     1      27.317  11.092  -4.739  1.00  0.00     0.011 C
HETATM   17  C15 UNL     1      28.550   8.489  -4.682  1.00  0.00    -0.013 C
HETATM   18  C16 UNL     1      29.429   9.720  -4.712  1.00  0.00     0.009 C
HETATM   19  C21 UNL     1      28.354   8.125  -3.223  1.00  0.00     0.011 C
HETATM   20  C17 UNL     1      28.652  10.848  -4.101  1.00  0.00    -0.013 C
HETATM   21  C19 UNL     1      28.444  10.490  -2.633  1.00  0.00     0.011 C
HETATM   22  C20 UNL     1      27.625   9.212  -2.498  1.00  0.00     0.009 C
ENDBRANCH  11  13
ENDBRANCH   8   9
BRANCH   1  23
HETATM   23  C5  UNL     1      22.301   8.595  -1.186  1.00  0.00     0.227 C
HETATM   24  N2  UNL     1      22.120   8.413   0.214  1.00  0.00    -0.347 N
HETATM   25  C4  UNL     1      21.805   7.109   0.812  1.00  0.00     0.145 C
HETATM   26  C22 UNL     1      22.255   9.524   1.125  1.00  0.00     0.167 C
HETATM   27  C3  UNL     1      22.426   7.092   2.223  1.00  0.00     0.147 C
HETATM   28  N1  UNL     1      21.615   8.085   2.948  1.00  0.00    -0.332 N
HETATM   29  C2  UNL     1      21.145   7.771   4.250  1.00  0.00     0.217 C
HETATM   30  C23 UNL     1      21.329   9.344   2.307  1.00  0.00     0.202 C
HETATM   31  C1  UNL     1      20.311   8.658   5.080  1.00  0.00     0.117 C
HETATM   32  O1  UNL     1      21.445   6.641   4.779  1.00  0.00    -0.274 OA
HETATM   33 CL1  UNL     1      21.470  10.733   3.419  1.00  0.00    -0.101 Cl
HETATM   34  O2  UNL     1      22.574   9.739  -1.588  1.00  0.00    -0.273 OA
ENDBRANCH   1  23
TORSDOF 3
ENDMDL