MODEL 5
REMARK VINA RESULT: -7.713138608      2.380      3.220
REMARK  9 active torsions:
REMARK  status: ('A' for Active; 'I' for Inactive)
REMARK       I    between atoms: N1_2  and  C2_4
REMARK       I    between atoms: C2_4  and  N2_6
REMARK    1  A    between atoms: N2_6  and  C3_8
REMARK    2  A    between atoms: C3_8  and  C4_9
REMARK    3  A    between atoms: C5_10  and  C6_11
REMARK    4  A    between atoms: C6_11  and  O2_12
REMARK    5  A    between atoms: C6_11  and  C7_14
REMARK    6  A    between atoms: N3_17  and  C10_18
REMARK    7  A    between atoms: C10_18  and  O3_19
REMARK    8  A    between atoms: C10_18  and  N4_21
REMARK    9  A    between atoms: C15_26  and  C16_27
ROOT
HETATM    1  C7  UNL     1      22.111   7.623  -4.531  1.00  0.00     0.029 C
HETATM    2  C8  UNL     1      22.475   7.312  -3.088  1.00  0.00     0.028 C
HETATM    3  C9  UNL     1      21.373   6.435  -2.541  1.00  0.00     0.127 C
HETATM    4  N3  UNL     1      20.212   7.324  -2.345  1.00  0.00    -0.347 N
HETATM    5  C17 UNL     1      19.884   8.132  -3.477  1.00  0.00     0.127 C
HETATM    6  C18 UNL     1      20.630   7.562  -4.700  1.00  0.00     0.028 C
ENDROOT
BRANCH   1   7
HETATM    7  C6  UNL     1      22.591   9.026  -4.909  1.00  0.00     0.201 C
BRANCH   7   8
HETATM    8  C5  UNL     1      23.852   9.331  -4.198  1.00  0.00    -0.073 C
HETATM    9  C4  UNL     1      24.888   9.592  -3.637  1.00  0.00    -0.084 C
BRANCH   9  10
HETATM   10  C3  UNL     1      26.145   9.933  -2.973  1.00  0.00     0.219 C
BRANCH  10  11
HETATM   11  N2  UNL     1      27.074  10.544  -3.887  1.00  0.00    -0.333 N
HETATM   12  C2  UNL     1      28.420  10.105  -3.910  1.00  0.00     0.316 C
HETATM   13  N1  UNL     1      29.325  10.708  -4.806  1.00  0.00    -0.347 N
HETATM   14  O1  UNL     1      28.808   9.177  -3.132  1.00  0.00    -0.247 OA
HETATM   15  C1  UNL     1      30.697  10.268  -4.842  1.00  0.00     0.151 C
ATOM     16  H1  UNL     1      29.010  11.454  -5.427  1.00  0.00     0.163 HD
ATOM     17  H2  UNL     1      26.766  11.287  -4.513  1.00  0.00     0.165 HD
ENDBRANCH  10  11
ENDBRANCH   9  10
ENDBRANCH   7   8
BRANCH   7  18
HETATM   18  O2  UNL     1      22.790   9.027  -6.282  1.00  0.00    -0.383 OA
ATOM     19  H2  UNL     1      22.281   9.715  -6.694  1.00  0.00     0.211 HD
ENDBRANCH   7  18
ENDBRANCH   1   7
BRANCH   4  20
HETATM   20  C10 UNL     1      19.506   7.343  -1.151  1.00  0.00     0.218 C
BRANCH  20  21
HETATM   21  O3  UNL     1      18.395   6.667  -1.182  1.00  0.00    -0.332 OA
ATOM     22  H3  UNL     1      17.732   6.987  -0.582  1.00  0.00     0.220 HD
ENDBRANCH  20  21
BRANCH  20  23
HETATM   23  N4  UNL     1      19.824   7.989   0.086  1.00  0.00    -0.331 N
HETATM   24  C11 UNL     1      19.487   9.401   0.334  1.00  0.00     0.084 C
HETATM   25  C12 UNL     1      18.163   9.789  -0.298  1.00  0.00     0.032 C
HETATM   26  C13 UNL     1      19.428   9.576   1.817  1.00  0.00     0.027 C
HETATM   27  C14 UNL     1      19.667   8.203   2.383  1.00  0.00     0.036 C
HETATM   28  C15 UNL     1      20.483   7.513   1.267  1.00  0.00     0.170 C
BRANCH  28  29
HETATM   29  C16 UNL     1      21.887   8.047   1.363  1.00  0.00     0.217 C
HETATM   30  O4  UNL     1      22.538   8.281   0.363  1.00  0.00    -0.283 OA
HETATM   31 BR1  UNL     1      22.710   8.381   3.051  1.00  0.00    -0.007 Br
ENDBRANCH  28  29
ENDBRANCH  20  23
ENDBRANCH   4  20
TORSDOF 9
ENDMDL