MODEL 3
REMARK VINA RESULT: -9.643032401      2.503      4.371
REMARK  3 active torsions:
REMARK  status: ('A' for Active; 'I' for Inactive)
REMARK    1  A    between atoms: C5_5  and  C6_6
REMARK       I    between atoms: C6_6  and  N1_8
REMARK       I    between atoms: N2_11  and  C9_12
REMARK    2  A    between atoms: C9_12  and  C10_14
REMARK    3  A    between atoms: C19_24  and  C21_26
REMARK       I    between atoms: C21_26  and  N3_28
ROOT
HETATM    1  C10 UNL     1      20.027   8.600  -1.069  1.00  0.00     0.061 C
HETATM    2  C11 UNL     1      19.590   9.548  -2.143  1.00  0.00     0.025 C
HETATM    3  C12 UNL     1      18.057   9.414  -2.101  1.00  0.00    -0.010 C
HETATM    4  C13 UNL     1      18.019   7.909  -2.268  1.00  0.00     0.011 C
HETATM    5  C14 UNL     1      18.898   7.563  -1.058  1.00  0.00     0.008 C
HETATM    6  C15 UNL     1      17.953   7.668   0.088  1.00  0.00     0.049 C
HETATM    7  C16 UNL     1      17.783   9.150   0.385  1.00  0.00     0.105 C
HETATM    8  F1  UNL     1      16.745   9.280   1.307  1.00  0.00    -0.243 F
HETATM    9  C17 UNL     1      17.475   9.925  -0.842  1.00  0.00     0.048 C
HETATM   10  C18 UNL     1      19.053   9.538   1.074  1.00  0.00     0.063 C
HETATM   11  C19 UNL     1      20.284   9.182   0.266  1.00  0.00     0.057 C
HETATM   12  C20 UNL     1      21.086  10.463   0.206  1.00  0.00     0.027 C
ENDROOT
BRANCH   1  13
HETATM   13  C9  UNL     1      21.199   7.864  -1.604  1.00  0.00     0.231 C
HETATM   14  N2  UNL     1      22.427   8.328  -2.067  1.00  0.00    -0.333 N
HETATM   15  C8  UNL     1      23.493   7.407  -2.579  1.00  0.00     0.147 C
HETATM   16  C23 UNL     1      23.013   9.628  -2.206  1.00  0.00     0.255 C
HETATM   17  C7  UNL     1      23.842   8.211  -3.842  1.00  0.00     0.147 C
HETATM   18  N1  UNL     1      24.049   9.499  -3.247  1.00  0.00    -0.334 N
HETATM   19  C6  UNL     1      25.037  10.434  -3.590  1.00  0.00     0.226 C
HETATM   20  O1  UNL     1      25.067  11.535  -2.943  1.00  0.00    -0.273 OA
HETATM   21  O2  UNL     1      21.064   6.577  -1.652  1.00  0.00    -0.272 OA
BRANCH  19  22
HETATM   22  C5  UNL     1      26.005  10.157  -4.658  1.00  0.00     0.086 A
HETATM   23  C2  UNL     1      27.328   9.551  -4.359  1.00  0.00    -0.035 A
HETATM   24  C1  UNL     1      27.690   9.153  -2.952  1.00  0.00     0.015 C
HETATM   25  C3  UNL     1      27.991   8.710  -5.430  1.00  0.00     0.015 C
HETATM   26  C4  UNL     1      27.260  11.003  -4.610  1.00  0.00     0.024 A
ENDBRANCH  19  22
ENDBRANCH   1  13
BRANCH  11  27
HETATM   27  C21 UNL     1      21.123   8.285   1.148  1.00  0.00     0.233 C
HETATM   28  O3  UNL     1      20.781   7.100   1.377  1.00  0.00    -0.272 OA
HETATM   29  N3  UNL     1      22.326   8.707   1.767  1.00  0.00    -0.303 N
HETATM   30  C22 UNL     1      22.610   8.554   3.009  1.00  0.00     0.203 C
ATOM     31  H3  UNL     1      23.020   9.169   1.180  1.00  0.00     0.171 HD
HETATM   32  N4  UNL     1      23.875   9.046   3.451  1.00  0.00    -0.066 NA
HETATM   33  N5  UNL     1      21.768   7.939   3.954  1.00  0.00    -0.066 NA
ENDBRANCH  11  27
TORSDOF 3
ENDMDL