MODEL 2
REMARK VINA RESULT: -10.206113049      1.794      2.328
REMARK  4 active torsions:
REMARK  status: ('A' for Active; 'I' for Inactive)
REMARK    1  A    between atoms: N1_7  and  C5_8
REMARK    2  A    between atoms: C5_8  and  C6_9
REMARK    3  A    between atoms: C9_12  and  O3_13
REMARK    4  A    between atoms: C12_17  and  N2_18
REMARK       I    between atoms: N2_18  and  C13_20
REMARK       I    between atoms: C13_20  and  N3_22
ROOT
HETATM    1  C6  UNL     1     -19.624   9.591  -0.643  1.00  0.00    -0.023 C
HETATM    2  C7  UNL     1     -18.213   9.679  -0.031  1.00  0.00     0.014 C
HETATM    3  C8  UNL     1     -18.027   8.478   0.833  1.00  0.00     0.039 C
HETATM    4  C9  UNL     1     -19.319   7.838   1.204  1.00  0.00     0.067 C
HETATM    5  C10 UNL     1     -20.003   7.225  -0.027  1.00  0.00     0.023 C
HETATM    6  C11 UNL     1     -21.498   7.269   0.292  1.00  0.00     0.033 C
HETATM    7  C12 UNL     1     -21.592   7.898   1.663  1.00  0.00     0.093 C
HETATM    8  C19 UNL     1     -20.396   8.842   1.615  1.00  0.00     0.044 C
HETATM    9  C20 UNL     1     -20.593   9.804   0.494  1.00  0.00     0.021 C
HETATM   10  C21 UNL     1     -19.706   8.174  -1.179  1.00  0.00     0.019 C
ENDROOT
BRANCH   7  11
HETATM   11  N2  UNL     1     -22.834   8.561   1.901  1.00  0.00    -0.338 N
HETATM   12  C13 UNL     1     -23.752   8.031   2.865  1.00  0.00     0.318 C
HETATM   13  O4  UNL     1     -23.424   6.989   3.474  1.00  0.00    -0.247 OA
HETATM   14  N3  UNL     1     -24.995   8.649   3.139  1.00  0.00    -0.334 N
HETATM   15  C14 UNL     1     -25.873   8.078   4.111  1.00  0.00     0.130 C
HETATM   16  C18 UNL     1     -25.315   9.863   2.393  1.00  0.00     0.130 C
HETATM   17  C15 UNL     1     -27.332   8.200   3.770  1.00  0.00     0.057 C
HETATM   18  C16 UNL     1     -27.612   9.086   2.605  1.00  0.00     0.173 C
HETATM   19  F1  UNL     1     -28.927   9.511   2.671  1.00  0.00    -0.249 F
HETATM   20  C17 UNL     1     -26.711  10.299   2.691  1.00  0.00     0.057 C
ATOM     21  H2  UNL     1     -23.068   9.410   1.385  1.00  0.00     0.164 HD
ENDBRANCH   7  11
BRANCH   4  22
HETATM   22  O3  UNL     1     -19.191   6.936   2.229  1.00  0.00    -0.389 OA
ATOM     23  H3  UNL     1     -19.765   6.186   2.133  1.00  0.00     0.210 HD
ENDBRANCH   4  22
BRANCH   1  24
HETATM   24  C5  UNL     1     -19.780  10.628  -1.702  1.00  0.00     0.138 C
BRANCH  24  25
HETATM   25  N1  UNL     1     -20.723  10.344  -2.744  1.00  0.00    -0.321 N
HETATM   26  C2  UNL     1     -20.631   9.558  -3.952  1.00  0.00     0.109 C
HETATM   27  C1  UNL     1     -19.315   9.642  -4.638  1.00  0.00     0.034 C
HETATM   28  C3  UNL     1     -21.687  10.241  -4.834  1.00  0.00     0.205 C
HETATM   29  O1  UNL     1     -22.740  10.335  -3.855  1.00  0.00    -0.302 OA
HETATM   30  C4  UNL     1     -22.062  10.864  -2.740  1.00  0.00     0.363 C
HETATM   31  O2  UNL     1     -22.609  11.658  -1.919  1.00  0.00    -0.238 OA
ENDBRANCH  24  25
ENDBRANCH   1  24
TORSDOF 4
ENDMDL