MODEL 3
REMARK VINA RESULT: -8.694248481      3.559      9.675
REMARK  5 active torsions:
REMARK  status: ('A' for Active; 'I' for Inactive)
REMARK    1  A    between atoms: C2_3  and  C3_4
REMARK    2  A    between atoms: C4_5  and  C5_6
REMARK    3  A    between atoms: C5_6  and  C6_7
REMARK    4  A    between atoms: C6_7  and  C7_8
REMARK    5  A    between atoms: C14_21  and  N3_22
ROOT
HETATM    1  O1  UNL     1     -28.246   9.792   2.455  1.00  0.00    -0.286 OA
HETATM    2  C1  UNL     1     -27.591   9.682   3.505  1.00  0.00     0.202 A
HETATM    3  C2  UNL     1     -28.230   9.837   4.714  1.00  0.00     0.083 A
HETATM    4  C8  UNL     1     -27.438   9.700   5.841  1.00  0.00     0.114 A
HETATM    5  N1  UNL     1     -26.113   9.431   5.731  1.00  0.00    -0.350 N
ATOM      6  H1  UNL     1     -25.556   9.336   6.581  1.00  0.00     0.166 HD
HETATM    7  C9  UNL     1     -25.507   9.284   4.530  1.00  0.00     0.114 A
HETATM    8  C10 UNL     1     -26.235   9.405   3.372  1.00  0.00     0.039 A
HETATM    9  C11 UNL     1     -25.340   9.205   2.215  1.00  0.00     0.074 C
HETATM   10  C12 UNL     1     -24.069   8.708   2.794  1.00  0.00     0.121 C
HETATM   11  C13 UNL     1     -22.851   9.300   2.114  1.00  0.00     0.219 A
HETATM   12  N2  UNL     1     -22.494   8.437   0.989  1.00  0.00    -0.036 N
ATOM     13  H21 UNL     1     -22.462   8.805   0.039  1.00  0.00     0.280 HD
ATOM     14  H22 UNL     1     -23.132   7.708   0.668  1.00  0.00     0.280 HD
HETATM   15  C14 UNL     1     -21.254   8.090   1.704  1.00  0.00     0.426 A
HETATM   16  C20 UNL     1     -21.608   8.968   2.858  1.00  0.00     0.081 A
HETATM   17  C21 UNL     1     -21.906   8.240   4.126  1.00  0.00     0.030 C
HETATM   18  C22 UNL     1     -22.930   8.960   4.981  1.00  0.00     0.125 C
HETATM   19  N4  UNL     1     -24.157   9.004   4.195  1.00  0.00    -0.360 N
ENDROOT
BRANCH   3  20
HETATM   20  C3  UNL     1     -29.639  10.124   4.761  1.00  0.00    -0.061 C
HETATM   21  C4  UNL     1     -30.826  10.345   4.794  1.00  0.00    -0.101 C
BRANCH  21  22
HETATM   22  C5  UNL     1     -32.287  10.590   4.829  1.00  0.00     0.095 C
BRANCH  22  23
HETATM   23  C6  UNL     1     -32.977   9.822   3.712  1.00  0.00     0.027 C
BRANCH  23  24
HETATM   24  C7  UNL     1     -32.120   9.904   2.487  1.00  0.00     0.115 C
HETATM   25 CL1  UNL     1     -32.366   8.516   1.405  1.00  0.00    -0.130 Cl
ENDBRANCH  23  24
ENDBRANCH  22  23
ENDBRANCH  21  22
ENDBRANCH   3  20
BRANCH  15  26
HETATM   26  N3  UNL     1     -20.153   8.502   0.862  1.00  0.00     0.120 N
HETATM   27  C15 UNL     1     -18.891   8.536   1.548  1.00  0.00     0.275 C
HETATM   28  C16 UNL     1     -17.911   9.290   0.658  1.00  0.00     0.030 C
HETATM   29  C17 UNL     1     -18.591   9.840  -0.580  1.00  0.00     0.003 C
HETATM   30  C18 UNL     1     -19.263   8.695  -1.343  1.00  0.00     0.030 C
HETATM   31  C19 UNL     1     -20.057   7.824  -0.389  1.00  0.00     0.275 C
ENDBRANCH  15  26
TORSDOF 5
ENDMDL