MODEL 5
REMARK VINA RESULT: -9.319284307      1.193      1.707
REMARK  5 active torsions:
REMARK  status: ('A' for Active; 'I' for Inactive)
REMARK       I    between atoms: N1_2  and  C2_4
REMARK       I    between atoms: C2_4  and  N2_5
REMARK    1  A    between atoms: N4_9  and  C4_11
REMARK    2  A    between atoms: C7_15  and  C8_16
REMARK    3  A    between atoms: C8_16  and  O1_17
REMARK    4  A    between atoms: C8_16  and  N5_19
REMARK    5  A    between atoms: N6_22  and  C11_23
ROOT
HETATM    1  C4  UNL     1     -22.328   8.970  -0.184  1.00  0.00     0.145 A
HETATM    2  C5  UNL     1     -21.923   7.847   0.482  1.00  0.00     0.081 A
HETATM    3 CL1  UNL     1     -20.807   6.612  -0.065  1.00  0.00    -0.080 Cl
HETATM    4  C6  UNL     1     -22.531   7.819   1.748  1.00  0.00     0.062 A
HETATM    5  C7  UNL     1     -23.304   8.939   1.834  1.00  0.00     0.088 A
HETATM    6  N7  UNL     1     -23.172   9.622   0.663  1.00  0.00    -0.332 N
HETATM    7  C19 UNL     1     -23.806  10.863   0.310  1.00  0.00     0.158 C
ENDROOT
BRANCH   5   8
HETATM    8  C8  UNL     1     -24.160   9.405   2.924  1.00  0.00     0.166 C
BRANCH   8   9
HETATM    9  O1  UNL     1     -23.596  10.113   3.867  1.00  0.00    -0.344 OA
ATOM     10  H1  UNL     1     -22.701  10.396   3.723  1.00  0.00     0.219 HD
ENDBRANCH   8   9
BRANCH   8  11
HETATM   11  N5  UNL     1     -25.509   9.200   3.105  1.00  0.00    -0.354 N
HETATM   12  C9  UNL     1     -26.126   8.025   3.636  1.00  0.00     0.169 C
HETATM   13  C10 UNL     1     -27.639   8.133   3.677  1.00  0.00     0.078 C
HETATM   14  N6  UNL     1     -28.137   9.377   4.096  1.00  0.00    -0.386 N
HETATM   15  C17 UNL     1     -27.302  10.512   3.926  1.00  0.00     0.142 C
HETATM   16  C18 UNL     1     -26.407  10.330   2.700  1.00  0.00     0.145 C
BRANCH  14  17
HETATM   17  C11 UNL     1     -29.522   9.587   4.029  1.00  0.00     0.083 C
HETATM   18  C12 UNL     1     -30.120  10.331   5.193  1.00  0.00     0.025 C
HETATM   19  C13 UNL     1     -31.589  10.570   4.930  1.00  0.00     0.002 C
HETATM   20  C14 UNL     1     -32.121   9.692   3.826  1.00  0.00     0.000 C
HETATM   21  C15 UNL     1     -31.396   9.927   2.520  1.00  0.00     0.002 C
HETATM   22  C16 UNL     1     -29.940  10.291   2.760  1.00  0.00     0.025 C
ENDBRANCH  14  17
ENDBRANCH   8  11
ENDBRANCH   5   8
BRANCH   1  23
HETATM   23  N4  UNL     1     -21.992   9.392  -1.498  1.00  0.00    -0.175 N
HETATM   24  C2  UNL     1     -20.821   9.665  -1.898  1.00  0.00     0.679 C
HETATM   25  N1  UNL     1     -19.692   9.576  -1.060  1.00  0.00    -0.230 N
HETATM   26  N2  UNL     1     -20.562  10.089  -3.252  1.00  0.00    -0.190 N
HETATM   27  C1  UNL     1     -18.486  10.376  -1.316  1.00  0.00     0.165 C
ATOM     28  H1  UNL     1     -19.712   8.944  -0.259  1.00  0.00     0.177 HD
HETATM   29  C3  UNL     1     -21.460  10.207  -4.140  1.00  0.00     0.207 C
ATOM     30  H2  UNL     1     -19.600  10.307  -3.511  1.00  0.00     0.184 HD
HETATM   31  N3  UNL     1     -22.827   9.931  -3.885  1.00  0.00    -0.096 NA
ATOM     32  H4  UNL     1     -22.753   9.480  -2.172  1.00  0.00     0.186 HD
ENDBRANCH   1  23
TORSDOF 5
ENDMDL