MODEL 3
REMARK VINA RESULT: -9.633331332      1.219      1.351
REMARK  3 active torsions:
REMARK  status: ('A' for Active; 'I' for Inactive)
REMARK    1  A    between atoms: C4_7  and  C5_8
REMARK    2  A    between atoms: C5_8  and  N2_9
REMARK       I    between atoms: N2_9  and  C6_11
REMARK    3  A    between atoms: C6_11  and  C7_13
REMARK       I    between atoms: N3_15  and  C9_16
REMARK       I    between atoms: C9_16  and  N4_18
ROOT
HETATM    1  C7  UNL     1     -24.036  10.224   2.536  1.00  0.00     0.114 C
HETATM    2  C8  UNL     1     -23.839   9.996   1.045  1.00  0.00     0.143 C
HETATM    3  N3  UNL     1     -22.498   9.528   1.231  1.00  0.00    -0.332 N
HETATM    4  C9  UNL     1     -21.384   9.189   0.460  1.00  0.00     0.321 C
HETATM    5  O3  UNL     1     -20.310   8.793   1.069  1.00  0.00    -0.247 OA
HETATM    6  N4  UNL     1     -21.284   9.228  -0.954  1.00  0.00    -0.322 N
HETATM    7  C10 UNL     1     -22.422   9.641  -1.714  1.00  0.00     0.171 C
HETATM    8  C11 UNL     1     -22.340   9.499  -3.192  1.00  0.00     0.116 C
HETATM    9  C12 UNL     1     -22.040  10.881  -3.777  1.00  0.00     0.053 C
HETATM   10  F1  UNL     1     -23.548   9.082  -3.766  1.00  0.00    -0.242 F
HETATM   11  C13 UNL     1     -21.277   8.517  -3.633  1.00  0.00     0.047 C
HETATM   12  C14 UNL     1     -19.978   9.051  -3.052  1.00  0.00     0.033 C
HETATM   13  C15 UNL     1     -20.038   8.855  -1.567  1.00  0.00     0.030 C
HETATM   14  C16 UNL     1     -18.940   9.711  -0.946  1.00  0.00     0.038 C
HETATM   15  C17 UNL     1     -19.756   7.375  -1.286  1.00  0.00     0.038 C
HETATM   16  C18 UNL     1     -22.724   9.528   2.683  1.00  0.00     0.143 C
ENDROOT
BRANCH   1  17
HETATM   17  C6  UNL     1     -25.135   9.450   3.134  1.00  0.00     0.225 C
HETATM   18  N2  UNL     1     -26.303   9.182   2.385  1.00  0.00    -0.358 N
ATOM     19  H2  UNL     1     -26.376   9.529   1.429  1.00  0.00     0.162 HD
HETATM   20  O2  UNL     1     -25.061   9.017   4.306  1.00  0.00    -0.273 OA
BRANCH  18  21
HETATM   21  C5  UNL     1     -27.417   8.410   2.962  1.00  0.00     0.164 C
BRANCH  21  22
HETATM   22  C4  UNL     1     -28.470   9.409   3.379  1.00  0.00     0.231 C
HETATM   23  C3  UNL     1     -28.751   9.343   4.836  1.00  0.00     0.248 C
HETATM   24  N1  UNL     1     -30.059   9.748   5.236  1.00  0.00    -0.352 N
HETATM   25  O1  UNL     1     -27.932   8.965   5.703  1.00  0.00    -0.271 OA
HETATM   26  C2  UNL     1     -30.839  10.474   4.250  1.00  0.00     0.109 C
ATOM     27  H1  UNL     1     -30.426   9.539   6.164  1.00  0.00     0.163 HD
HETATM   28  C1  UNL     1     -32.318  10.437   4.577  1.00  0.00     0.035 C
HETATM   29  C19 UNL     1     -30.547  10.062   2.844  1.00  0.00     0.141 C
HETATM   30  O4  UNL     1     -29.663   8.995   2.743  1.00  0.00    -0.368 OA
HETATM   31  C20 UNL     1     -31.821   9.623   2.112  1.00  0.00     0.041 C
ENDBRANCH  21  22
ENDBRANCH  18  21
ENDBRANCH   1  17
TORSDOF 3
ENDMDL