MODEL 2
REMARK VINA RESULT: -10.202449447      0.847      1.229
REMARK  5 active torsions:
REMARK  status: ('A' for Active; 'I' for Inactive)
REMARK       I    between atoms: C2_5  and  N3_6
REMARK       I    between atoms: C2_5  and  N4_15
REMARK    1  A    between atoms: N3_6  and  C3_8
REMARK    2  A    between atoms: C3_8  and  C4_9
REMARK    3  A    between atoms: N5_18  and  C11_19
REMARK    4  A    between atoms: C11_19  and  N6_21
REMARK    5  A    between atoms: N6_21  and  C12_23
ROOT
HETATM    1  N1  UNL     1     -17.674   9.125   1.509  1.00  0.00    -0.171 NA
HETATM    2  C1  UNL     1     -18.809   9.149   1.698  1.00  0.00     0.196 C
HETATM    3  N2  UNL     1     -20.152   9.185   1.957  1.00  0.00    -0.126 N
ATOM      4  H2  UNL     1     -20.379   9.314   2.943  1.00  0.00     0.197 HD
HETATM    5  C2  UNL     1     -21.162   9.088   1.209  1.00  0.00     0.685 C
HETATM    6  N3  UNL     1     -21.216   8.904  -0.186  1.00  0.00    -0.225 N
ATOM      7  H3  UNL     1     -22.119   8.750  -0.636  1.00  0.00     0.177 HD
HETATM    8  N4  UNL     1     -22.428   9.186   1.933  1.00  0.00    -0.214 N
HETATM    9  C9  UNL     1     -22.609   8.499   3.185  1.00  0.00     0.161 C
HETATM   10  C10 UNL     1     -24.024   8.043   3.298  1.00  0.00     0.145 C
HETATM   11  N5  UNL     1     -24.973   9.103   2.970  1.00  0.00    -0.355 N
HETATM   12  C18 UNL     1     -24.431  10.347   2.467  1.00  0.00     0.145 C
HETATM   13  C19 UNL     1     -23.464   9.988   1.341  1.00  0.00     0.161 C
ENDROOT
BRANCH   6  14
HETATM   14  C3  UNL     1     -20.034   8.929  -0.983  1.00  0.00     0.142 C
BRANCH  14  15
HETATM   15  C4  UNL     1     -20.321   8.912  -2.469  1.00  0.00     0.008 C
HETATM   16  C5  UNL     1     -20.183   7.568  -3.089  1.00  0.00     0.032 C
HETATM   17  C6  UNL     1     -20.798   7.619  -4.472  1.00  0.00     0.168 C
HETATM   18  O1  UNL     1     -20.591   8.841  -5.064  1.00  0.00    -0.391 OA
HETATM   19  C7  UNL     1     -19.430   9.485  -4.687  1.00  0.00     0.168 C
HETATM   20  C8  UNL     1     -19.448   9.879  -3.219  1.00  0.00     0.032 C
ENDBRANCH  14  15
ENDBRANCH   6  14
BRANCH  11  21
HETATM   21  C11 UNL     1     -26.395   8.899   3.148  1.00  0.00     0.174 C
HETATM   22  S1  UNL     1     -26.813   7.451   3.733  1.00  0.00    -0.041 SA
BRANCH  21  23
HETATM   23  N6  UNL     1     -27.241   9.949   2.779  1.00  0.00    -0.333 N
ATOM     24  H6  UNL     1     -26.798  10.716   2.273  1.00  0.00     0.168 HD
BRANCH  23  25
HETATM   25  C12 UNL     1     -28.626  10.089   3.014  1.00  0.00     0.037 A
HETATM   26  C13 UNL     1     -29.195  10.315   4.239  1.00  0.00     0.029 A
HETATM   27  C14 UNL     1     -30.579  10.420   4.423  1.00  0.00     0.005 A
HETATM   28  C15 UNL     1     -31.390  10.291   3.337  1.00  0.00     0.042 A
HETATM   29  C16 UNL     1     -30.884  10.064   2.079  1.00  0.00     0.118 A
HETATM   30  F1  UNL     1     -31.759   9.949   1.054  1.00  0.00    -0.206 F
HETATM   31  C17 UNL     1     -29.520   9.969   1.954  1.00  0.00     0.071 A
ENDBRANCH  23  25
ENDBRANCH  21  23
ENDBRANCH  11  21
TORSDOF 5
ENDMDL