MODEL 3
REMARK VINA RESULT: -9.393712226      1.822      2.712
REMARK  4 active torsions:
REMARK  status: ('A' for Active; 'I' for Inactive)
REMARK       I    between atoms: C1_2  and  N1_3
REMARK       I    between atoms: C1_2  and  N2_17
REMARK    1  A    between atoms: C2_5  and  C3_6
REMARK    2  A    between atoms: N2_17  and  N3_19
REMARK       I    between atoms: N3_19  and  C14_21
REMARK    3  A    between atoms: C14_21  and  C15_23
REMARK    4  A    between atoms: C16_26  and  C17_27
ROOT
HETATM    1  O1  UNL     1     -22.676   7.985   4.113  1.00  0.00    -0.245 OA
HETATM    2  C1  UNL     1     -23.082   7.651   2.986  1.00  0.00     0.338 C
HETATM    3  N1  UNL     1     -22.127   7.480   1.910  1.00  0.00    -0.321 N
ATOM      4  H1  UNL     1     -21.293   6.904   2.024  1.00  0.00     0.169 HD
HETATM    5  C2  UNL     1     -22.374   8.079   0.820  1.00  0.00     0.070 C
HETATM    6  N2  UNL     1     -24.431   7.418   2.649  1.00  0.00    -0.249 N
ATOM      7  H2  UNL     1     -24.698   7.142   1.704  1.00  0.00     0.192 HD
ENDROOT
BRANCH   6   8
HETATM    8  N3  UNL     1     -25.400   7.579   3.663  1.00  0.00    -0.264 N
HETATM    9  C14 UNL     1     -26.265   8.663   3.579  1.00  0.00     0.271 C
HETATM   10  O2  UNL     1     -26.183   9.496   2.609  1.00  0.00    -0.269 OA
ATOM     11  H3  UNL     1     -25.465   6.917   4.435  1.00  0.00     0.190 HD
BRANCH   9  12
HETATM   12  C15 UNL     1     -27.314   8.940   4.563  1.00  0.00     0.286 C
HETATM   13  O3  UNL     1     -27.857   7.902   5.268  1.00  0.00    -0.223 OA
HETATM   14  O4  UNL     1     -29.042   8.518   5.154  1.00  0.00    -0.231 OA
HETATM   15  C16 UNL     1     -28.682   8.893   3.892  1.00  0.00     0.211 C
BRANCH  15  16
HETATM   16  C17 UNL     1     -29.073  10.267   3.415  1.00  0.00     0.123 C
HETATM   17 BR1  UNL     1     -30.379  10.064   1.978  1.00  0.00    -0.094 Br
ENDBRANCH  15  16
ENDBRANCH   9  12
ENDBRANCH   6   8
BRANCH   5  18
HETATM   18  C3  UNL     1     -21.417   7.929  -0.309  1.00  0.00     0.028 C
HETATM   19  C4  UNL     1     -22.195   7.442  -1.482  1.00  0.00     0.014 C
HETATM   20  C5  UNL     1     -21.529   7.635  -2.806  1.00  0.00    -0.013 C
HETATM   21  C6  UNL     1     -20.050   7.488  -2.800  1.00  0.00     0.009 C
HETATM   22  C10 UNL     1     -21.923   8.950  -3.458  1.00  0.00     0.009 C
HETATM   23  C7  UNL     1     -19.265   8.715  -2.459  1.00  0.00    -0.013 C
HETATM   24  C8  UNL     1     -19.715   9.968  -3.126  1.00  0.00     0.009 C
HETATM   25  C13 UNL     1     -19.322   8.970  -0.970  1.00  0.00     0.010 C
HETATM   26  C9  UNL     1     -21.195  10.118  -2.853  1.00  0.00    -0.013 C
HETATM   27  C11 UNL     1     -21.475  10.194  -1.402  1.00  0.00     0.010 C
HETATM   28  C12 UNL     1     -20.737   9.249  -0.519  1.00  0.00    -0.005 C
ENDBRANCH   5  18
TORSDOF 4
ENDMDL