MODEL 2
REMARK VINA RESULT: -8.450200193      1.966      2.539
REMARK  4 active torsions:
REMARK  status: ('A' for Active; 'I' for Inactive)
REMARK       I    between atoms: N1_4  and  C4_5
REMARK    1  A    between atoms: C4_5  and  C5_7
REMARK    2  A    between atoms: C7_9  and  O2_10
REMARK    3  A    between atoms: C11_15  and  C12_16
REMARK    4  A    between atoms: C14_20  and  C15_22
ROOT
HETATM    1  C5  UNL     1     -22.079   9.048  -0.059  1.00  0.00     0.067 C
HETATM    2  C6  UNL     1     -22.338   7.705  -0.687  1.00  0.00     0.060 C
HETATM    3  C7  UNL     1     -21.824   7.941  -2.116  1.00  0.00     0.075 C
HETATM    4  C8  UNL     1     -20.309   7.964  -1.963  1.00  0.00     0.045 C
HETATM    5  C9  UNL     1     -20.139   9.404  -1.523  1.00  0.00     0.015 C
HETATM    6  C10 UNL     1     -20.957  10.122  -2.571  1.00  0.00     0.028 C
HETATM    7  C11 UNL     1     -22.264   9.328  -2.412  1.00  0.00     0.071 C
HETATM    8  C13 UNL     1     -22.879   9.866  -1.154  1.00  0.00     0.043 C
HETATM    9  C14 UNL     1     -20.735   9.595  -0.109  1.00  0.00     0.061 C
HETATM   10 CL1  UNL     1     -20.948  11.411  -0.044  1.00  0.00    -0.117 Cl
ENDROOT
BRANCH   1  11
HETATM   11  C4  UNL     1     -22.907   9.344   1.112  1.00  0.00     0.233 C
HETATM   12  N1  UNL     1     -22.936   8.590   2.302  1.00  0.00    -0.317 N
HETATM   13  C3  UNL     1     -22.157   7.406   2.605  1.00  0.00     0.160 C
HETATM   14  C19 UNL     1     -23.756   8.809   3.484  1.00  0.00     0.139 A
HETATM   15  C2  UNL     1     -22.343   7.233   4.095  1.00  0.00     0.138 C
HETATM   16  C1  UNL     1     -21.011   7.004   4.756  1.00  0.00     0.041 C
HETATM   17  O4  UNL     1     -22.978   8.380   4.561  1.00  0.00    -0.354 OA
HETATM   18  C20 UNL     1     -24.751   9.850   3.651  1.00  0.00     0.066 A
HETATM   19  C21 UNL     1     -25.174   8.412   3.381  1.00  0.00     0.066 A
HETATM   20  O1  UNL     1     -23.660  10.366   1.047  1.00  0.00    -0.272 OA
ENDBRANCH   1  11
BRANCH   9  21
HETATM   21  C15 UNL     1     -19.658   9.325   0.830  1.00  0.00     0.015 A
HETATM   22  C16 UNL     1     -18.214   9.442   0.569  1.00  0.00     0.011 A
HETATM   23  C17 UNL     1     -18.849   8.142   1.090  1.00  0.00    -0.012 A
HETATM   24  C18 UNL     1     -18.368   7.834   2.530  1.00  0.00     0.010 C
ENDBRANCH   9  21
BRANCH   3  25
HETATM   25  O2  UNL     1     -22.252   6.965  -2.977  1.00  0.00    -0.389 OA
ATOM     26  H2  UNL     1     -22.538   7.329  -3.806  1.00  0.00     0.210 HD
ENDBRANCH   3  25
BRANCH   7  27
HETATM   27  C12 UNL     1     -23.124   9.489  -3.590  1.00  0.00     0.242 C
HETATM   28  N2  UNL     1     -22.759  10.418  -4.596  1.00  0.00    -0.061 NA
HETATM   29  O3  UNL     1     -24.156   8.827  -3.714  1.00  0.00    -0.276 OA
ENDBRANCH   7  27
TORSDOF 4
ENDMDL