MODEL 4
REMARK VINA RESULT: -9.230346873      1.983      2.481
REMARK  7 active torsions:
REMARK  status: ('A' for Active; 'I' for Inactive)
REMARK       I    between atoms: C2_2  and  N1_4
REMARK    1  A    between atoms: N1_4  and  C3_6
REMARK    2  A    between atoms: C3_6  and  O2_7
REMARK    3  A    between atoms: C3_6  and  N2_9
REMARK       I    between atoms: N2_9  and  C4_11
REMARK    4  A    between atoms: C4_11  and  C5_13
REMARK    5  A    between atoms: N3_18  and  C9_19
REMARK    6  A    between atoms: C9_19  and  C10_21
REMARK    7  A    between atoms: C10_21  and  C11_22
ROOT
HETATM    1  C5  UNL     1     -21.761   8.579   2.929  1.00  0.00     0.180 C
HETATM    2  C6  UNL     1     -21.712   8.250   4.405  1.00  0.00     0.073 C
HETATM    3  C7  UNL     1     -20.910   6.948   4.493  1.00  0.00     0.190 C
HETATM    4  F1  UNL     1     -19.558   7.210   4.477  1.00  0.00    -0.248 F
HETATM    5  C8  UNL     1     -21.262   6.341   3.140  1.00  0.00     0.161 C
HETATM    6  N3  UNL     1     -21.107   7.497   2.268  1.00  0.00    -0.359 N
ENDROOT
BRANCH   6   7
HETATM    7  C9  UNL     1     -20.413   7.457   1.024  1.00  0.00     0.077 C
HETATM    8  S1  UNL     1     -18.863   7.962   1.087  1.00  0.00    -0.066 SA
BRANCH   7   9
HETATM    9  C10 UNL     1     -21.132   6.993  -0.144  1.00  0.00     0.079 C
BRANCH   9  10
HETATM   10  C11 UNL     1     -20.982   7.726  -1.419  1.00  0.00    -0.033 C
HETATM   11  C12 UNL     1     -19.784   7.409  -2.234  1.00  0.00     0.014 C
HETATM   12  C13 UNL     1     -19.816   8.164  -3.542  1.00  0.00    -0.013 C
HETATM   13  C14 UNL     1     -20.952   7.702  -4.393  1.00  0.00     0.009 C
HETATM   14  C18 UNL     1     -19.863   9.638  -3.256  1.00  0.00     0.009 C
HETATM   15  C15 UNL     1     -22.229   7.983  -3.594  1.00  0.00    -0.013 C
HETATM   16  C16 UNL     1     -22.313   9.476  -3.435  1.00  0.00     0.009 C
HETATM   17  C20 UNL     1     -22.196   7.295  -2.271  1.00  0.00     0.014 C
HETATM   18  C17 UNL     1     -21.180   9.917  -2.565  1.00  0.00    -0.013 C
HETATM   19  C19 UNL     1     -21.192   9.232  -1.237  1.00  0.00     0.014 C
ENDBRANCH   9  10
ENDBRANCH   7   9
ENDBRANCH   6   7
BRANCH   1  20
HETATM   20  C4  UNL     1     -23.218   8.723   2.502  1.00  0.00     0.247 C
HETATM   21  N2  UNL     1     -24.268   8.273   3.298  1.00  0.00    -0.291 N
ATOM     22  H2  UNL     1     -23.916   7.855   4.160  1.00  0.00     0.172 HD
HETATM   23  O3  UNL     1     -23.343   9.266   1.404  1.00  0.00    -0.271 OA
BRANCH  21  24
HETATM   24  C3  UNL     1     -25.637   8.229   3.256  1.00  0.00     0.226 C
BRANCH  24  25
HETATM   25  N1  UNL     1     -26.727   8.800   2.651  1.00  0.00    -0.293 N
HETATM   26  C2  UNL     1     -28.056   9.014   2.944  1.00  0.00     0.220 C
HETATM   27  C1  UNL     1     -28.927   9.732   1.903  1.00  0.00     0.117 C
HETATM   28  O1  UNL     1     -28.713   8.715   3.952  1.00  0.00    -0.274 OA
ATOM     29  H1  UNL     1     -26.487   9.168   1.730  1.00  0.00     0.172 HD
ENDBRANCH  24  25
BRANCH  24  30
HETATM   30  O2  UNL     1     -26.072   7.268   4.139  1.00  0.00    -0.332 OA
ATOM     31  H2  UNL     1     -25.334   6.724   4.388  1.00  0.00     0.221 HD
ENDBRANCH  24  30
ENDBRANCH  21  24
ENDBRANCH   1  20
TORSDOF 7
ENDMDL