MODEL 3
REMARK VINA RESULT: -7.172841608      2.456      4.565
REMARK  6 active torsions:
REMARK  status: ('A' for Active; 'I' for Inactive)
REMARK    1  A    between atoms: C2_2  and  O1_3
REMARK    2  A    between atoms: C2_2  and  C3_5
REMARK    3  A    between atoms: N3_17  and  C11_18
REMARK    4  A    between atoms: C11_18  and  C13_20
REMARK    5  A    between atoms: C13_20  and  O3_21
REMARK    6  A    between atoms: C13_20  and  C14_23
ROOT
HETATM    1  C3  UNL     1     -21.179   9.393   0.194  1.00  0.00     0.217 C
HETATM    2  N1  UNL     1     -20.297   9.757  -0.933  1.00  0.00    -0.329 N
HETATM    3  C4  UNL     1     -19.241  10.715  -0.699  1.00  0.00     0.155 C
HETATM    4  C5  UNL     1     -20.413   9.226  -2.254  1.00  0.00     0.253 C
HETATM    5  O2  UNL     1     -19.898   9.963  -3.172  1.00  0.00    -0.268 OA
HETATM    6  C6  UNL     1     -21.025   7.986  -2.697  1.00  0.00     0.042 C
HETATM    7  C7  UNL     1     -21.166   7.823  -3.999  1.00  0.00     0.103 C
HETATM    8 BR1  UNL     1     -20.580   9.180  -5.229  1.00  0.00    -0.038 Br
HETATM    9  C8  UNL     1     -21.757   6.624  -4.506  1.00  0.00     0.108 C
HETATM   10  N2  UNL     1     -22.222   5.637  -4.916  1.00  0.00    -0.191 NA
HETATM   11  C9  UNL     1     -21.523   6.856  -1.886  1.00  0.00     0.090 C
HETATM   12  C10 UNL     1     -22.031   7.256  -0.523  1.00  0.00     0.066 C
HETATM   13  N3  UNL     1     -21.148   7.985   0.285  1.00  0.00    -0.363 N
ENDROOT
BRANCH   1  14
HETATM   14  C2  UNL     1     -22.461  10.072  -0.063  1.00  0.00     0.156 C
HETATM   15  C1  UNL     1     -22.265  11.580   0.178  1.00  0.00     0.043 C
BRANCH  14  16
HETATM   16  O1  UNL     1     -23.557   9.711   0.654  1.00  0.00    -0.392 OA
ATOM     17  H1  UNL     1     -23.390   8.830   0.969  1.00  0.00     0.210 HD
ENDBRANCH  14  16
ENDBRANCH   1  14
BRANCH  13  18
HETATM   18  C11 UNL     1     -20.712   7.435   1.526  1.00  0.00     0.111 C
HETATM   19  C12 UNL     1     -19.233   7.506   1.627  1.00  0.00     0.035 C
BRANCH  18  20
HETATM   20  C13 UNL     1     -21.533   7.848   2.665  1.00  0.00     0.148 C
BRANCH  20  21
HETATM   21  O3  UNL     1     -22.824   7.286   2.474  1.00  0.00    -0.393 OA
ATOM     22  H3  UNL     1     -23.015   6.760   3.242  1.00  0.00     0.210 HD
ENDBRANCH  20  21
BRANCH  20  23
HETATM   23  C14 UNL     1     -21.121   7.467   4.044  1.00  0.00    -0.023 C
HETATM   24  C15 UNL     1     -20.377   6.151   4.124  1.00  0.00     0.017 C
HETATM   25  C16 UNL     1     -22.467   7.168   4.751  1.00  0.00     0.017 C
HETATM   26  C17 UNL     1     -20.507   8.565   4.858  1.00  0.00     0.017 C
ENDBRANCH  20  23
ENDBRANCH  18  20
ENDBRANCH  13  18
TORSDOF 6
ENDMDL