MODEL 5
REMARK VINA RESULT: -7.208736999      2.923      5.831
REMARK  5 active torsions:
REMARK  status: ('A' for Active; 'I' for Inactive)
REMARK    1  A    between atoms: N1_2  and  N2_4
REMARK    2  A    between atoms: N2_4  and  C3_6
REMARK    3  A    between atoms: C3_6  and  N3_8
REMARK    4  A    between atoms: N3_8  and  C4_10
REMARK       I    between atoms: N4_13  and  C7_14
REMARK       I    between atoms: C7_14  and  N6_18
REMARK    5  A    between atoms: N6_18  and  C8_20
ROOT
HETATM    1  C4  UNL     1     -19.091   8.107  -0.168  1.00  0.00     0.087 C
HETATM    2  C5  UNL     1     -19.805   6.766  -0.199  1.00  0.00     0.045 C
HETATM    3  C6  UNL     1     -21.271   6.844   0.107  1.00  0.00     0.143 C
HETATM    4  N4  UNL     1     -21.454   7.596   1.315  1.00  0.00    -0.216 N
HETATM    5  C7  UNL     1     -22.751   7.902   1.799  1.00  0.00     0.700 C
HETATM    6  N5  UNL     1     -23.208   7.154   2.752  1.00  0.00    -0.054 N
ATOM      7  H5  UNL     1     -22.621   6.395   3.101  1.00  0.00     0.218 HD
HETATM    8  F1  UNL     1     -24.413   7.334   3.298  1.00  0.00    -0.086 F
HETATM    9  N6  UNL     1     -23.519   8.962   1.282  1.00  0.00    -0.220 N
ATOM     10  H6  UNL     1     -24.331   8.740   0.705  1.00  0.00     0.178 HD
HETATM   11  C13 UNL     1     -20.306   8.039   2.039  1.00  0.00     0.143 C
HETATM   12  C14 UNL     1     -19.325   8.794   1.161  1.00  0.00     0.045 C
ENDROOT
BRANCH   9  13
HETATM   13  C8  UNL     1     -23.211  10.339   1.530  1.00  0.00     0.099 C
HETATM   14  C9  UNL     1     -24.434  11.203   1.730  1.00  0.00     0.026 C
HETATM   15  C10 UNL     1     -23.894  12.571   1.293  1.00  0.00     0.002 C
HETATM   16  C11 UNL     1     -23.250  12.189  -0.039  1.00  0.00     0.002 C
HETATM   17  C12 UNL     1     -22.465  10.946   0.368  1.00  0.00     0.026 C
ENDBRANCH   9  13
BRANCH   1  18
HETATM   18  N3  UNL     1     -19.667   8.915  -1.225  1.00  0.00    -0.362 N
ATOM     19  H3  UNL     1     -20.626   9.228  -1.077  1.00  0.00     0.162 HD
BRANCH  18  20
HETATM   20  C3  UNL     1     -19.067   9.316  -2.422  1.00  0.00     0.182 C
HETATM   21  S1  UNL     1     -18.128  10.688  -2.366  1.00  0.00    -0.040 SA
BRANCH  20  22
HETATM   22  N2  UNL     1     -19.185   8.680  -3.632  1.00  0.00    -0.296 N
ATOM     23  H2  UNL     1     -18.332   8.215  -3.946  1.00  0.00     0.183 HD
BRANCH  22  24
HETATM   24  N1  UNL     1     -20.258   8.555  -4.507  1.00  0.00    -0.238 NA
HETATM   25  C1  UNL     1     -21.094   9.750  -4.406  1.00  0.00     0.135 C
HETATM   26  C2  UNL     1     -21.083   7.396  -4.190  1.00  0.00     0.135 C
ENDBRANCH  22  24
ENDBRANCH  20  22
ENDBRANCH  18  20
ENDBRANCH   1  18
TORSDOF 5
ENDMDL