MODEL 4
REMARK VINA RESULT: -7.070896221      5.374      7.249
REMARK  6 active torsions:
REMARK  status: ('A' for Active; 'I' for Inactive)
REMARK    1  A    between atoms: C2_2  and  C3_3
REMARK    2  A    between atoms: C4_4  and  C5_5
REMARK    3  A    between atoms: C7_10  and  N2_11
REMARK    4  A    between atoms: N2_11  and  N3_13
REMARK    5  A    between atoms: C9_20  and  C10_21
REMARK    6  A    between atoms: C10_21  and  C11_22
ROOT
HETATM    1  C5  UNL     1     -25.711   9.429   3.171  1.00  0.00     0.075 A
HETATM    2  C6  UNL     1     -25.545   8.165   3.734  1.00  0.00     0.116 A
HETATM    3 BR1  UNL     1     -27.041   6.990   3.751  1.00  0.00    -0.029 Br
HETATM    4  N1  UNL     1     -24.377   7.785   4.247  1.00  0.00    -0.182 N
ATOM      5  H1  UNL     1     -24.260   6.859   4.658  1.00  0.00     0.185 HD
HETATM    6  C7  UNL     1     -23.351   8.667   4.206  1.00  0.00     0.698 A
HETATM    7  N6  UNL     1     -23.496   9.891   3.666  1.00  0.00    -0.193 N
ATOM      8  H6  UNL     1     -22.694  10.521   3.657  1.00  0.00     0.184 HD
HETATM    9  C9  UNL     1     -24.656  10.316   3.136  1.00  0.00     0.048 A
ENDROOT
BRANCH   6  10
HETATM   10  N2  UNL     1     -22.233   8.273   4.711  1.00  0.00    -0.130 N
ATOM     11  H2  UNL     1     -22.276   7.678   5.539  1.00  0.00     0.205 HD
BRANCH  10  12
HETATM   12  N3  UNL     1     -20.986   8.591   4.224  1.00  0.00    -0.262 N
HETATM   13  C8  UNL     1     -20.056   7.753   3.971  1.00  0.00     0.216 C
HETATM   14  N4  UNL     1     -20.280   6.374   4.193  1.00  0.00    -0.065 NA
HETATM   15  N5  UNL     1     -18.799   8.168   3.472  1.00  0.00    -0.065 NA
ATOM     16  H3  UNL     1     -20.789   9.577   4.051  1.00  0.00     0.190 HD
ENDBRANCH  10  12
ENDBRANCH   6  10
BRANCH   9  17
HETATM   17  C10 UNL     1     -24.786  11.668   2.543  1.00  0.00     0.063 C
BRANCH  17  18
HETATM   18  C11 UNL     1     -23.868  11.890   1.366  1.00  0.00    -0.017 C
HETATM   19  C12 UNL     1     -23.788  13.353   0.984  1.00  0.00     0.010 C
HETATM   20  C13 UNL     1     -24.416  11.139   0.172  1.00  0.00     0.010 C
ENDBRANCH  17  18
ENDBRANCH   9  17
BRANCH   1  21
HETATM   21  C4  UNL     1     -26.999   9.791   2.636  1.00  0.00    -0.062 C
HETATM   22  C3  UNL     1     -28.094  10.077   2.186  1.00  0.00    -0.101 C
BRANCH  22  23
HETATM   23  C2  UNL     1     -29.411  10.405   1.636  1.00  0.00     0.090 C
HETATM   24  C1  UNL     1     -30.432  10.002   2.680  1.00  0.00     0.018 C
ENDBRANCH  22  23
ENDBRANCH   1  21
TORSDOF 6
ENDMDL