MODEL 4
REMARK VINA RESULT: -7.403882348      2.545      6.024
REMARK  4 active torsions:
REMARK  status: ('A' for Active; 'I' for Inactive)
REMARK    1  A    between atoms: C2_2  and  C3_3
REMARK       I    between atoms: N2_8  and  C6_9
REMARK    2  A    between atoms: C6_9  and  C7_11
REMARK    3  A    between atoms: C7_11  and  N3_12
REMARK    4  A    between atoms: C7_11  and  C9_17
REMARK       I    between atoms: N3_12  and  C8_14
ROOT
HETATM    1  C1  UNL     1     -18.933   9.790  -4.679  1.00  0.00     0.025 C
HETATM    2  C2  UNL     1     -20.114   9.366  -3.792  1.00  0.00     0.039 C
HETATM    3  C4  UNL     1     -21.262  10.285  -4.060  1.00  0.00     0.038 C
HETATM    4  C5  UNL     1     -22.334  10.292  -3.025  1.00  0.00     0.129 C
HETATM    5  N2  UNL     1     -21.798  10.350  -1.655  1.00  0.00    -0.333 N
HETATM    6  C6  UNL     1     -22.687  10.353  -0.560  1.00  0.00     0.244 C
HETATM    7  O2  UNL     1     -23.943  10.356  -0.877  1.00  0.00    -0.271 OA
HETATM    8  C13 UNL     1     -20.384  10.428  -1.541  1.00  0.00     0.185 C
HETATM    9 CL1  UNL     1     -19.747  12.021  -2.050  1.00  0.00    -0.102 Cl
HETATM   10  C14 UNL     1     -19.692   9.344  -2.340  1.00  0.00     0.060 C
ENDROOT
BRANCH   6  11
HETATM   11  C7  UNL     1     -22.337  10.355   0.868  1.00  0.00     0.185 C
BRANCH  11  12
HETATM   12  N3  UNL     1     -23.361  11.017   1.675  1.00  0.00    -0.331 N
HETATM   13  C8  UNL     1     -23.621  12.394   1.585  1.00  0.00     0.329 C
HETATM   14  N4  UNL     1     -24.630  12.961   2.402  1.00  0.00    -0.040 NA
HETATM   15  O3  UNL     1     -23.008  13.180   0.814  1.00  0.00    -0.251 OA
ATOM     16  H3  UNL     1     -23.908  10.457   2.329  1.00  0.00     0.164 HD
ENDBRANCH  11  12
BRANCH  11  17
HETATM   17  C9  UNL     1     -22.176   8.958   1.432  1.00  0.00    -0.022 C
HETATM   18  C10 UNL     1     -20.783   8.774   2.023  1.00  0.00     0.017 C
HETATM   19  C11 UNL     1     -23.173   8.647   2.515  1.00  0.00     0.017 C
HETATM   20  C12 UNL     1     -22.318   7.870   0.391  1.00  0.00     0.017 C
ENDBRANCH  11  17
ENDBRANCH   6  11
BRANCH   2  21
HETATM   21  C3  UNL     1     -20.446   7.991  -4.216  1.00  0.00     0.239 C
HETATM   22  N1  UNL     1     -20.286   6.939  -3.288  1.00  0.00    -0.061 NA
HETATM   23  O1  UNL     1     -20.863   7.730  -5.361  1.00  0.00    -0.276 OA
ENDBRANCH   2  21
TORSDOF 4
ENDMDL