MODEL 2
REMARK VINA RESULT: -6.476520373      3.092      4.233
REMARK  10 active torsions:
REMARK  status: ('A' for Active; 'I' for Inactive)
REMARK    1  A    between atoms: N1_2  and  N2_3
REMARK    2  A    between atoms: N1_2  and  C6_17
REMARK    3  A    between atoms: N2_3  and  C2_5
REMARK    4  A    between atoms: C2_5  and  N3_7
REMARK    5  A    between atoms: N3_7  and  N4_9
REMARK    6  A    between atoms: N4_9  and  C3_11
REMARK    7  A    between atoms: C3_11  and  O1_13
REMARK    8  A    between atoms: O1_13  and  C4_14
REMARK    9  A    between atoms: C4_14  and  C5_15
REMARK   10  A    between atoms: C6_17  and  N5_19
ROOT
HETATM    1  C2  UNL     1     -24.489   8.597   3.272  1.00  0.00     0.205 C
HETATM    2  S1  UNL     1     -23.830   9.457   4.489  1.00  0.00    -0.038 SA
ENDROOT
BRANCH   1   3
HETATM    3  N2  UNL     1     -24.311   9.032   1.933  1.00  0.00    -0.271 N
ATOM      4  H2  UNL     1     -25.117   9.253   1.348  1.00  0.00     0.189 HD
BRANCH   3   5
HETATM    5  N1  UNL     1     -23.018   9.153   1.431  1.00  0.00    -0.270 N
HETATM    6  C1  UNL     1     -22.633  10.504   0.956  1.00  0.00     0.180 C
BRANCH   5   7
HETATM    7  C6  UNL     1     -22.052   8.130   1.336  1.00  0.00     0.190 C
HETATM    8  S3  UNL     1     -22.009   7.288  -0.122  1.00  0.00    -0.039 SA
BRANCH   7   9
HETATM    9  N5  UNL     1     -21.146   7.773   2.344  1.00  0.00    -0.357 N
HETATM   10  C7  UNL     1     -21.282   6.530   3.139  1.00  0.00     0.125 C
HETATM   11  C8  UNL     1     -20.744   6.886   4.507  1.00  0.00     0.021 C
HETATM   12  C9  UNL     1     -20.261   8.317   4.387  1.00  0.00     0.021 C
HETATM   13  C10 UNL     1     -19.976   8.381   2.867  1.00  0.00     0.125 C
ENDBRANCH   7   9
ENDBRANCH   5   7
ENDBRANCH   3   5
ENDBRANCH   1   3
BRANCH   1  14
HETATM   14  N3  UNL     1     -25.233   7.423   3.556  1.00  0.00    -0.272 N
ATOM     15  H3  UNL     1     -24.877   6.520   3.243  1.00  0.00     0.189 HD
BRANCH  14  16
HETATM   16  N4  UNL     1     -26.439   7.476   4.255  1.00  0.00    -0.268 N
ATOM     17  H4  UNL     1     -26.645   6.765   4.957  1.00  0.00     0.190 HD
BRANCH  16  18
HETATM   18  C3  UNL     1     -27.372   8.494   4.005  1.00  0.00     0.229 C
HETATM   19  S2  UNL     1     -27.769   9.538   5.182  1.00  0.00    -0.032 SA
BRANCH  18  20
HETATM   20  O1  UNL     1     -27.960   8.621   2.769  1.00  0.00    -0.324 OA
BRANCH  20  21
HETATM   21  C4  UNL     1     -28.278   9.827   2.145  1.00  0.00     0.209 C
BRANCH  21  22
HETATM   22  C5  UNL     1     -29.777  10.005   1.953  1.00  0.00     0.248 C
HETATM   23  F1  UNL     1     -30.366  10.572   3.054  1.00  0.00    -0.253 F
ENDBRANCH  21  22
ENDBRANCH  20  21
ENDBRANCH  18  20
ENDBRANCH  16  18
ENDBRANCH  14  16
ENDBRANCH   1  14
TORSDOF 10
ENDMDL