MODEL 1
REMARK VINA RESULT: -7.061165569      0.000      0.000
REMARK  5 active torsions:
REMARK  status: ('A' for Active; 'I' for Inactive)
REMARK    1  A    between atoms: C2_2  and  C4_13
REMARK    2  A    between atoms: N1_3  and  N2_5
REMARK       I    between atoms: N2_5  and  C3_7
REMARK    3  A    between atoms: N4_9  and  O1_11
REMARK    4  A    between atoms: C5_15  and  N5_16
REMARK    5  A    between atoms: C11_22  and  C12_23
ROOT
HETATM    1  C4  UNL     1     -24.209   9.591   2.519  1.00  0.00     0.108 A
HETATM    2  O2  UNL     1     -23.455   8.745   3.238  1.00  0.00    -0.285 OA
HETATM    3  C5  UNL     1     -22.230   8.430   2.973  1.00  0.00     0.248 A
HETATM    4  C9  UNL     1     -21.633   8.982   1.888  1.00  0.00     0.065 A
HETATM    5  C10 UNL     1     -22.324   9.851   1.100  1.00  0.00     0.015 A
HETATM    6  C11 UNL     1     -23.644  10.175   1.407  1.00  0.00    -0.012 A
ENDROOT
BRANCH   1   7
HETATM    7  C2  UNL     1     -25.563   9.839   2.950  1.00  0.00     0.056 C
HETATM    8  C1  UNL     1     -26.107  10.835   3.860  1.00  0.00     0.072 C
HETATM    9  N1  UNL     1     -26.473   9.022   2.437  1.00  0.00    -0.300 N
ATOM     10  H1  UNL     1     -26.158   8.299   1.790  1.00  0.00     0.186 HD
BRANCH   9  11
HETATM   11  N2  UNL     1     -27.814   9.092   2.725  1.00  0.00    -0.272 N
HETATM   12  C3  UNL     1     -28.801   9.501   1.788  1.00  0.00     0.227 C
HETATM   13  N3  UNL     1     -28.504  10.161   0.572  1.00  0.00    -0.060 NA
HETATM   14  N4  UNL     1     -30.035   9.260   2.052  1.00  0.00    -0.240 N
ATOM     15  H4  UNL     1     -30.231   8.783   2.931  1.00  0.00     0.197 HD
ATOM     16  H2  UNL     1     -28.119   8.836   3.663  1.00  0.00     0.189 HD
BRANCH  14  17
HETATM   17  O1  UNL     1     -31.098   9.574   1.282  1.00  0.00    -0.287 OA
ATOM     18  H1  UNL     1     -32.014   9.497   1.523  1.00  0.00     0.244 HD
ENDBRANCH  14  17
ENDBRANCH   9  11
ENDBRANCH   1   7
BRANCH   6  19
HETATM   19  C12 UNL     1     -24.343  11.104   0.524  1.00  0.00     0.126 C
HETATM   20 BR1  UNL     1     -23.804  12.932   1.005  1.00  0.00    -0.091 Br
ENDBRANCH   6  19
BRANCH   3  21
HETATM   21  N5  UNL     1     -21.462   7.525   3.765  1.00  0.00    -0.028 N
HETATM   22  C6  UNL     1     -20.949   6.434   2.963  1.00  0.00     0.281 C
HETATM   23  C7  UNL     1     -22.319   6.964   4.784  1.00  0.00     0.281 C
HETATM   24  C8  UNL     1     -20.364   8.198   4.390  1.00  0.00     0.281 C
ENDBRANCH   3  21
TORSDOF 5
ENDMDL