MODEL 5
REMARK VINA RESULT: -7.793953375      4.090      6.608
REMARK  4 active torsions:
REMARK  status: ('A' for Active; 'I' for Inactive)
REMARK    1  A    between atoms: N2_4  and  C3_6
REMARK    2  A    between atoms: C7_12  and  C9_14
REMARK    3  A    between atoms: C9_14  and  C10_15
REMARK    4  A    between atoms: C10_15  and  C11_16
ROOT
HETATM    1  C1  UNL     1     -21.046  10.239  -0.067  1.00  0.00     0.190 C
HETATM    2  N1  UNL     1     -22.281   9.996   0.611  1.00  0.00    -0.096 N
HETATM    3  C2  UNL     1     -22.312   9.209   1.814  1.00  0.00     0.689 C
HETATM    4  N2  UNL     1     -21.206   8.801   2.254  1.00  0.00    -0.217 N
ATOM      5  H2  UNL     1     -20.404   9.084   1.691  1.00  0.00     0.178 HD
HETATM    6  N3  UNL     1     -23.595   8.968   2.393  1.00  0.00    -0.199 N
ATOM      7  H3  UNL     1     -23.714   8.102   2.919  1.00  0.00     0.180 HD
HETATM    8  C7  UNL     1     -24.716   9.828   2.300  1.00  0.00     0.128 C
HETATM    9  C8  UNL     1     -24.496  11.033   3.213  1.00  0.00     0.064 C
HETATM   10  N6  UNL     1     -25.048  10.287   0.987  1.00  0.00    -0.274 N
ATOM     11  H6  UNL     1     -26.013  10.393   0.673  1.00  0.00     0.176 HD
HETATM   12  S1  UNL     1     -23.725  10.640  -0.012  1.00  0.00     0.336 S
HETATM   13  O1  UNL     1     -23.962  10.031  -1.382  1.00  0.00    -0.182 OA
HETATM   14  O2  UNL     1     -23.560  12.126  -0.241  1.00  0.00    -0.182 OA
ENDROOT
BRANCH   8  15
HETATM   15  C9  UNL     1     -25.938   9.114   2.844  1.00  0.00     0.060 C
BRANCH  15  16
HETATM   16  C10 UNL     1     -26.842  10.190   3.429  1.00  0.00     0.063 C
BRANCH  16  17
HETATM   17  C11 UNL     1     -28.236  10.052   2.939  1.00  0.00     0.025 A
HETATM   18  C12 UNL     1     -28.672   9.876   1.642  1.00  0.00     0.114 A
HETATM   19  N4  UNL     1     -30.011   9.796   1.636  1.00  0.00    -0.360 N
HETATM   20  C13 UNL     1     -30.429   9.917   2.903  1.00  0.00     0.180 A
ATOM     21  H4  UNL     1     -30.604   9.666   0.815  1.00  0.00     0.166 HD
HETATM   22  N5  UNL     1     -29.346  10.072   3.685  1.00  0.00    -0.355 N
ATOM     23  H5  UNL     1     -29.369  10.189   4.698  1.00  0.00     0.166 HD
ENDBRANCH  16  17
ENDBRANCH  15  16
ENDBRANCH   8  15
BRANCH   4  24
HETATM   24  C3  UNL     1     -20.876   8.022   3.387  1.00  0.00     0.036 C
HETATM   25  C4  UNL     1     -19.357   8.114   3.583  1.00  0.00     0.038 C
HETATM   26  C5  UNL     1     -21.539   8.408   4.663  1.00  0.00     0.038 C
HETATM   27  C6  UNL     1     -21.137   6.529   3.154  1.00  0.00     0.038 C
ENDBRANCH   4  24
TORSDOF 4
ENDMDL