MODEL 2
REMARK VINA RESULT: -7.997258197      1.928      3.203
REMARK  5 active torsions:
REMARK  status: ('A' for Active; 'I' for Inactive)
REMARK       I    between atoms: C2_4  and  N2_5
REMARK       I    between atoms: C2_4  and  N4_12
REMARK    1  A    between atoms: C3_7  and  N3_9
REMARK    2  A    between atoms: N4_12  and  C5_14
REMARK    3  A    between atoms: C5_14  and  C6_15
REMARK    4  A    between atoms: C6_15  and  C7_16
REMARK    5  A    between atoms: C7_16  and  O1_17
ROOT
HETATM    1  C5  UNL     1     -21.440   6.953   0.367  1.00  0.00     0.141 C
ENDROOT
BRANCH   1   2
HETATM    2  N4  UNL     1     -22.374   6.928   1.478  1.00  0.00    -0.226 N
HETATM    3  C2  UNL     1     -22.711   8.099   2.219  1.00  0.00     0.675 C
HETATM    4  N1  UNL     1     -23.929   8.530   2.086  1.00  0.00    -0.231 N
HETATM    5  N2  UNL     1     -21.826   8.791   3.057  1.00  0.00    -0.166 N
HETATM    6  C1  UNL     1     -24.405   9.713   2.786  1.00  0.00     0.165 C
ATOM      7  H1  UNL     1     -24.570   8.025   1.474  1.00  0.00     0.177 HD
HETATM    8  C3  UNL     1     -20.944   8.222   3.795  1.00  0.00     0.189 C
ATOM      9  H2  UNL     1     -21.887   9.808   3.083  1.00  0.00     0.186 HD
HETATM   10 CL1  UNL     1     -20.812   6.492   3.775  1.00  0.00    -0.045 Cl
ATOM     11  H4  UNL     1     -22.804   6.040   1.738  1.00  0.00     0.177 HD
BRANCH   8  12
HETATM   12  N3  UNL     1     -20.101   9.025   4.605  1.00  0.00    -0.370 N
HETATM   13  C4  UNL     1     -18.830   8.574   5.089  1.00  0.00     0.148 C
ATOM     14  H3  UNL     1     -20.413   9.964   4.854  1.00  0.00     0.161 HD
ENDBRANCH   8  12
ENDBRANCH   1   2
BRANCH   1  15
HETATM   15  C6  UNL     1     -22.132   7.630  -0.791  1.00  0.00     0.059 C
BRANCH  15  16
HETATM   16  C7  UNL     1     -21.439   8.891  -1.228  1.00  0.00     0.071 C
HETATM   17  C8  UNL     1     -21.999  10.128  -0.630  1.00  0.00     0.065 C
HETATM   18  C9  UNL     1     -22.395  11.200  -1.570  1.00  0.00     0.170 C
HETATM   19  O2  UNL     1     -22.875  10.821  -2.783  1.00  0.00    -0.390 OA
HETATM   20  C10 UNL     1     -22.891   9.479  -3.060  1.00  0.00     0.180 C
HETATM   21  C11 UNL     1     -21.502   8.941  -2.740  1.00  0.00     0.012 C
HETATM   22  C12 UNL     1     -20.455   9.856  -3.337  1.00  0.00     0.014 C
HETATM   23  C15 UNL     1     -21.251   7.596  -3.386  1.00  0.00     0.014 C
HETATM   24  C13 UNL     1     -19.774   9.130  -4.451  1.00  0.00     0.001 C
HETATM   25  C14 UNL     1     -20.649   7.933  -4.755  1.00  0.00     0.001 C
BRANCH  16  26
HETATM   26  O1  UNL     1     -20.071   8.715  -0.912  1.00  0.00    -0.389 OA
ATOM     27  H1  UNL     1     -19.683   8.273  -1.658  1.00  0.00     0.210 HD
ENDBRANCH  16  26
ENDBRANCH  15  16
ENDBRANCH   1  15
TORSDOF 5
ENDMDL