MODEL 3
REMARK VINA RESULT: -7.697971632      4.064      5.794
REMARK  4 active torsions:
REMARK  status: ('A' for Active; 'I' for Inactive)
REMARK    1  A    between atoms: C2_2  and  N2_6
REMARK    2  A    between atoms: C4_8  and  N3_9
REMARK       I    between atoms: N3_9  and  C5_11
REMARK    3  A    between atoms: C5_11  and  C6_13
REMARK    4  A    between atoms: C6_13  and  N4_14
ROOT
HETATM    1  N2  UNL     1     -20.907   8.842  -0.110  1.00  0.00    -0.351 N
HETATM    2  C3  UNL     1     -21.495   9.654   0.935  1.00  0.00     0.151 C
HETATM    3  C4  UNL     1     -22.943   9.863   0.599  1.00  0.00     0.103 C
HETATM    4  C12 UNL     1     -23.247   9.700  -0.869  1.00  0.00     0.038 C
HETATM    5  C13 UNL     1     -22.117  10.243  -1.692  1.00  0.00    -0.011 C
HETATM    6  C14 UNL     1     -21.777  11.666  -1.394  1.00  0.00     0.018 C
HETATM    7  C15 UNL     1     -22.428  10.147  -3.180  1.00  0.00     0.018 C
HETATM    8  C16 UNL     1     -20.902   9.382  -1.450  1.00  0.00     0.190 C
HETATM    9 CL1  UNL     1     -19.386  10.212  -1.845  1.00  0.00    -0.102 Cl
ENDROOT
BRANCH   3  10
HETATM   10  N3  UNL     1     -23.816   9.034   1.413  1.00  0.00    -0.350 N
HETATM   11  C5  UNL     1     -24.336   9.453   2.661  1.00  0.00     0.265 C
HETATM   12  O1  UNL     1     -24.014  10.592   3.054  1.00  0.00    -0.267 OA
ATOM     13  H3  UNL     1     -24.065   8.107   1.069  1.00  0.00     0.163 HD
BRANCH  11  14
HETATM   14  C6  UNL     1     -25.202   8.585   3.433  1.00  0.00     0.275 C
BRANCH  14  15
HETATM   15  N4  UNL     1     -26.541   9.000   3.663  1.00  0.00    -0.042 N
HETATM   16  C7  UNL     1     -27.307   7.731   3.819  1.00  0.00     0.279 C
HETATM   17  C8  UNL     1     -26.723   9.733   4.891  1.00  0.00     0.268 C
HETATM   18  C9  UNL     1     -27.839  10.763   4.766  1.00  0.00     0.196 C
HETATM   19  O2  UNL     1     -28.938  10.288   4.083  1.00  0.00    -0.388 OA
HETATM   20  C10 UNL     1     -28.623   9.861   2.819  1.00  0.00     0.196 C
HETATM   21  C11 UNL     1     -27.127   9.769   2.585  1.00  0.00     0.268 C
ENDBRANCH  14  15
ENDBRANCH  11  14
ENDBRANCH   3  10
BRANCH   1  22
HETATM   22  C2  UNL     1     -20.356   7.565   0.178  1.00  0.00     0.070 C
HETATM   23  C1  UNL     1     -19.031   7.369   0.821  1.00  0.00     0.088 C
HETATM   24  N1  UNL     1     -21.017   6.477  -0.123  1.00  0.00    -0.389 N
ATOM     25  H12 UNL     1     -20.621   5.560   0.084  1.00  0.00     0.157 HD
ATOM     26  H11 UNL     1     -21.927   6.612  -0.564  1.00  0.00     0.157 HD
ENDBRANCH   1  22
TORSDOF 4
ENDMDL