MODEL 5
REMARK VINA RESULT: -7.131539219      2.443      3.334
REMARK  3 active torsions:
REMARK  status: ('A' for Active; 'I' for Inactive)
REMARK       I    between atoms: C2_4  and  N3_6
REMARK    1  A    between atoms: N3_6  and  C3_8
REMARK    2  A    between atoms: C3_8  and  C4_9
REMARK    3  A    between atoms: C4_9  and  N4_10
ROOT
HETATM    1  N4  UNL     1     -22.287  11.364  -0.788  1.00  0.00    -0.369 N
ATOM      2  H4  UNL     1     -21.949  12.327  -0.763  1.00  0.00     0.161 HD
HETATM    3  C5  UNL     1     -21.474  10.525  -1.288  1.00  0.00     0.137 C
HETATM    4  N5  UNL     1     -21.838   9.165  -1.370  1.00  0.00    -0.366 N
ATOM      5  H5  UNL     1     -22.605   8.872  -0.765  1.00  0.00     0.162 HD
HETATM    6  C6  UNL     1     -21.268   8.145  -2.195  1.00  0.00     0.092 C
HETATM    7  C7  UNL     1     -19.772   8.131  -1.850  1.00  0.00     0.033 C
HETATM    8  C8  UNL     1     -19.523   8.855  -3.120  1.00  0.00     0.022 C
HETATM    9  C9  UNL     1     -19.061  10.262  -3.002  1.00  0.00     0.132 C
HETATM   10 BR1  UNL     1     -17.192  10.184  -2.428  1.00  0.00    -0.079 Br
HETATM   11  S1  UNL     1     -19.930  11.286  -1.828  1.00  0.00    -0.078 SA
HETATM   12  C10 UNL     1     -20.896   8.617  -3.593  1.00  0.00    -0.022 C
HETATM   13  C11 UNL     1     -21.008   7.400  -4.512  1.00  0.00     0.017 C
HETATM   14  C12 UNL     1     -21.687   9.759  -4.149  1.00  0.00     0.017 C
ENDROOT
BRANCH   1  15
HETATM   15  C4  UNL     1     -23.584  11.176  -0.263  1.00  0.00     0.141 C
BRANCH  15  16
HETATM   16  C3  UNL     1     -23.640  11.769   1.162  1.00  0.00     0.142 C
BRANCH  16  17
HETATM   17  N3  UNL     1     -23.322  10.758   2.116  1.00  0.00    -0.363 N
HETATM   18  C2  UNL     1     -23.799   9.442   1.974  1.00  0.00     0.183 C
HETATM   19  N1  UNL     1     -24.955   9.092   2.322  1.00  0.00    -0.369 N
HETATM   20  N2  UNL     1     -22.870   8.474   1.400  1.00  0.00    -0.064 NA
HETATM   21  C1  UNL     1     -25.939   9.922   2.885  1.00  0.00     0.148 C
ATOM     22  H1  UNL     1     -25.202   8.112   2.183  1.00  0.00     0.161 HD
ATOM     23  H3  UNL     1     -22.738  10.995   2.918  1.00  0.00     0.162 HD
ENDBRANCH  16  17
ENDBRANCH  15  16
ENDBRANCH   1  15
TORSDOF 3
ENDMDL