MODEL 2
REMARK VINA RESULT: -7.761148923      2.581      3.556
REMARK  4 active torsions:
REMARK  status: ('A' for Active; 'I' for Inactive)
REMARK       I    between atoms: N1_2  and  C2_4
REMARK    1  A    between atoms: C2_4  and  C3_6
REMARK    2  A    between atoms: C3_6  and  N2_7
REMARK    3  A    between atoms: N2_7  and  C4_10
REMARK    4  A    between atoms: C13_20  and  O2_21
ROOT
HETATM    1  C4  UNL     1     -21.534   8.143  -1.999  1.00  0.00     0.195 C
HETATM    2  C5  UNL     1     -20.343   7.679  -2.782  1.00  0.00     0.018 C
HETATM    3  C6  UNL     1     -19.125   8.510  -2.626  1.00  0.00     0.008 C
HETATM    4  C7  UNL     1     -19.316   9.699  -3.528  1.00  0.00     0.022 C
HETATM    5  C8  UNL     1     -20.491   9.348  -4.343  1.00  0.00     0.022 C
HETATM    6 BR1  UNL     1     -20.271   9.923  -6.193  1.00  0.00    -0.085 Br
HETATM    7  C9  UNL     1     -20.617   7.817  -4.290  1.00  0.00     0.028 C
HETATM    8  C10 UNL     1     -21.835   9.849  -3.838  1.00  0.00     0.011 C
HETATM    9  C11 UNL     1     -21.919  11.302  -4.121  1.00  0.00     0.009 C
HETATM   10  C12 UNL     1     -22.467  12.144  -3.006  1.00  0.00     0.032 C
HETATM   11  C13 UNL     1     -21.919  11.728  -1.665  1.00  0.00     0.118 C
HETATM   12  C14 UNL     1     -22.432  10.350  -1.412  1.00  0.00     0.039 C
HETATM   13  C15 UNL     1     -22.251   9.349  -2.511  1.00  0.00     0.024 C
ENDROOT
BRANCH   1  14
HETATM   14  N2  UNL     1     -21.221   8.116  -0.607  1.00  0.00    -0.062 N
ATOM     15  H22 UNL     1     -21.816   8.753  -0.077  1.00  0.00     0.278 HD
ATOM     16  H21 UNL     1     -20.318   8.552  -0.417  1.00  0.00     0.278 HD
BRANCH  14  17
HETATM   17  C3  UNL     1     -21.283   6.767  -0.082  1.00  0.00     0.335 C
BRANCH  17  18
HETATM   18  C2  UNL     1     -21.438   6.776   1.397  1.00  0.00     0.242 C
HETATM   19  N1  UNL     1     -22.666   7.026   2.043  1.00  0.00    -0.364 N
HETATM   20  C1  UNL     1     -22.795   7.031   3.462  1.00  0.00     0.149 C
ATOM     21  H1  UNL     1     -23.492   7.209   1.474  1.00  0.00     0.161 HD
HETATM   22  O1  UNL     1     -20.408   6.548   2.084  1.00  0.00    -0.272 OA
ENDBRANCH  17  18
ENDBRANCH  14  17
ENDBRANCH   1  14
BRANCH  11  23
HETATM   23  O2  UNL     1     -22.474  12.577  -0.708  1.00  0.00    -0.396 OA
ATOM     24  H2  UNL     1     -21.934  12.517   0.071  1.00  0.00     0.210 HD
ENDBRANCH  11  23
TORSDOF 4
ENDMDL