MODEL 2
REMARK VINA RESULT: -4.772049133      1.606      4.197
REMARK  4 active torsions:
REMARK  status: ('A' for Active; 'I' for Inactive)
REMARK    1  A    between atoms: N1_1  and  C1_4
REMARK    2  A    between atoms: N3_7  and  C2_8
REMARK    3  A    between atoms: C2_8  and  C3_9
REMARK    4  A    between atoms: C3_9  and  N4_10
ROOT
HETATM    1  C1  UNL     1      -6.735 -84.053   0.289  1.00  0.00     0.145 A
HETATM    2  N2  UNL     1      -6.528 -83.249   1.346  1.00  0.00    -0.280 N
ATOM      3  H2  UNL     1      -6.088 -82.330   1.296  1.00  0.00     0.189 HD
HETATM    4  N3  UNL     1      -6.971 -83.807   2.461  1.00  0.00    -0.271 N
HETATM    5  C4  UNL     1      -7.491 -85.023   2.142  1.00  0.00     0.154 A
HETATM    6  N5  UNL     1      -8.091 -86.147   2.575  1.00  0.00    -0.335 N
ATOM      7  H5  UNL     1      -8.345 -86.351   3.541  1.00  0.00     0.168 HD
HETATM    8  C5  UNL     1      -8.300 -86.956   1.525  1.00  0.00     0.182 A
HETATM    9  N6  UNL     1      -7.843 -86.373   0.397  1.00  0.00    -0.346 N
ATOM     10  H6  UNL     1      -7.868 -86.755  -0.548  1.00  0.00     0.167 HD
HETATM   11  C6  UNL     1      -7.348 -85.187   0.780  1.00  0.00     0.124 A
ENDROOT
BRANCH   4  12
HETATM   12  C2  UNL     1      -6.928 -83.251   3.799  1.00  0.00     0.178 C
BRANCH  12  13
HETATM   13  C3  UNL     1      -6.432 -81.823   3.811  1.00  0.00     0.251 C
BRANCH  13  14
HETATM   14  N4  UNL     1      -5.022 -81.790   4.147  1.00  0.00    -0.078 N
ATOM     15  H43 UNL     1      -4.869 -81.657   5.147  1.00  0.00     0.274 HD
ATOM     16  H42 UNL     1      -4.584 -82.706   4.050  1.00  0.00     0.274 HD
ATOM     17  H41 UNL     1      -4.547 -81.079   3.590  1.00  0.00     0.274 HD
ENDBRANCH  13  14
ENDBRANCH  12  13
ENDBRANCH   4  12
BRANCH   1  18
HETATM   18  N1  UNL     1      -6.423 -83.821  -0.963  1.00  0.00    -0.382 N
ATOM     19  H12 UNL     1      -6.000 -84.484  -1.612  1.00  0.00     0.157 HD
ATOM     20  H11 UNL     1      -6.549 -82.952  -1.483  1.00  0.00     0.157 HD
ENDBRANCH   1  18
TORSDOF 4
ENDMDL