MODEL 4
REMARK VINA RESULT: -5.247880891      7.345      8.458
REMARK  4 active torsions:
REMARK  status: ('A' for Active; 'I' for Inactive)
REMARK    1  A    between atoms: N1_1  and  C1_4
REMARK    2  A    between atoms: C4_9  and  C5_10
REMARK    3  A    between atoms: C5_10  and  N3_11
REMARK    4  A    between atoms: N3_11  and  C6_14
ROOT
HETATM    1  C1  UNL     1      -7.462 -85.131  -0.391  1.00  0.00     0.675 A
HETATM    2  N2  UNL     1      -7.868 -86.117   0.423  1.00  0.00    -0.202 N
ATOM      3  H2  UNL     1      -8.178 -86.997   0.012  1.00  0.00     0.183 HD
HETATM    4  C2  UNL     1      -7.883 -85.987   1.761  1.00  0.00     0.108 A
HETATM    5  C3  UNL     1      -7.462 -84.794   2.297  1.00  0.00     0.045 A
HETATM    6  C4  UNL     1      -7.033 -83.749   1.474  1.00  0.00     0.053 A
HETATM    7  N5  UNL     1      -7.050 -83.961   0.145  1.00  0.00    -0.194 N
ATOM      8  H5  UNL     1      -6.743 -83.214  -0.478  1.00  0.00     0.184 HD
ENDROOT
BRANCH   6   9
HETATM    9  C5  UNL     1      -6.595 -82.517   2.124  1.00  0.00     0.290 C
BRANCH   9  10
HETATM   10  N3  UNL     1      -7.216 -82.208   3.370  1.00  0.00    -0.062 N
ATOM     11  H32 UNL     1      -7.845 -81.410   3.289  1.00  0.00     0.278 HD
ATOM     12  H31 UNL     1      -7.899 -82.917   3.636  1.00  0.00     0.278 HD
BRANCH  10  13
HETATM   13  C6  UNL     1      -6.245 -82.008   4.386  1.00  0.00     0.237 C
HETATM   14  C7  UNL     1      -6.353 -80.777   5.249  1.00  0.00     0.267 C
HETATM   15  N4  UNL     1      -4.886 -80.913   5.392  1.00  0.00    -0.071 N
HETATM   16  C8  UNL     1      -4.947 -81.310   3.969  1.00  0.00     0.267 C
ATOM     17  H42 UNL     1      -4.291 -80.156   5.729  1.00  0.00     0.277 HD
ATOM     18  H41 UNL     1      -4.453 -81.494   6.109  1.00  0.00     0.277 HD
ENDBRANCH  10  13
ENDBRANCH   9  10
ENDBRANCH   6   9
BRANCH   1  19
HETATM   19  N1  UNL     1      -7.486 -85.350  -1.666  1.00  0.00    -0.234 N
ATOM     20  H12 UNL     1      -6.867 -86.018  -2.126  1.00  0.00     0.174 HD
ATOM     21  H11 UNL     1      -8.156 -84.824  -2.228  1.00  0.00     0.174 HD
ENDBRANCH   1  19
TORSDOF 4
ENDMDL