MODEL 1
REMARK VINA RESULT: -5.478155977      0.000      0.000
REMARK  3 active torsions:
REMARK  status: ('A' for Active; 'I' for Inactive)
REMARK    1  A    between atoms: C2_7  and  C3_8
REMARK    2  A    between atoms: C3_8  and  N3_9
REMARK    3  A    between atoms: N3_9  and  C4_12
ROOT
HETATM    1  N3  UNL     1      -7.828 -83.864   0.165  1.00  0.00    -0.042 N
ATOM      2  H31 UNL     1      -7.944 -83.273  -0.657  1.00  0.00     0.279 HD
ATOM      3  H32 UNL     1      -8.624 -83.550   0.721  1.00  0.00     0.279 HD
ENDROOT
BRANCH   1   4
HETATM    4  C3  UNL     1      -6.608 -83.555   0.829  1.00  0.00     0.288 C
BRANCH   4   5
HETATM    5  C2  UNL     1      -6.916 -82.941   2.176  1.00  0.00     0.259 A
HETATM    6  N2  UNL     1      -5.853 -82.906   3.124  1.00  0.00    -0.328 N
HETATM    7  C1  UNL     1      -6.706 -83.636   3.983  1.00  0.00     0.216 A
ATOM      8  H2  UNL     1      -4.907 -82.526   3.164  1.00  0.00     0.165 HD
HETATM    9  N1  UNL     1      -6.603 -84.043   5.212  1.00  0.00    -0.365 N
HETATM   10  O1  UNL     1      -7.711 -83.766   3.020  1.00  0.00    -0.295 OA
ATOM     11  H12 UNL     1      -5.870 -83.948   5.915  1.00  0.00     0.159 HD
ATOM     12  H11 UNL     1      -7.218 -84.569   5.831  1.00  0.00     0.159 HD
ENDBRANCH   4   5
ENDBRANCH   1   4
BRANCH   1  13
HETATM   13  C4  UNL     1      -7.980 -85.249  -0.188  1.00  0.00     0.382 C
HETATM   14  C5  UNL     1      -9.384 -85.732  -0.208  1.00  0.00     0.064 C
HETATM   15  C6  UNL     1      -9.431 -86.994   0.629  1.00  0.00     0.031 C
HETATM   16  C7  UNL     1      -8.210 -86.822   1.502  1.00  0.00     0.235 C
HETATM   17  N4  UNL     1      -7.235 -86.110   0.709  1.00  0.00    -0.046 N
ATOM     18  H42 UNL     1      -6.579 -86.726   0.227  1.00  0.00     0.279 HD
ATOM     19  H41 UNL     1      -6.547 -85.607   1.271  1.00  0.00     0.279 HD
ENDBRANCH   1  13
TORSDOF 3
ENDMDL