MODEL 3
REMARK VINA RESULT: -5.262611216      0.769      1.334
REMARK  3 active torsions:
REMARK  status: ('A' for Active; 'I' for Inactive)
REMARK    1  A    between atoms: C3_6  and  C4_7
REMARK    2  A    between atoms: C4_7  and  N2_8
REMARK    3  A    between atoms: N2_8  and  C5_11
ROOT
HETATM    1  N2  UNL     1      -7.114 -82.756   2.524  1.00  0.00    -0.020 N
ATOM      2  H21 UNL     1      -7.548 -83.362   3.221  1.00  0.00     0.281 HD
ATOM      3  H22 UNL     1      -7.907 -82.153   2.309  1.00  0.00     0.281 HD
ENDROOT
BRANCH   1   4
HETATM    4  C4  UNL     1      -6.717 -83.504   1.375  1.00  0.00     0.269 C
BRANCH   4   5
HETATM    5  C3  UNL     1      -7.884 -84.334   0.914  1.00  0.00     0.211 C
HETATM    6  N1  UNL     1      -7.787 -84.653  -0.517  1.00  0.00    -0.069 N
HETATM    7  C2  UNL     1      -8.773 -85.720  -0.672  1.00  0.00     0.233 C
ATOM      8  H12 UNL     1      -6.848 -84.886  -0.841  1.00  0.00     0.277 HD
ATOM      9  H11 UNL     1      -7.915 -83.858  -1.143  1.00  0.00     0.277 HD
HETATM   10  C1  UNL     1      -8.861 -86.434   0.634  1.00  0.00     0.029 C
HETATM   11  C8  UNL     1      -7.821 -85.747   1.495  1.00  0.00     0.036 C
ENDBRANCH   4   5
ENDBRANCH   1   4
BRANCH   1  12
HETATM   12  C5  UNL     1      -6.026 -81.994   3.108  1.00  0.00     0.580 C
HETATM   13  N3  UNL     1      -6.321 -80.574   3.120  1.00  0.00    -0.020 N
HETATM   14  C6  UNL     1      -5.777 -80.118   4.409  1.00  0.00     0.264 C
ATOM     15  H32 UNL     1      -5.970 -80.064   2.310  1.00  0.00     0.281 HD
ATOM     16  H31 UNL     1      -7.304 -80.347   2.973  1.00  0.00     0.281 HD
HETATM   17  C7  UNL     1      -6.244 -81.269   5.309  1.00  0.00     0.264 C
HETATM   18  N4  UNL     1      -5.876 -82.412   4.477  1.00  0.00    -0.020 N
ATOM     19  H42 UNL     1      -6.402 -83.257   4.699  1.00  0.00     0.281 HD
ATOM     20  H41 UNL     1      -4.948 -82.779   4.686  1.00  0.00     0.281 HD
ENDBRANCH   1  12
TORSDOF 3
ENDMDL