MODEL 3
REMARK VINA RESULT: -6.015156430      1.333      1.562
REMARK  4 active torsions:
REMARK  status: ('A' for Active; 'I' for Inactive)
REMARK    1  A    between atoms: N1_1  and  C1_5
REMARK    2  A    between atoms: N4_8  and  C2_9
REMARK    3  A    between atoms: C2_9  and  N5_10
REMARK    4  A    between atoms: N5_10  and  C3_12
ROOT
HETATM    1  C2  UNL     1      -6.751 -83.637   1.178  1.00  0.00     0.237 C
ENDROOT
BRANCH   1   2
HETATM    2  N4  UNL     1      -5.997 -84.091   0.056  1.00  0.00    -0.155 NA
HETATM    3  C1  UNL     1      -6.295 -85.381  -0.472  1.00  0.00     0.387 C
HETATM    4  N2  UNL     1      -4.859 -85.480  -0.671  1.00  0.00    -0.081 NA
HETATM    5  N3  UNL     1      -4.708 -84.583   0.394  1.00  0.00    -0.049 NA
BRANCH   3   6
HETATM    6  N1  UNL     1      -7.067 -85.333  -1.696  1.00  0.00    -0.046 N
ATOM      7  H13 UNL     1      -6.459 -85.461  -2.505  1.00  0.00     0.277 HD
ATOM      8  H12 UNL     1      -7.649 -86.165  -1.782  1.00  0.00     0.277 HD
ATOM      9  H11 UNL     1      -7.632 -84.491  -1.806  1.00  0.00     0.277 HD
ENDBRANCH   3   6
ENDBRANCH   1   2
BRANCH   1  10
HETATM   10  N5  UNL     1      -5.840 -83.496   2.311  1.00  0.00    -0.363 N
ATOM     11  H5  UNL     1      -4.892 -83.866   2.247  1.00  0.00     0.162 HD
BRANCH  10  12
HETATM   12  C3  UNL     1      -6.261 -82.854   3.491  1.00  0.00     0.101 A
HETATM   13  C4  UNL     1      -7.537 -82.959   4.039  1.00  0.00     0.049 A
HETATM   14  C5  UNL     1      -7.510 -82.181   5.172  1.00  0.00     0.021 A
HETATM   15  C6  UNL     1      -6.263 -81.641   5.282  1.00  0.00     0.090 A
HETATM   16  N6  UNL     1      -5.516 -82.049   4.268  1.00  0.00    -0.353 N
ATOM     17  H6  UNL     1      -4.542 -81.797   4.105  1.00  0.00     0.166 HD
ENDBRANCH  10  12
ENDBRANCH   1  10
TORSDOF 4
ENDMDL