MODEL 2
REMARK VINA RESULT: -5.474228399      1.885      5.716
REMARK  4 active torsions:
REMARK  status: ('A' for Active; 'I' for Inactive)
REMARK    1  A    between atoms: N1_1  and  C1_4
REMARK    2  A    between atoms: C2_11  and  C3_12
REMARK    3  A    between atoms: N5_13  and  N6_15
REMARK    4  A    between atoms: N6_15  and  C4_17
ROOT
HETATM    1  C1  UNL     1      -6.357 -82.103   3.561  1.00  0.00     0.144 A
HETATM    2  N2  UNL     1      -6.204 -82.464   4.835  1.00  0.00    -0.269 N
ATOM      3  H2  UNL     1      -5.993 -81.814   5.593  1.00  0.00     0.190 HD
HETATM    4  N3  UNL     1      -6.359 -83.759   4.997  1.00  0.00    -0.241 N
ATOM      5  H3  UNL     1      -6.294 -84.282   5.870  1.00  0.00     0.208 HD
HETATM    6  N4  UNL     1      -6.617 -84.241   3.796  1.00  0.00    -0.281 N
ATOM      7  H4  UNL     1      -6.785 -85.228   3.600  1.00  0.00     0.188 HD
HETATM    8  C2  UNL     1      -6.631 -83.278   2.866  1.00  0.00     0.111 A
ENDROOT
BRANCH   8   9
HETATM    9  C3  UNL     1      -6.879 -83.431   1.441  1.00  0.00     0.141 C
HETATM   10  N5  UNL     1      -7.765 -84.276   1.067  1.00  0.00    -0.314 N
ATOM     11  H5  UNL     1      -8.266 -84.813   1.773  1.00  0.00     0.185 HD
BRANCH  10  12
HETATM   12  N6  UNL     1      -8.058 -84.478  -0.262  1.00  0.00    -0.332 N
ATOM     13  H6  UNL     1      -8.494 -83.717  -0.783  1.00  0.00     0.180 HD
BRANCH  12  14
HETATM   14  C4  UNL     1      -7.782 -85.710  -0.955  1.00  0.00     0.099 A
HETATM   15  C5  UNL     1      -7.379 -85.759  -2.358  1.00  0.00     0.029 A
HETATM   16  C6  UNL     1      -6.324 -85.906  -1.275  1.00  0.00     0.029 A
ENDBRANCH  12  14
ENDBRANCH  10  12
ENDBRANCH   8   9
BRANCH   1  17
HETATM   17  N1  UNL     1      -6.271 -80.913   3.056  1.00  0.00    -0.382 N
ATOM     18  H12 UNL     1      -5.709 -80.636   2.252  1.00  0.00     0.157 HD
ATOM     19  H11 UNL     1      -6.742 -80.064   3.370  1.00  0.00     0.157 HD
ENDBRANCH   1  17
TORSDOF 4
ENDMDL