MODEL 1
REMARK VINA RESULT: -5.359202868      0.000      0.000
REMARK  4 active torsions:
REMARK  status: ('A' for Active; 'I' for Inactive)
REMARK    1  A    between atoms: N1_1  and  C1_5
REMARK    2  A    between atoms: C2_9  and  N3_10
REMARK    3  A    between atoms: N3_10  and  N4_11
REMARK    4  A    between atoms: N4_11  and  C3_13
ROOT
HETATM    1  C1  UNL     1      -6.504 -82.547   4.349  1.00  0.00     0.430 A
HETATM    2  N2  UNL     1      -5.230 -81.940   3.928  1.00  0.00    -0.019 N
ATOM      3  H21 UNL     1      -4.253 -82.214   4.031  1.00  0.00     0.281 HD
ATOM      4  H22 UNL     1      -4.711 -81.116   4.229  1.00  0.00     0.281 HD
HETATM    5  C2  UNL     1      -6.230 -82.172   2.907  1.00  0.00     0.358 A
ENDROOT
BRANCH   5   6
HETATM    6  N3  UNL     1      -5.941 -83.227   1.988  1.00  0.00    -0.103 NA
BRANCH   6   7
HETATM    7  N4  UNL     1      -6.866 -83.373   0.977  1.00  0.00    -0.302 N
ATOM      8  H4  UNL     1      -6.967 -82.631   0.284  1.00  0.00     0.182 HD
BRANCH   7   9
HETATM    9  C3  UNL     1      -7.684 -84.532   0.873  1.00  0.00     0.044 A
HETATM   10  C4  UNL     1      -8.670 -84.558  -0.091  1.00  0.00     0.030 A
HETATM   11  C5  UNL     1      -9.459 -85.683  -0.188  1.00  0.00     0.002 A
HETATM   12  C6  UNL     1      -9.288 -86.783   0.654  1.00  0.00     0.000 A
HETATM   13  C7  UNL     1      -8.295 -86.751   1.621  1.00  0.00     0.002 A
HETATM   14  C8  UNL     1      -7.504 -85.623   1.718  1.00  0.00     0.030 A
ENDBRANCH   7   9
ENDBRANCH   6   7
ENDBRANCH   5   6
BRANCH   1  15
HETATM   15  N1  UNL     1      -6.440 -83.932   4.743  1.00  0.00    -0.047 N
ATOM     16  H13 UNL     1      -5.841 -84.449   4.100  1.00  0.00     0.276 HD
ATOM     17  H12 UNL     1      -5.902 -84.023   5.606  1.00  0.00     0.276 HD
ATOM     18  H11 UNL     1      -7.336 -84.408   4.841  1.00  0.00     0.276 HD
ENDBRANCH   1  15
TORSDOF 4
ENDMDL