MODEL 1
REMARK VINA RESULT: -5.439670724      0.000      0.000
REMARK  5 active torsions:
REMARK  status: ('A' for Active; 'I' for Inactive)
REMARK    1  A    between atoms: N1_1  and  C1_5
REMARK    2  A    between atoms: C1_5  and  C2_6
REMARK    3  A    between atoms: C2_6  and  C3_7
REMARK    4  A    between atoms: C3_7  and  N2_8
REMARK    5  A    between atoms: N2_8  and  C4_10
ROOT
HETATM    1  C4  UNL     1      -7.564 -84.402   0.773  1.00  0.00     0.679 A
HETATM    2  N3  UNL     1      -8.616 -84.181  -0.024  1.00  0.00    -0.202 N
ATOM      3  H3  UNL     1      -8.731 -83.248  -0.418  1.00  0.00     0.183 HD
HETATM    4  C5  UNL     1      -9.527 -85.114  -0.337  1.00  0.00     0.109 A
HETATM    5  C6  UNL     1      -9.398 -86.382   0.179  1.00  0.00     0.063 A
HETATM    6  C7  UNL     1      -8.294 -86.600   1.012  1.00  0.00     0.133 A
HETATM    7  N4  UNL     1      -8.138 -87.898   1.556  1.00  0.00    -0.082 NA
HETATM    8  N5  UNL     1      -7.411 -85.626   1.290  1.00  0.00    -0.179 N
ATOM      9  H5  UNL     1      -6.618 -85.821   1.901  1.00  0.00     0.185 HD
ENDROOT
BRANCH   1  10
HETATM   10  N2  UNL     1      -6.694 -83.495   1.065  1.00  0.00    -0.226 N
ATOM     11  H2  UNL     1      -6.345 -82.856   0.350  1.00  0.00     0.177 HD
BRANCH  10  12
HETATM   12  C3  UNL     1      -6.219 -83.406   2.442  1.00  0.00     0.139 C
BRANCH  12  13
HETATM   13  C2  UNL     1      -6.367 -81.951   2.859  1.00  0.00     0.047 C
BRANCH  13  14
HETATM   14  C1  UNL     1      -6.038 -81.881   4.335  1.00  0.00     0.231 C
BRANCH  14  15
HETATM   15  N1  UNL     1      -6.333 -83.123   5.018  1.00  0.00    -0.079 N
ATOM     16  H13 UNL     1      -5.919 -83.140   5.950  1.00  0.00     0.274 HD
ATOM     17  H12 UNL     1      -7.318 -83.177   5.278  1.00  0.00     0.274 HD
ATOM     18  H11 UNL     1      -6.049 -83.938   4.473  1.00  0.00     0.274 HD
ENDBRANCH  14  15
ENDBRANCH  13  14
ENDBRANCH  12  13
ENDBRANCH  10  12
ENDBRANCH   1  10
TORSDOF 5
ENDMDL