MODEL 2
REMARK VINA RESULT: -4.764832039      6.499      8.436
REMARK  5 active torsions:
REMARK  status: ('A' for Active; 'I' for Inactive)
REMARK    1  A    between atoms: N1_1  and  C1_4
REMARK    2  A    between atoms: C4_7  and  N2_8
REMARK    3  A    between atoms: N2_8  and  C5_10
REMARK    4  A    between atoms: C5_10  and  C6_11
REMARK    5  A    between atoms: C6_11  and  N3_12
ROOT
HETATM    1  C1  UNL     1      45.581 -21.634  -5.657  1.00  0.00     0.104 A
HETATM    2  C2  UNL     1      45.550 -21.728  -4.302  1.00  0.00     0.051 A
HETATM    3  C3  UNL     1      44.979 -22.728  -3.550  1.00  0.00     0.042 A
HETATM    4  C4  UNL     1      44.335 -23.808  -4.103  1.00  0.00     0.086 A
HETATM    5  S1  UNL     1      44.282 -23.844  -5.792  1.00  0.00     0.005 SA
HETATM    6  N4  UNL     1      45.037 -22.533  -6.521  1.00  0.00    -0.311 N
ATOM      7  H4  UNL     1      45.084 -22.419  -7.534  1.00  0.00     0.176 HD
ENDROOT
BRANCH   4   8
HETATM    8  N2  UNL     1      43.823 -24.704  -3.359  1.00  0.00    -0.382 N
ATOM      9  H2  UNL     1      44.352 -25.113  -2.589  1.00  0.00     0.160 HD
BRANCH   8  10
HETATM   10  C5  UNL     1      42.462 -25.128  -3.640  1.00  0.00     0.147 C
BRANCH  10  11
HETATM   11  C6  UNL     1      42.287 -26.609  -3.397  1.00  0.00     0.249 C
BRANCH  11  12
HETATM   12  N3  UNL     1      43.597 -27.219  -3.411  1.00  0.00    -0.078 N
ATOM     13  H33 UNL     1      44.342 -26.558  -3.194  1.00  0.00     0.274 HD
ATOM     14  H32 UNL     1      43.745 -27.853  -2.627  1.00  0.00     0.274 HD
ATOM     15  H31 UNL     1      43.722 -27.672  -4.315  1.00  0.00     0.274 HD
ENDBRANCH  11  12
ENDBRANCH  10  11
ENDBRANCH   8  10
ENDBRANCH   4   8
BRANCH   1  16
HETATM   16  N1  UNL     1      46.166 -20.617  -6.253  1.00  0.00    -0.385 N
ATOM     17  H12 UNL     1      46.021 -19.726  -5.777  1.00  0.00     0.157 HD
ATOM     18  H11 UNL     1      46.706 -20.749  -7.109  1.00  0.00     0.157 HD
ENDBRANCH   1  16
TORSDOF 5
ENDMDL