MODEL 5
REMARK VINA RESULT: -4.348372876      1.998      2.641
REMARK  5 active torsions:
REMARK  status: ('A' for Active; 'I' for Inactive)
REMARK    1  A    between atoms: C2_8  and  C3_9
REMARK    2  A    between atoms: C3_9  and  N4_10
REMARK    3  A    between atoms: C5_15  and  C6_16
REMARK    4  A    between atoms: C6_16  and  C7_17
REMARK    5  A    between atoms: C7_17  and  N5_18
ROOT
HETATM    1  N1  UNL     1      41.412 -26.217  -2.112  1.00  0.00    -0.388 N
ATOM      2  H11 UNL     1      41.012 -27.152  -2.040  1.00  0.00     0.157 HD
ATOM      3  H12 UNL     1      41.072 -25.424  -1.569  1.00  0.00     0.157 HD
HETATM    4  C1  UNL     1      42.380 -26.039  -2.934  1.00  0.00     0.090 C
HETATM    5  N2  UNL     1      42.938 -24.738  -3.035  1.00  0.00    -0.293 N
ATOM      6  H2  UNL     1      42.379 -23.911  -2.824  1.00  0.00     0.183 HD
HETATM    7  N3  UNL     1      44.286 -24.616  -3.432  1.00  0.00    -0.133 NA
HETATM    8  C2  UNL     1      44.377 -25.488  -4.613  1.00  0.00     0.125 C
HETATM    9  C4  UNL     1      44.300 -26.892  -4.176  1.00  0.00     0.037 C
HETATM   10  C5  UNL     1      42.875 -27.190  -3.724  1.00  0.00     0.057 C
ENDROOT
BRANCH  10  11
HETATM   11  C6  UNL     1      42.076 -27.469  -4.970  1.00  0.00     0.039 C
BRANCH  11  12
HETATM   12  C7  UNL     1      41.256 -28.736  -4.892  1.00  0.00     0.230 C
BRANCH  12  13
HETATM   13  N5  UNL     1      39.868 -28.452  -4.579  1.00  0.00    -0.079 N
ATOM     14  H53 UNL     1      39.744 -28.243  -3.589  1.00  0.00     0.274 HD
ATOM     15  H52 UNL     1      39.574 -27.557  -4.969  1.00  0.00     0.274 HD
ATOM     16  H51 UNL     1      39.255 -29.209  -4.880  1.00  0.00     0.274 HD
ENDBRANCH  12  13
ENDBRANCH  11  12
ENDBRANCH  10  11
BRANCH   8  17
HETATM   17  C3  UNL     1      45.578 -25.141  -5.445  1.00  0.00     0.252 C
BRANCH  17  18
HETATM   18  N4  UNL     1      46.076 -23.821  -5.229  1.00  0.00    -0.078 N
ATOM     19  H43 UNL     1      45.380 -23.127  -5.503  1.00  0.00     0.274 HD
ATOM     20  H42 UNL     1      46.137 -23.621  -4.230  1.00  0.00     0.274 HD
ATOM     21  H41 UNL     1      46.969 -23.632  -5.686  1.00  0.00     0.274 HD
ENDBRANCH  17  18
ENDBRANCH   8  17
TORSDOF 5
ENDMDL