MODEL 3
REMARK VINA RESULT: -4.934686231      6.887      9.308
REMARK  5 active torsions:
REMARK  status: ('A' for Active; 'I' for Inactive)
REMARK    1  A    between atoms: C1_4  and  C2_5
REMARK    2  A    between atoms: C2_5  and  C3_6
REMARK    3  A    between atoms: C3_6  and  N2_7
REMARK    4  A    between atoms: C5_11  and  N4_12
REMARK    5  A    between atoms: C6_17  and  N6_18
ROOT
HETATM    1  N2  UNL     1      44.758 -23.183  -5.249  1.00  0.00    -0.178 N
HETATM    2  C4  UNL     1      45.251 -22.522  -4.185  1.00  0.00     0.218 A
HETATM    3  N3  UNL     1      45.964 -21.386  -4.303  1.00  0.00    -0.187 N
ATOM      4  H3  UNL     1      46.322 -20.913  -3.473  1.00  0.00     0.185 HD
HETATM    5  C5  UNL     1      46.200 -20.883  -5.528  1.00  0.00     0.691 A
HETATM    6  N5  UNL     1      45.721 -21.521  -6.605  1.00  0.00    -0.023 N
ATOM      7  H5  UNL     1      45.896 -21.145  -7.536  1.00  0.00     0.203 HD
HETATM    8  C6  UNL     1      45.001 -22.669  -6.465  1.00  0.00     0.693 A
ENDROOT
BRANCH   1   9
HETATM    9  C3  UNL     1      44.005 -24.385  -5.116  1.00  0.00     0.153 C
BRANCH   9  10
HETATM   10  C2  UNL     1      43.792 -24.783  -3.658  1.00  0.00     0.065 C
BRANCH  10  11
HETATM   11  C1  UNL     1      42.406 -25.330  -3.517  1.00  0.00     0.054 C
HETATM   12  N1  UNL     1      42.093 -26.050  -2.511  1.00  0.00    -0.411 N
ATOM     13  H12 UNL     1      42.805 -26.245  -1.807  1.00  0.00     0.155 HD
ATOM     14  H11 UNL     1      41.149 -26.422  -2.414  1.00  0.00     0.155 HD
ENDBRANCH  10  11
ENDBRANCH   9  10
ENDBRANCH   1   9
BRANCH   8  15
HETATM   15  N6  UNL     1      44.587 -23.201  -7.547  1.00  0.00    -0.234 N
ATOM     16  H62 UNL     1      44.633 -24.219  -7.588  1.00  0.00     0.174 HD
ATOM     17  H61 UNL     1      44.228 -22.663  -8.336  1.00  0.00     0.174 HD
ENDBRANCH   8  15
BRANCH   5  18
HETATM   18  N4  UNL     1      46.895 -19.780  -5.614  1.00  0.00    -0.234 N
ATOM     19  H42 UNL     1      47.324 -19.335  -4.803  1.00  0.00     0.174 HD
ATOM     20  H41 UNL     1      47.006 -19.355  -6.535  1.00  0.00     0.174 HD
ENDBRANCH   5  18
TORSDOF 5
ENDMDL