MODEL 1
REMARK VINA RESULT: -4.683909787      0.000      0.000
REMARK  4 active torsions:
REMARK  status: ('A' for Active; 'I' for Inactive)
REMARK    1  A    between atoms: C2_7  and  S1_8
REMARK    2  A    between atoms: S1_8  and  C3_9
REMARK    3  A    between atoms: C3_9  and  C4_10
REMARK    4  A    between atoms: C4_10  and  N3_11
ROOT
HETATM    1  N1  UNL     1      41.645 -26.374  -2.165  1.00  0.00    -0.233 N
ATOM      2  H11 UNL     1      40.853 -27.015  -2.214  1.00  0.00     0.174 HD
ATOM      3  H12 UNL     1      41.872 -26.320  -1.172  1.00  0.00     0.174 HD
HETATM    4  C1  UNL     1      42.284 -25.734  -3.084  1.00  0.00     0.692 A
HETATM    5  N2  UNL     1      43.327 -24.892  -3.020  1.00  0.00    -0.168 N
ATOM      6  H2  UNL     1      43.800 -24.621  -2.157  1.00  0.00     0.186 HD
HETATM    7  C2  UNL     1      43.665 -24.455  -4.244  1.00  0.00     0.174 A
HETATM    8  N4  UNL     1      42.814 -25.039  -5.099  1.00  0.00    -0.265 N
ATOM      9  H4  UNL     1      42.808 -24.911  -6.111  1.00  0.00     0.189 HD
HETATM   10  N5  UNL     1      41.981 -25.807  -4.414  1.00  0.00    -0.130 N
ATOM     11  H5  UNL     1      41.230 -26.367  -4.817  1.00  0.00     0.205 HD
ENDROOT
BRANCH   7  12
HETATM   12  S1  UNL     1      44.993 -23.307  -4.666  1.00  0.00    -0.090 SA
BRANCH  12  13
HETATM   13  C3  UNL     1      46.133 -24.249  -5.729  1.00  0.00     0.109 C
BRANCH  13  14
HETATM   14  C4  UNL     1      46.121 -23.645  -7.138  1.00  0.00     0.240 C
BRANCH  14  15
HETATM   15  N3  UNL     1      44.882 -22.900  -7.245  1.00  0.00    -0.079 N
ATOM     16  H33 UNL     1      44.053 -23.460  -7.041  1.00  0.00     0.274 HD
ATOM     17  H32 UNL     1      44.753 -22.215  -6.501  1.00  0.00     0.274 HD
ATOM     18  H31 UNL     1      44.877 -22.492  -8.179  1.00  0.00     0.274 HD
ENDBRANCH  14  15
ENDBRANCH  13  14
ENDBRANCH  12  13
ENDBRANCH   7  12
TORSDOF 4
ENDMDL