MODEL 3
REMARK VINA RESULT: -5.107588821      8.706      9.605
REMARK  5 active torsions:
REMARK  status: ('A' for Active; 'I' for Inactive)
REMARK    1  A    between atoms: N1_1  and  C1_4
REMARK    2  A    between atoms: C3_8  and  C4_9
REMARK    3  A    between atoms: C4_9  and  N3_10
REMARK    4  A    between atoms: C5_12  and  C6_13
REMARK    5  A    between atoms: C6_13  and  N4_14
ROOT
HETATM    1  C1  UNL     1      45.856 -21.204  -5.632  1.00  0.00     0.690 A
HETATM    2  N2  UNL     1      45.712 -21.549  -4.344  1.00  0.00    -0.199 N
ATOM      3  H2  UNL     1      46.115 -20.961  -3.614  1.00  0.00     0.183 HD
HETATM    4  C2  UNL     1      45.033 -22.676  -4.003  1.00  0.00     0.134 A
HETATM    5  C3  UNL     1      44.475 -23.491  -4.965  1.00  0.00     0.059 A
HETATM    6  N5  UNL     1      44.637 -23.120  -6.247  1.00  0.00    -0.288 N
ATOM      7  H5  UNL     1      44.242 -23.693  -6.993  1.00  0.00     0.187 HD
HETATM    8  N6  UNL     1      45.306 -22.012  -6.555  1.00  0.00    -0.132 N
ATOM      9  H6  UNL     1      45.406 -21.764  -7.539  1.00  0.00     0.205 HD
ENDROOT
BRANCH   5  10
HETATM   10  C4  UNL     1      43.720 -24.740  -4.632  1.00  0.00     0.178 C
BRANCH  10  11
HETATM   11  N3  UNL     1      43.450 -24.841  -3.243  1.00  0.00    -0.395 N
HETATM   12  C5  UNL     1      42.402 -25.466  -2.858  1.00  0.00     0.082 C
ATOM     13  H3  UNL     1      44.082 -24.422  -2.561  1.00  0.00     0.159 HD
BRANCH  12  14
HETATM   14  C6  UNL     1      41.422 -26.107  -3.772  1.00  0.00     0.273 C
BRANCH  14  15
HETATM   15  N4  UNL     1      40.104 -25.519  -3.679  1.00  0.00    -0.075 N
ATOM     16  H43 UNL     1      40.089 -24.587  -4.093  1.00  0.00     0.274 HD
ATOM     17  H42 UNL     1      39.449 -25.989  -4.305  1.00  0.00     0.274 HD
ATOM     18  H41 UNL     1      39.747 -25.501  -2.724  1.00  0.00     0.274 HD
ENDBRANCH  14  15
ENDBRANCH  12  14
ENDBRANCH  10  11
ENDBRANCH   5  10
BRANCH   1  19
HETATM   19  N1  UNL     1      46.497 -20.135  -6.012  1.00  0.00    -0.233 N
ATOM     20  H12 UNL     1      46.658 -19.381  -5.345  1.00  0.00     0.174 HD
ATOM     21  H11 UNL     1      46.854 -20.009  -6.960  1.00  0.00     0.174 HD
ENDBRANCH   1  19
TORSDOF 5
ENDMDL