MODEL 5
REMARK VINA RESULT: -5.312412412      0.806      2.430
REMARK  4 active torsions:
REMARK  status: ('A' for Active; 'I' for Inactive)
REMARK    1  A    between atoms: C3_11  and  C4_12
REMARK    2  A    between atoms: C4_12  and  C5_13
REMARK    3  A    between atoms: C5_13  and  C6_14
REMARK    4  A    between atoms: C6_14  and  N5_15
ROOT
HETATM    1  N1  UNL     1      46.448 -20.607  -4.877  1.00  0.00    -0.234 N
ATOM      2  H11 UNL     1      46.504 -20.298  -3.907  1.00  0.00     0.174 HD
ATOM      3  H12 UNL     1      46.913 -20.074  -5.613  1.00  0.00     0.174 HD
HETATM    4  C1  UNL     1      45.792 -21.683  -5.227  1.00  0.00     0.679 A
HETATM    5  N2  UNL     1      45.719 -22.090  -6.507  1.00  0.00    -0.164 N
ATOM      6  H2  UNL     1      46.186 -21.551  -7.236  1.00  0.00     0.187 HD
HETATM    7  C2  UNL     1      45.033 -23.207  -6.838  1.00  0.00     0.208 A
HETATM    8  N3  UNL     1      44.955 -23.639  -8.196  1.00  0.00    -0.063 NA
HETATM    9  N4  UNL     1      44.440 -23.873  -5.835  1.00  0.00    -0.319 N
ATOM     10  H4  UNL     1      43.917 -24.718  -6.064  1.00  0.00     0.169 HD
HETATM   11  C3  UNL     1      44.494 -23.493  -4.553  1.00  0.00     0.099 A
HETATM   12  N6  UNL     1      45.181 -22.383  -4.259  1.00  0.00    -0.181 N
ATOM     13  H6  UNL     1      45.242 -22.068  -3.292  1.00  0.00     0.185 HD
ENDROOT
BRANCH  11  14
HETATM   14  C4  UNL     1      43.786 -24.337  -3.560  1.00  0.00     0.079 C
BRANCH  14  15
HETATM   15  C5  UNL     1      42.496 -24.902  -4.111  1.00  0.00     0.034 C
BRANCH  15  16
HETATM   16  C6  UNL     1      42.226 -26.188  -3.318  1.00  0.00     0.230 C
BRANCH  16  17
HETATM   17  N5  UNL     1      43.368 -27.075  -3.383  1.00  0.00    -0.079 N
ATOM     18  H53 UNL     1      43.609 -27.450  -2.465  1.00  0.00     0.274 HD
ATOM     19  H52 UNL     1      43.140 -27.952  -3.851  1.00  0.00     0.274 HD
ATOM     20  H51 UNL     1      44.162 -26.606  -3.820  1.00  0.00     0.274 HD
ENDBRANCH  16  17
ENDBRANCH  15  16
ENDBRANCH  14  15
ENDBRANCH  11  14
TORSDOF 4
ENDMDL