MODEL 1
REMARK VINA RESULT: -6.151869788      0.000      0.000
REMARK  4 active torsions:
REMARK  status: ('A' for Active; 'I' for Inactive)
REMARK    1  A    between atoms: N1_1  and  C1_4
REMARK    2  A    between atoms: C2_9  and  C3_10
REMARK    3  A    between atoms: C3_10  and  C4_11
REMARK    4  A    between atoms: C4_11  and  C5_12
ROOT
HETATM    1  C1  UNL     1      41.957 -25.745  -2.984  1.00  0.00     0.238 A
HETATM    2  N2  UNL     1      41.660 -26.277  -4.182  1.00  0.00    -0.263 N
ATOM      3  H2  UNL     1      41.073 -27.091  -4.365  1.00  0.00     0.190 HD
HETATM    4  N3  UNL     1      42.287 -25.525  -5.076  1.00  0.00    -0.280 N
ATOM      5  H3  UNL     1      42.259 -25.672  -6.085  1.00  0.00     0.189 HD
HETATM    6  C2  UNL     1      42.968 -24.539  -4.458  1.00  0.00     0.142 A
HETATM    7  O1  UNL     1      42.733 -24.717  -3.176  1.00  0.00    -0.264 OA
ENDROOT
BRANCH   6   8
HETATM    8  C3  UNL     1      43.810 -23.467  -5.080  1.00  0.00     0.088 C
BRANCH   8   9
HETATM    9  C4  UNL     1      45.255 -23.800  -4.769  1.00  0.00     0.032 C
BRANCH   9  10
HETATM   10  C5  UNL     1      45.936 -24.524  -5.885  1.00  0.00     0.111 C
HETATM   11  C6  UNL     1      46.269 -23.716  -7.101  1.00  0.00     0.152 C
HETATM   12  N4  UNL     1      47.471 -24.563  -7.128  1.00  0.00    -0.146 NA
HETATM   13  N5  UNL     1      47.393 -24.550  -5.711  1.00  0.00    -0.142 NA
ENDBRANCH   9  10
ENDBRANCH   8   9
ENDBRANCH   6   8
BRANCH   1  14
HETATM   14  N1  UNL     1      41.510 -26.225  -1.852  1.00  0.00    -0.364 N
ATOM     15  H12 UNL     1      40.601 -26.645  -1.657  1.00  0.00     0.159 HD
ATOM     16  H11 UNL     1      42.057 -26.233  -0.991  1.00  0.00     0.159 HD
ENDBRANCH   1  14
TORSDOF 4
ENDMDL