MODEL 5
REMARK VINA RESULT: -5.290239242      1.675      1.823
REMARK  4 active torsions:
REMARK  status: ('A' for Active; 'I' for Inactive)
REMARK    1  A    between atoms: C2_3  and  C3_4
REMARK    2  A    between atoms: C3_4  and  C4_5
REMARK    3  A    between atoms: C4_5  and  N2_6
REMARK    4  A    between atoms: C5_9  and  N4_10
ROOT
HETATM    1  N1  UNL     1      47.175 -24.743  -5.926  1.00  0.00    -0.197 NA
HETATM    2  C1  UNL     1      46.143 -24.203  -5.886  1.00  0.00     0.059 C
HETATM    3  C2  UNL     1      44.835 -23.546  -5.836  1.00  0.00     0.125 C
ENDROOT
BRANCH   3   4
HETATM    4  C3  UNL     1      43.984 -24.141  -4.712  1.00  0.00     0.036 C
BRANCH   4   5
HETATM    5  C4  UNL     1      43.093 -25.232  -5.219  1.00  0.00     0.169 C
BRANCH   5   6
HETATM    6  N2  UNL     1      42.226 -25.705  -4.173  1.00  0.00    -0.109 N
HETATM    7  N3  UNL     1      41.064 -25.212  -3.832  1.00  0.00    -0.115 N
HETATM    8  C5  UNL     1      40.589 -25.945  -2.810  1.00  0.00     0.705 A
ATOM      9  H3  UNL     1      40.601 -24.414  -4.266  1.00  0.00     0.206 HD
HETATM   10  N5  UNL     1      41.483 -26.906  -2.523  1.00  0.00    -0.020 N
HETATM   11  C6  UNL     1      42.513 -26.762  -3.375  1.00  0.00     0.707 A
ATOM     12  H5  UNL     1      41.396 -27.614  -1.794  1.00  0.00     0.203 HD
HETATM   13  N6  UNL     1      43.564 -27.484  -3.423  1.00  0.00    -0.233 N
ATOM     14  H62 UNL     1      44.346 -27.375  -4.070  1.00  0.00     0.174 HD
ATOM     15  H61 UNL     1      43.781 -28.280  -2.823  1.00  0.00     0.174 HD
BRANCH   8  16
HETATM   16  N4  UNL     1      39.446 -25.737  -2.213  1.00  0.00    -0.233 N
ATOM     17  H42 UNL     1      39.236 -25.005  -1.535  1.00  0.00     0.174 HD
ATOM     18  H41 UNL     1      38.605 -26.295  -2.358  1.00  0.00     0.174 HD
ENDBRANCH   8  16
ENDBRANCH   5   6
ENDBRANCH   4   5
ENDBRANCH   3   4
TORSDOF 4
ENDMDL