MODEL 1
REMARK VINA RESULT: -5.415806944      0.000      0.000
REMARK  4 active torsions:
REMARK  status: ('A' for Active; 'I' for Inactive)
REMARK    1  A    between atoms: C2_2  and  C3_3
REMARK    2  A    between atoms: C3_3  and  C4_4
REMARK    3  A    between atoms: N1_5  and  N2_7
REMARK    4  A    between atoms: N2_7  and  C5_9
ROOT
HETATM    1  C5  UNL     1      44.534 -23.991  -5.320  1.00  0.00     0.704 C
HETATM    2  N3  UNL     1      44.625 -23.055  -6.191  1.00  0.00    -0.223 N
ATOM      3  H3  UNL     1      43.845 -22.402  -6.273  1.00  0.00     0.177 HD
HETATM    4  C6  UNL     1      45.764 -22.864  -7.065  1.00  0.00     0.156 C
HETATM    5  C7  UNL     1      46.563 -24.158  -7.161  1.00  0.00     0.155 C
HETATM    6  N4  UNL     1      46.857 -24.536  -5.770  1.00  0.00    -0.125 NA
HETATM    7  N5  UNL     1      45.625 -24.897  -5.210  1.00  0.00    -0.135 N
ATOM      8  H5  UNL     1      45.512 -25.792  -4.732  1.00  0.00     0.201 HD
ENDROOT
BRANCH   1   9
HETATM    9  N2  UNL     1      43.396 -24.154  -4.472  1.00  0.00    -0.132 N
ATOM     10  H2  UNL     1      42.536 -23.659  -4.706  1.00  0.00     0.205 HD
BRANCH   9  11
HETATM   11  N1  UNL     1      43.417 -24.963  -3.339  1.00  0.00    -0.301 N
HETATM   12  C4  UNL     1      42.352 -25.555  -2.976  1.00  0.00     0.084 C
ATOM     13  H1  UNL     1      44.278 -25.079  -2.806  1.00  0.00     0.186 HD
BRANCH  12  14
HETATM   14  C3  UNL     1      41.110 -25.386  -3.748  1.00  0.00     0.072 C
BRANCH  14  15
HETATM   15  C2  UNL     1      39.937 -25.791  -2.934  1.00  0.00    -0.032 C
HETATM   16  C1  UNL     1      40.129 -26.574  -1.889  1.00  0.00     0.007 C
ENDBRANCH  14  15
ENDBRANCH  12  14
ENDBRANCH   9  11
ENDBRANCH   1   9
TORSDOF 4
ENDMDL