MODEL 3
REMARK VINA RESULT: -5.546754457      2.502      6.370
REMARK  3 active torsions:
REMARK  status: ('A' for Active; 'I' for Inactive)
REMARK    1  A    between atoms: C3_6  and  C4_7
REMARK    2  A    between atoms: C4_7  and  C5_8
REMARK    3  A    between atoms: C5_8  and  N2_9
ROOT
HETATM    1  N1  UNL     1     -27.891 -12.569 -42.186  1.00  0.00    -0.395 N
ATOM      2  H11 UNL     1     -28.550 -12.041 -42.759  1.00  0.00     0.156 HD
ATOM      3  H12 UNL     1     -28.187 -13.049 -41.337  1.00  0.00     0.156 HD
HETATM    4  C1  UNL     1     -26.661 -12.653 -42.507  1.00  0.00     0.094 A
HETATM    5  C2  UNL     1     -25.728 -13.400 -41.696  1.00  0.00     0.060 A
HETATM    6  C3  UNL     1     -26.023 -14.049 -40.585  1.00  0.00     0.007 C
HETATM    7  N3  UNL     1     -24.366 -13.410 -42.179  1.00  0.00    -0.329 N
ATOM      8  H3  UNL     1     -23.657 -13.919 -41.653  1.00  0.00     0.168 HD
HETATM    9  C6  UNL     1     -24.020 -12.784 -43.271  1.00  0.00     0.194 A
HETATM   10  N4  UNL     1     -22.671 -12.826 -43.702  1.00  0.00    -0.063 NA
HETATM   11  N5  UNL     1     -24.991 -12.061 -44.032  1.00  0.00    -0.317 N
ATOM     12  H5  UNL     1     -24.667 -11.590 -44.877  1.00  0.00     0.169 HD
HETATM   13  C7  UNL     1     -26.231 -11.956 -43.740  1.00  0.00     0.147 A
HETATM   14  N6  UNL     1     -27.164 -11.229 -44.521  1.00  0.00    -0.080 NA
ENDROOT
BRANCH   6  15
HETATM   15  C4  UNL     1     -25.003 -14.796 -39.805  1.00  0.00     0.056 C
BRANCH  15  16
HETATM   16  C5  UNL     1     -25.302 -14.786 -38.324  1.00  0.00     0.233 C
BRANCH  16  17
HETATM   17  N2  UNL     1     -24.267 -15.357 -37.527  1.00  0.00    -0.079 N
ATOM     18  H23 UNL     1     -23.365 -14.942 -37.758  1.00  0.00     0.274 HD
ATOM     19  H22 UNL     1     -24.350 -15.053 -36.557  1.00  0.00     0.274 HD
ATOM     20  H21 UNL     1     -24.220 -16.374 -37.582  1.00  0.00     0.274 HD
ENDBRANCH  16  17
ENDBRANCH  15  16
ENDBRANCH   6  15
TORSDOF 3
ENDMDL