MODEL 4
REMARK VINA RESULT: -4.933796335      1.739      2.027
REMARK  5 active torsions:
REMARK  status: ('A' for Active; 'I' for Inactive)
REMARK    1  A    between atoms: N1_1  and  C1_4
REMARK    2  A    between atoms: N5_14  and  C5_15
REMARK    3  A    between atoms: C5_15  and  C6_16
REMARK    4  A    between atoms: C6_16  and  C7_17
REMARK    5  A    between atoms: C7_17  and  N6_18
ROOT
HETATM    1  C1  UNL     1     -26.351 -13.373 -41.912  1.00  0.00     0.132 A
HETATM    2  N2  UNL     1     -26.127 -14.021 -43.079  1.00  0.00    -0.337 N
ATOM      3  H2  UNL     1     -26.498 -13.659 -43.958  1.00  0.00     0.168 HD
HETATM    4  C2  UNL     1     -25.404 -15.154 -43.052  1.00  0.00     0.183 A
HETATM    5  N3  UNL     1     -24.906 -15.649 -41.905  1.00  0.00    -0.335 N
ATOM      6  H3  UNL     1     -24.363 -16.512 -41.934  1.00  0.00     0.168 HD
HETATM    7  C3  UNL     1     -25.103 -15.038 -40.716  1.00  0.00     0.155 A
HETATM    8  C4  UNL     1     -25.836 -13.880 -40.711  1.00  0.00     0.138 A
HETATM    9  N4  UNL     1     -25.679 -13.796 -39.407  1.00  0.00    -0.290 N
ATOM     10  H4  UNL     1     -25.981 -13.137 -38.689  1.00  0.00     0.187 HD
HETATM   11  N5  UNL     1     -24.974 -14.908 -39.407  1.00  0.00    -0.274 N
ENDROOT
BRANCH  11  12
HETATM   12  C5  UNL     1     -24.317 -15.680 -38.368  1.00  0.00     0.152 C
BRANCH  12  13
HETATM   13  C6  UNL     1     -25.172 -16.832 -37.899  1.00  0.00     0.049 C
BRANCH  13  14
HETATM   14  C7  UNL     1     -25.910 -16.480 -36.647  1.00  0.00     0.231 C
BRANCH  14  15
HETATM   15  N6  UNL     1     -25.186 -16.727 -35.445  1.00  0.00    -0.079 N
ATOM     16  H63 UNL     1     -25.536 -17.569 -34.986  1.00  0.00     0.274 HD
ATOM     17  H62 UNL     1     -24.235 -17.026 -35.658  1.00  0.00     0.274 HD
ATOM     18  H61 UNL     1     -25.173 -15.945 -34.790  1.00  0.00     0.274 HD
ENDBRANCH  14  15
ENDBRANCH  13  14
ENDBRANCH  12  13
ENDBRANCH  11  12
BRANCH   1  19
HETATM   19  N1  UNL     1     -27.034 -12.285 -41.865  1.00  0.00    -0.383 N
ATOM     20  H12 UNL     1     -26.694 -11.483 -42.395  1.00  0.00     0.157 HD
ATOM     21  H11 UNL     1     -27.891 -12.214 -41.318  1.00  0.00     0.157 HD
ENDBRANCH   1  19
TORSDOF 5
ENDMDL