MODEL 3
REMARK VINA RESULT: -4.448909742      1.192      2.002
REMARK  6 active torsions:
REMARK  status: ('A' for Active; 'I' for Inactive)
REMARK    1  A    between atoms: N1_1  and  C1_4
REMARK    2  A    between atoms: N2_7  and  C4_8
REMARK    3  A    between atoms: C4_8  and  C5_9
REMARK    4  A    between atoms: C5_9  and  C6_10
REMARK    5  A    between atoms: C6_10  and  N3_11
REMARK    6  A    between atoms: C7_15  and  N4_16
ROOT
HETATM    1  C1  UNL     1     -24.657 -16.729 -35.894  1.00  0.00     0.116 A
HETATM    2  C2  UNL     1     -23.623 -16.742 -36.803  1.00  0.00     0.066 A
HETATM    3  C3  UNL     1     -23.865 -16.376 -38.119  1.00  0.00     0.112 A
HETATM    4  N2  UNL     1     -25.096 -16.005 -38.526  1.00  0.00    -0.194 N
HETATM    5  C7  UNL     1     -26.066 -16.010 -37.602  1.00  0.00     0.679 A
HETATM    6  N5  UNL     1     -25.859 -16.364 -36.312  1.00  0.00    -0.177 N
ATOM      7  H5  UNL     1     -26.638 -16.349 -35.654  1.00  0.00     0.185 HD
ENDROOT
BRANCH   4   8
HETATM    8  C4  UNL     1     -25.358 -15.628 -39.868  1.00  0.00     0.148 C
BRANCH   8   9
HETATM    9  C5  UNL     1     -24.702 -14.349 -40.312  1.00  0.00     0.048 C
BRANCH   9  10
HETATM   10  C6  UNL     1     -25.741 -13.244 -40.351  1.00  0.00     0.231 C
BRANCH  10  11
HETATM   11  N3  UNL     1     -26.943 -13.781 -40.999  1.00  0.00    -0.079 N
ATOM     12  H33 UNL     1     -27.575 -13.051 -41.327  1.00  0.00     0.274 HD
ATOM     13  H32 UNL     1     -26.747 -14.208 -41.904  1.00  0.00     0.274 HD
ATOM     14  H31 UNL     1     -27.389 -14.425 -40.346  1.00  0.00     0.274 HD
ENDBRANCH  10  11
ENDBRANCH   9  10
ENDBRANCH   8   9
ENDBRANCH   4   8
BRANCH   5  15
HETATM   15  N4  UNL     1     -27.245 -15.661 -37.976  1.00  0.00    -0.234 N
ATOM     16  H42 UNL     1     -27.515 -14.679 -37.916  1.00  0.00     0.174 HD
ATOM     17  H41 UNL     1     -27.868 -16.392 -38.319  1.00  0.00     0.174 HD
ENDBRANCH   5  15
BRANCH   1  18
HETATM   18  N1  UNL     1     -24.467 -17.069 -34.644  1.00  0.00    -0.385 N
ATOM     19  H12 UNL     1     -24.626 -16.394 -33.897  1.00  0.00     0.157 HD
ATOM     20  H11 UNL     1     -24.160 -18.009 -34.392  1.00  0.00     0.157 HD
ENDBRANCH   1  18
TORSDOF 6
ENDMDL