MODEL 2
REMARK VINA RESULT: -4.674180885      7.768      8.834
REMARK  4 active torsions:
REMARK  status: ('A' for Active; 'I' for Inactive)
REMARK    1  A    between atoms: C2_7  and  S1_8
REMARK    2  A    between atoms: S1_8  and  C3_9
REMARK    3  A    between atoms: C3_9  and  C4_10
REMARK    4  A    between atoms: C4_10  and  N3_11
ROOT
HETATM    1  N1  UNL     1     -27.079 -12.917 -42.634  1.00  0.00    -0.233 N
ATOM      2  H11 UNL     1     -26.841 -12.343 -43.443  1.00  0.00     0.174 HD
ATOM      3  H12 UNL     1     -28.077 -13.102 -42.735  1.00  0.00     0.174 HD
HETATM    4  C1  UNL     1     -26.362 -13.359 -41.659  1.00  0.00     0.692 A
HETATM    5  N2  UNL     1     -26.676 -14.113 -40.594  1.00  0.00    -0.168 N
ATOM      6  H2  UNL     1     -27.609 -14.474 -40.396  1.00  0.00     0.186 HD
HETATM    7  C2  UNL     1     -25.595 -14.330 -39.826  1.00  0.00     0.174 A
HETATM    8  N4  UNL     1     -24.576 -13.696 -40.425  1.00  0.00    -0.265 N
ATOM      9  H4  UNL     1     -23.613 -13.670 -40.088  1.00  0.00     0.189 HD
HETATM   10  N5  UNL     1     -25.025 -13.111 -41.523  1.00  0.00    -0.130 N
ATOM     11  H5  UNL     1     -24.460 -12.559 -42.169  1.00  0.00     0.205 HD
ENDROOT
BRANCH   7  12
HETATM   12  S1  UNL     1     -25.518 -15.277 -38.291  1.00  0.00    -0.090 SA
BRANCH  12  13
HETATM   13  C3  UNL     1     -24.665 -16.829 -38.718  1.00  0.00     0.109 C
BRANCH  13  14
HETATM   14  C4  UNL     1     -23.416 -16.973 -37.841  1.00  0.00     0.240 C
BRANCH  14  15
HETATM   15  N3  UNL     1     -23.156 -15.656 -37.294  1.00  0.00    -0.079 N
ATOM     16  H33 UNL     1     -22.282 -15.245 -37.623  1.00  0.00     0.274 HD
ATOM     17  H32 UNL     1     -23.776 -14.934 -37.660  1.00  0.00     0.274 HD
ATOM     18  H31 UNL     1     -23.202 -15.756 -36.280  1.00  0.00     0.274 HD
ENDBRANCH  14  15
ENDBRANCH  13  14
ENDBRANCH  12  13
ENDBRANCH   7  12
TORSDOF 4
ENDMDL