MODEL 2
REMARK VINA RESULT: -5.420504668      1.806      2.070
REMARK  4 active torsions:
REMARK  status: ('A' for Active; 'I' for Inactive)
REMARK    1  A    between atoms: N1_1  and  C1_4
REMARK    2  A    between atoms: C2_7  and  C3_8
REMARK    3  A    between atoms: C3_8  and  N3_9
REMARK    4  A    between atoms: N3_9  and  C4_12
ROOT
HETATM    1  C1  UNL     1     -25.766 -16.142 -36.776  1.00  0.00     0.697 A
HETATM    2  N2  UNL     1     -25.166 -15.367 -37.706  1.00  0.00    -0.169 N
ATOM      3  H2  UNL     1     -24.195 -15.057 -37.676  1.00  0.00     0.186 HD
HETATM    4  C2  UNL     1     -26.042 -15.066 -38.677  1.00  0.00     0.188 A
HETATM    5  O1  UNL     1     -27.166 -15.655 -38.328  1.00  0.00    -0.207 OA
HETATM    6  N5  UNL     1     -27.035 -16.301 -37.207  1.00  0.00    -0.090 N
ATOM      7  H5  UNL     1     -27.764 -16.834 -36.736  1.00  0.00     0.213 HD
ENDROOT
BRANCH   4   8
HETATM    8  C3  UNL     1     -25.816 -14.245 -39.893  1.00  0.00     0.319 C
BRANCH   8   9
HETATM    9  N3  UNL     1     -26.176 -14.939 -41.100  1.00  0.00    -0.060 N
ATOM     10  H32 UNL     1     -26.487 -15.890 -40.900  1.00  0.00     0.278 HD
ATOM     11  H31 UNL     1     -27.038 -14.566 -41.496  1.00  0.00     0.278 HD
BRANCH   9  12
HETATM   12  C4  UNL     1     -25.125 -14.933 -42.057  1.00  0.00     0.237 C
HETATM   13  C5  UNL     1     -25.087 -16.218 -42.914  1.00  0.00     0.267 C
HETATM   14  N4  UNL     1     -25.924 -15.533 -43.899  1.00  0.00    -0.071 N
HETATM   15  C6  UNL     1     -25.382 -14.288 -43.402  1.00  0.00     0.267 C
ATOM     16  H42 UNL     1     -25.874 -15.772 -44.890  1.00  0.00     0.277 HD
ATOM     17  H41 UNL     1     -26.931 -15.692 -43.936  1.00  0.00     0.277 HD
ENDBRANCH   9  12
ENDBRANCH   8   9
ENDBRANCH   4   8
BRANCH   1  18
HETATM   18  N1  UNL     1     -25.318 -16.650 -35.661  1.00  0.00    -0.233 N
ATOM     19  H12 UNL     1     -25.108 -16.090 -34.835  1.00  0.00     0.174 HD
ATOM     20  H11 UNL     1     -25.081 -17.609 -35.406  1.00  0.00     0.174 HD
ENDBRANCH   1  18
TORSDOF 4
ENDMDL