MODEL 5
REMARK VINA RESULT: -4.970889926      1.288      5.273
REMARK  3 active torsions:
REMARK  status: ('A' for Active; 'I' for Inactive)
REMARK    1  A    between atoms: N4_13  and  C6_14
REMARK    2  A    between atoms: C6_14  and  C7_15
REMARK    3  A    between atoms: C7_15  and  N5_16
ROOT
HETATM    1  N1  UNL     1     -26.251 -13.075 -43.453  1.00  0.00    -0.384 N
ATOM      2  H11 UNL     1     -25.928 -13.368 -44.375  1.00  0.00     0.157 HD
ATOM      3  H12 UNL     1     -26.790 -12.211 -43.390  1.00  0.00     0.157 HD
HETATM    4  C1  UNL     1     -25.986 -13.773 -42.379  1.00  0.00     0.116 A
HETATM    5  C2  UNL     1     -26.422 -13.377 -41.133  1.00  0.00     0.138 A
HETATM    6  N2  UNL     1     -26.150 -14.097 -40.025  1.00  0.00    -0.345 N
ATOM      7  H2  UNL     1     -26.489 -13.774 -39.119  1.00  0.00     0.167 HD
HETATM    8  C3  UNL     1     -25.439 -15.234 -40.101  1.00  0.00     0.153 A
HETATM    9  C4  UNL     1     -25.000 -15.636 -41.350  1.00  0.00     0.153 A
HETATM   10  N3  UNL     1     -24.330 -16.782 -41.133  1.00  0.00    -0.335 N
ATOM     11  H3  UNL     1     -23.880 -17.334 -41.863  1.00  0.00     0.168 HD
HETATM   12  C5  UNL     1     -24.332 -17.104 -39.830  1.00  0.00     0.186 A
HETATM   13  N4  UNL     1     -25.022 -16.142 -39.188  1.00  0.00    -0.325 N
HETATM   14  N6  UNL     1     -25.274 -14.912 -42.462  1.00  0.00    -0.325 N
ATOM     15  H6  UNL     1     -24.937 -15.232 -43.370  1.00  0.00     0.169 HD
ENDROOT
BRANCH  13  16
HETATM   16  C6  UNL     1     -25.272 -16.091 -37.763  1.00  0.00     0.158 C
BRANCH  16  17
HETATM   17  C7  UNL     1     -24.071 -16.709 -37.057  1.00  0.00     0.249 C
BRANCH  17  18
HETATM   18  N5  UNL     1     -24.348 -16.774 -35.640  1.00  0.00    -0.078 N
ATOM     19  H53 UNL     1     -23.535 -17.062 -35.096  1.00  0.00     0.274 HD
ATOM     20  H52 UNL     1     -24.477 -15.852 -35.225  1.00  0.00     0.274 HD
ATOM     21  H51 UNL     1     -25.152 -17.384 -35.491  1.00  0.00     0.274 HD
ENDBRANCH  17  18
ENDBRANCH  16  17
ENDBRANCH  13  16
TORSDOF 3
ENDMDL