MODEL 3
REMARK VINA RESULT: -4.908061955      1.443      5.122
REMARK  4 active torsions:
REMARK  status: ('A' for Active; 'I' for Inactive)
REMARK    1  A    between atoms: N1_1  and  C1_4
REMARK    2  A    between atoms: N5_15  and  C6_16
REMARK    3  A    between atoms: C6_16  and  C7_17
REMARK    4  A    between atoms: C7_17  and  N6_18
ROOT
HETATM    1  C1  UNL     1     -25.142 -15.578 -38.312  1.00  0.00     0.115 A
HETATM    2  N2  UNL     1     -24.483 -16.732 -38.089  1.00  0.00    -0.338 N
ATOM      3  H2  UNL     1     -24.282 -17.025 -37.133  1.00  0.00     0.168 HD
HETATM    4  C2  UNL     1     -24.092 -17.496 -39.116  1.00  0.00     0.183 A
HETATM    5  N3  UNL     1     -24.377 -17.075 -40.361  1.00  0.00    -0.337 N
ATOM      6  H3  UNL     1     -24.079 -17.655 -41.146  1.00  0.00     0.168 HD
HETATM    7  C3  UNL     1     -25.031 -15.931 -40.631  1.00  0.00     0.138 A
HETATM    8  C4  UNL     1     -25.441 -15.131 -39.585  1.00  0.00     0.070 A
HETATM    9  C5  UNL     1     -26.071 -14.050 -40.140  1.00  0.00     0.126 A
HETATM   10  N4  UNL     1     -26.025 -14.224 -41.483  1.00  0.00    -0.307 N
ATOM     11  H4  UNL     1     -26.417 -13.574 -42.164  1.00  0.00     0.186 HD
HETATM   12  N5  UNL     1     -25.407 -15.342 -41.791  1.00  0.00    -0.275 N
ENDROOT
BRANCH  12  13
HETATM   13  C6  UNL     1     -25.127 -15.927 -43.082  1.00  0.00     0.178 C
BRANCH  13  14
HETATM   14  C7  UNL     1     -25.127 -14.897 -44.187  1.00  0.00     0.251 C
BRANCH  14  15
HETATM   15  N6  UNL     1     -26.195 -15.267 -45.116  1.00  0.00    -0.078 N
ATOM     16  H63 UNL     1     -26.759 -16.050 -44.787  1.00  0.00     0.274 HD
ATOM     17  H62 UNL     1     -26.944 -14.576 -45.160  1.00  0.00     0.274 HD
ATOM     18  H61 UNL     1     -25.757 -15.441 -46.020  1.00  0.00     0.274 HD
ENDBRANCH  14  15
ENDBRANCH  13  14
ENDBRANCH  12  13
BRANCH   1  19
HETATM   19  N1  UNL     1     -25.502 -14.870 -37.310  1.00  0.00    -0.385 N
ATOM     20  H12 UNL     1     -26.469 -14.554 -37.254  1.00  0.00     0.157 HD
ATOM     21  H11 UNL     1     -24.809 -14.640 -36.596  1.00  0.00     0.157 HD
ENDBRANCH   1  19
TORSDOF 4
ENDMDL