MODEL 3
REMARK VINA RESULT: -4.737428400      1.772      4.174
REMARK  4 active torsions:
REMARK  status: ('A' for Active; 'I' for Inactive)
REMARK    1  A    between atoms: N1_1  and  C1_4
REMARK    2  A    between atoms: N3_7  and  C2_8
REMARK    3  A    between atoms: C2_8  and  C3_9
REMARK    4  A    between atoms: C3_9  and  N4_10
ROOT
HETATM    1  C1  UNL     1     -25.092 -14.258 -40.324  1.00  0.00     0.145 A
HETATM    2  N2  UNL     1     -25.482 -12.989 -40.558  1.00  0.00    -0.280 N
ATOM      3  H2  UNL     1     -25.500 -12.250 -39.857  1.00  0.00     0.189 HD
HETATM    4  N3  UNL     1     -25.837 -12.834 -41.823  1.00  0.00    -0.271 N
HETATM    5  C4  UNL     1     -25.676 -14.025 -42.428  1.00  0.00     0.154 A
HETATM    6  N5  UNL     1     -25.793 -14.704 -43.608  1.00  0.00    -0.335 N
ATOM      7  H5  UNL     1     -26.116 -14.304 -44.489  1.00  0.00     0.168 HD
HETATM    8  C5  UNL     1     -25.415 -15.978 -43.429  1.00  0.00     0.182 A
HETATM    9  N6  UNL     1     -25.056 -16.110 -42.121  1.00  0.00    -0.346 N
ATOM     10  H6  UNL     1     -24.722 -16.966 -41.676  1.00  0.00     0.167 HD
HETATM   11  C6  UNL     1     -25.216 -14.923 -41.519  1.00  0.00     0.124 A
ENDROOT
BRANCH   4  12
HETATM   12  C2  UNL     1     -26.310 -11.652 -42.484  1.00  0.00     0.178 C
BRANCH  12  13
HETATM   13  C3  UNL     1     -27.803 -11.631 -42.681  1.00  0.00     0.251 C
BRANCH  13  14
HETATM   14  N4  UNL     1     -28.215 -11.865 -44.018  1.00  0.00    -0.078 N
ATOM     15  H43 UNL     1     -27.738 -11.227 -44.655  1.00  0.00     0.274 HD
ATOM     16  H42 UNL     1     -27.847 -12.754 -44.355  1.00  0.00     0.274 HD
ATOM     17  H41 UNL     1     -29.224 -11.820 -44.157  1.00  0.00     0.274 HD
ENDBRANCH  13  14
ENDBRANCH  12  13
ENDBRANCH   4  12
BRANCH   1  18
HETATM   18  N1  UNL     1     -24.680 -14.749 -39.183  1.00  0.00    -0.382 N
ATOM     19  H12 UNL     1     -24.933 -14.432 -38.247  1.00  0.00     0.157 HD
ATOM     20  H11 UNL     1     -24.038 -15.532 -39.055  1.00  0.00     0.157 HD
ENDBRANCH   1  18
TORSDOF 4
ENDMDL