MODEL 4
REMARK VINA RESULT: -8.263196051      2.527      4.458
REMARK  2 active torsions:
REMARK  status: ('A' for Active; 'I' for Inactive)
REMARK    1  A    between atoms: C7_8  and  N1_10
REMARK    2  A    between atoms: C9_12  and  C10_13
ROOT
HETATM    1  N1  UNL     1       2.522  68.140 191.732  1.00  0.00    -0.315 N
HETATM    2  C8  UNL     1       3.390  67.564 192.570  1.00  0.00     0.117 A
HETATM    3  C9  UNL     1       3.866  66.276 192.495  1.00  0.00     0.107 A
HETATM    4  C11 UNL     1       3.382  65.531 191.440  1.00  0.00     0.211 A
HETATM    5  O3  UNL     1       3.709  64.351 191.227  1.00  0.00    -0.286 OA
HETATM    6  C12 UNL     1       2.469  66.095 190.534  1.00  0.00     0.103 A
HETATM    7  S1  UNL     1       1.641  65.559 189.139  1.00  0.00    -0.049 SA
HETATM    8  C13 UNL     1       0.782  66.996 188.786  1.00  0.00     0.161 A
HETATM    9  N2  UNL     1      -0.144  67.262 187.701  1.00  0.00    -0.074 NA
HETATM   10  N3  UNL     1       1.170  67.795 189.741  1.00  0.00    -0.324 N
ATOM     11  H3  UNL     1       0.806  68.747 189.779  1.00  0.00     0.169 HD
HETATM   12  C14 UNL     1       2.028  67.388 190.662  1.00  0.00     0.132 A
ENDROOT
BRANCH   1  13
HETATM   13  C7  UNL     1       2.069  69.467 191.861  1.00  0.00     0.144 C
HETATM   14  C2  UNL     1       2.314  70.195 193.164  1.00  0.00    -0.000 C
HETATM   15  C1  UNL     1       2.440  69.502 194.404  1.00  0.00     0.019 C
HETATM   16  C3  UNL     1       1.289  71.330 193.006  1.00  0.00     0.015 C
HETATM   17  C6  UNL     1       3.498  70.855 192.494  1.00  0.00     0.042 C
HETATM   18  C4  UNL     1       1.576  71.700 191.551  1.00  0.00     0.030 C
HETATM   19  C5  UNL     1       2.679  70.645 191.251  1.00  0.00     0.078 C
HETATM   20 CL1  UNL     1       3.365  70.693 189.697  1.00  0.00    -0.115 Cl
HETATM   21 CL2  UNL     1       0.285  69.511 191.543  1.00  0.00    -0.092 Cl
ENDBRANCH   1  13
BRANCH   3  22
HETATM   22  C10 UNL     1       4.806  65.729 193.445  1.00  0.00     0.214 C
HETATM   23  O1  UNL     1       6.043  65.812 193.244  1.00  0.00    -0.644 OA
HETATM   24  O2  UNL     1       4.363  65.101 194.599  1.00  0.00    -0.644 OA
ENDBRANCH   3  22
TORSDOF 2
ENDMDL