MODEL 3
REMARK VINA RESULT: -9.035351205      3.067      6.880
REMARK  3 active torsions:
REMARK  status: ('A' for Active; 'I' for Inactive)
REMARK    1  A    between atoms: C3_3  and  O1_4
REMARK    2  A    between atoms: C5_7  and  N1_8
REMARK    3  A    between atoms: C11_15  and  N2_16
ROOT
HETATM    1  C1  UNL     1       0.396  66.979 188.012  1.00  0.00     0.100 C
HETATM    2  C2  UNL     1       1.479  66.576 188.426  1.00  0.00    -0.142 C
HETATM    3  C3  UNL     1       2.780  66.125 188.928  1.00  0.00     0.177 C
HETATM    4  C4  UNL     1       3.869  66.426 187.893  1.00  0.00     0.097 C
HETATM    5  C5  UNL     1       5.137  65.734 188.233  1.00  0.00     0.251 C
HETATM    6  C10 UNL     1       5.038  64.410 188.869  1.00  0.00     0.213 C
HETATM    7  O2  UNL     1       3.961  64.151 189.647  1.00  0.00    -0.333 OA
HETATM    8  C11 UNL     1       2.790  64.639 189.163  1.00  0.00     0.173 C
ENDROOT
BRANCH   3   9
HETATM    9  O1  UNL     1       3.102  66.935 189.982  1.00  0.00    -0.371 OA
ATOM     10  H1  UNL     1       3.155  66.379 190.751  1.00  0.00     0.212 HD
ENDBRANCH   3   9
BRANCH   8  11
HETATM   11  N2  UNL     1       1.547  64.021 189.407  1.00  0.00    -0.284 N
HETATM   12  C12 UNL     1       0.807  64.188 190.557  1.00  0.00     0.191 A
HETATM   13  N3  UNL     1      -0.314  63.492 190.533  1.00  0.00    -0.347 N
HETATM   14  C13 UNL     1      -0.323  62.849 189.343  1.00  0.00     0.101 A
ATOM     15  H3  UNL     1      -1.026  63.448 191.261  1.00  0.00     0.167 HD
HETATM   16  C14 UNL     1      -1.260  61.987 188.801  1.00  0.00     0.132 A
HETATM   17  C17 UNL     1       0.843  63.181 188.639  1.00  0.00     0.095 A
HETATM   18 CL1  UNL     1      -2.704  61.608 189.732  1.00  0.00    -0.062 Cl
HETATM   19  N4  UNL     1      -1.049  61.464 187.588  1.00  0.00    -0.353 N
HETATM   20  C15 UNL     1       0.050  61.763 186.900  1.00  0.00     0.115 A
ATOM     21  H4  UNL     1      -1.738  60.828 187.186  1.00  0.00     0.166 HD
HETATM   22  C16 UNL     1       1.026  62.626 187.399  1.00  0.00     0.079 A
HETATM   23 CL2  UNL     1       2.441  62.991 186.467  1.00  0.00    -0.080 Cl
ENDBRANCH   8  11
BRANCH   5  24
HETATM   24  N1  UNL     1       6.071  65.633 187.145  1.00  0.00     0.095 N
HETATM   25  C6  UNL     1       6.794  66.856 186.874  1.00  0.00     0.273 C
HETATM   26  C7  UNL     1       7.663  66.386 185.699  1.00  0.00     0.032 C
HETATM   27  C8  UNL     1       6.705  65.478 184.943  1.00  0.00     0.032 C
HETATM   28  C9  UNL     1       5.489  65.310 185.867  1.00  0.00     0.273 C
ENDBRANCH   5  24
TORSDOF 3
ENDMDL