MODEL 1
REMARK VINA RESULT: -9.241304844      0.000      0.000
REMARK  5 active torsions:
REMARK  status: ('A' for Active; 'I' for Inactive)
REMARK    1  A    between atoms: C2_2  and  O1_4
REMARK    2  A    between atoms: O1_4  and  C4_5
REMARK       I    between atoms: C4_5  and  N1_7
REMARK    3  A    between atoms: N2_10  and  C7_11
REMARK    4  A    between atoms: C8_12  and  O3_13
REMARK    5  A    between atoms: C11_17  and  O4_18
ROOT
HETATM    1  C7  UNL     1       0.713  63.659 189.642  1.00  0.00     0.091 A
HETATM    2  C8  UNL     1      -0.531  63.198 190.002  1.00  0.00     0.128 A
HETATM    3  C9  UNL     1      -1.190  62.320 189.144  1.00  0.00     0.113 A
HETATM    4  C10 UNL     1      -0.590  61.934 187.964  1.00  0.00     0.015 A
HETATM    5  C11 UNL     1       0.659  62.406 187.619  1.00  0.00     0.099 A
HETATM    6  C12 UNL     1       1.323  63.271 188.449  1.00  0.00     0.097 A
HETATM    7 CL1  UNL     1       2.906  63.854 187.988  1.00  0.00    -0.079 Cl
HETATM    8  C13 UNL     1      -1.558  61.000 187.293  1.00  0.00     0.071 C
HETATM    9  C14 UNL     1      -2.386  60.529 188.465  1.00  0.00     0.180 C
HETATM   10  O5  UNL     1      -2.434  61.717 189.268  1.00  0.00    -0.347 OA
ENDROOT
BRANCH   1  11
HETATM   11  N2  UNL     1       1.409  64.555 190.495  1.00  0.00    -0.371 N
HETATM   12  C6  UNL     1       1.229  65.991 190.457  1.00  0.00     0.143 C
HETATM   13  C5  UNL     1       1.583  66.622 191.768  1.00  0.00     0.151 C
HETATM   14  N1  UNL     1       2.927  66.230 192.155  1.00  0.00    -0.294 N
HETATM   15  C4  UNL     1       3.736  67.028 193.001  1.00  0.00     0.365 C
HETATM   16  C16 UNL     1       3.467  64.979 191.660  1.00  0.00     0.293 C
HETATM   17  O2  UNL     1       4.885  66.626 193.292  1.00  0.00    -0.238 OA
HETATM   18  C15 UNL     1       2.349  64.001 191.454  1.00  0.00     0.182 C
HETATM   19  F1  UNL     1       4.381  64.415 192.506  1.00  0.00    -0.225 F
BRANCH  15  20
HETATM   20  O1  UNL     1       3.329  68.237 193.532  1.00  0.00    -0.299 OA
BRANCH  20  21
HETATM   21  C2  UNL     1       3.264  69.434 192.784  1.00  0.00     0.125 C
HETATM   22  C1  UNL     1       4.421  70.346 193.022  1.00  0.00     0.040 C
HETATM   23  C3  UNL     1       1.997  70.157 193.216  1.00  0.00     0.040 C
ENDBRANCH  20  21
ENDBRANCH  15  20
ENDBRANCH   1  11
BRANCH   2  24
HETATM   24  O3  UNL     1      -1.144  63.584 191.193  1.00  0.00    -0.356 OA
ATOM     25  H3  UNL     1      -1.948  64.091 191.203  1.00  0.00     0.218 HD
ENDBRANCH   2  24
BRANCH   5  26
HETATM   26  O4  UNL     1       1.195  61.972 186.418  1.00  0.00    -0.358 OA
ATOM     27  H4  UNL     1       1.996  62.388 186.120  1.00  0.00     0.217 HD
ENDBRANCH   5  26
TORSDOF 5
ENDMDL