MODEL 1
REMARK VINA RESULT: -7.321212500      0.000      0.000
REMARK  6 active torsions:
REMARK  status: ('A' for Active; 'I' for Inactive)
REMARK    1  A    between atoms: C2_2  and  N1_3
REMARK    2  A    between atoms: C3_4  and  N2_5
REMARK    3  A    between atoms: N2_5  and  N3_7
REMARK    4  A    between atoms: C4_9  and  O1_11
REMARK    5  A    between atoms: O1_11  and  C6_12
REMARK    6  A    between atoms: C6_12  and  C7_14
ROOT
HETATM    1  N1  UNL     1       1.285  63.201 188.242  1.00  0.00    -0.145 N
HETATM    2  C3  UNL     1       0.940  63.722 189.433  1.00  0.00     0.702 A
HETATM    3  N4  UNL     1      -0.219  63.375 190.045  1.00  0.00    -0.193 N
ATOM      4  H4  UNL     1      -0.440  63.796 190.947  1.00  0.00     0.184 HD
HETATM    5  C9  UNL     1      -1.090  62.499 189.510  1.00  0.00     0.045 A
HETATM    6  C10 UNL     1      -2.368  62.124 190.197  1.00  0.00     0.070 C
HETATM    7  C11 UNL     1      -0.754  61.953 188.289  1.00  0.00     0.102 A
HETATM    8 BR1  UNL     1      -1.927  60.696 187.445  1.00  0.00    -0.043 Br
HETATM    9  C12 UNL     1       0.433  62.320 187.681  1.00  0.00     0.281 A
HETATM   10  O2  UNL     1       0.764  61.842 186.574  1.00  0.00    -0.266 OA
ENDROOT
BRANCH   2  11
HETATM   11  N2  UNL     1       1.712  64.557 190.000  1.00  0.00    -0.130 N
ATOM     12  H2  UNL     1       2.716  64.434 189.870  1.00  0.00     0.205 HD
BRANCH  11  13
HETATM   13  N3  UNL     1       1.292  65.627 190.784  1.00  0.00    -0.269 N
HETATM   14  C4  UNL     1       1.776  65.723 191.974  1.00  0.00     0.136 C
HETATM   15  C5  UNL     1       2.751  64.741 192.515  1.00  0.00     0.099 C
ATOM     16  H3  UNL     1       0.624  66.311 190.430  1.00  0.00     0.189 HD
BRANCH  14  17
HETATM   17  O1  UNL     1       1.348  66.793 192.739  1.00  0.00    -0.285 OA
BRANCH  17  18
HETATM   18  C6  UNL     1       1.853  68.046 192.469  1.00  0.00     0.144 C
HETATM   19  S1  UNL     1       3.422  68.309 192.100  1.00  0.00    -0.052 SA
BRANCH  18  20
HETATM   20  C7  UNL     1       0.937  69.186 192.519  1.00  0.00     0.061 C
HETATM   21  C8  UNL     1       0.322  69.616 191.435  1.00  0.00     0.088 C
HETATM   22 CL1  UNL     1       0.516  68.900 189.857  1.00  0.00    -0.097 Cl
ENDBRANCH  18  20
ENDBRANCH  17  18
ENDBRANCH  14  17
ENDBRANCH  11  13
ENDBRANCH   2  11
BRANCH   1  23
HETATM   23  C2  UNL     1       2.514  63.607 187.657  1.00  0.00     0.146 C
HETATM   24  C1  UNL     1       2.408  64.696 186.636  1.00  0.00     0.027 C
ENDBRANCH   1  23
TORSDOF 6
ENDMDL