MODEL 2
REMARK VINA RESULT: -8.090835967      2.786      3.768
REMARK  3 active torsions:
REMARK  status: ('A' for Active; 'I' for Inactive)
REMARK       I    between atoms: C1_2  and  N1_3
REMARK    1  A    between atoms: C1_2  and  C11_18
REMARK    2  A    between atoms: N1_3  and  C2_5
REMARK    3  A    between atoms: C4_8  and  O2_9
ROOT
HETATM    1  C2  UNL     1       1.966  67.814 190.159  1.00  0.00     0.388 C
HETATM    2  S1  UNL     1       2.041  67.107 191.765  1.00  0.00    -0.111 SA
HETATM    3  C3  UNL     1       3.460  67.457 192.778  1.00  0.00     0.110 C
HETATM    4  C4  UNL     1       3.510  68.931 193.241  1.00  0.00     0.133 C
HETATM    5  C5  UNL     1       2.852  69.639 192.134  1.00  0.00     0.049 C
HETATM    6  C6  UNL     1       2.799  71.118 192.124  1.00  0.00     0.015 C
HETATM    7  C7  UNL     1       2.734  71.298 190.594  1.00  0.00     0.016 C
HETATM    8  C8  UNL     1       4.110  70.659 190.322  1.00  0.00     0.043 C
HETATM    9  C9  UNL     1       3.645  69.293 190.871  1.00  0.00     0.233 C
HETATM   10  N2  UNL     1       2.638  69.014 189.885  1.00  0.00     0.126 N
HETATM   11  C10 UNL     1       1.849  70.235 189.965  1.00  0.00     0.281 C
ENDROOT
BRANCH   1  12
HETATM   12  N1  UNL     1       2.461  66.810 189.201  1.00  0.00    -0.318 N
HETATM   13  C1  UNL     1       1.617  66.106 188.343  1.00  0.00     0.264 C
HETATM   14  O1  UNL     1       0.356  66.381 188.427  1.00  0.00    -0.267 OA
ATOM     15  H1  UNL     1       3.463  66.622 189.164  1.00  0.00     0.165 HD
BRANCH  13  16
HETATM   16  C11 UNL     1       2.004  65.093 187.360  1.00  0.00     0.114 A
HETATM   17  S2  UNL     1       2.996  65.365 185.948  1.00  0.00    -0.051 SA
HETATM   18  C12 UNL     1       2.998  63.778 185.332  1.00  0.00     0.147 A
HETATM   19 CL1  UNL     1       3.789  63.139 183.875  1.00  0.00    -0.056 Cl
HETATM   20  N3  UNL     1       2.259  63.134 186.213  1.00  0.00    -0.330 N
HETATM   21  C13 UNL     1       1.752  63.764 187.231  1.00  0.00     0.127 A
ATOM     22  H3  UNL     1       2.084  62.136 186.095  1.00  0.00     0.168 HD
HETATM   23 CL2  UNL     1       0.752  62.872 188.418  1.00  0.00    -0.063 Cl
ENDBRANCH  13  16
ENDBRANCH   1  12
BRANCH   4  24
HETATM   24  O2  UNL     1       2.906  69.101 194.464  1.00  0.00    -0.394 OA
ATOM     25  H2  UNL     1       2.464  69.940 194.523  1.00  0.00     0.210 HD
ENDBRANCH   4  24
TORSDOF 3
ENDMDL