MODEL 5
REMARK VINA RESULT: -7.943679697      2.734      3.860
REMARK  4 active torsions:
REMARK  status: ('A' for Active; 'I' for Inactive)
REMARK    1  A    between atoms: O1_2  and  C2_3
REMARK    2  A    between atoms: C5_7  and  C6_8
REMARK    3  A    between atoms: N1_11  and  C9_13
REMARK    4  A    between atoms: C9_13  and  S1_17
ROOT
HETATM    1  C6  UNL     1       3.201  67.378 188.336  1.00  0.00     0.100 C
HETATM    2  C7  UNL     1       3.735  67.077 189.694  1.00  0.00     0.091 C
HETATM    3  C8  UNL     1       2.947  67.878 190.664  1.00  0.00     0.081 C
HETATM    4  N1  UNL     1       3.020  67.821 191.944  1.00  0.00    -0.327 N
ATOM      5  H1  UNL     1       2.414  68.433 192.492  1.00  0.00     0.169 HD
HETATM    6  N3  UNL     1       2.090  68.726 189.913  1.00  0.00    -0.346 N
ATOM      7  H3  UNL     1       1.580  69.522 190.293  1.00  0.00     0.163 HD
HETATM    8  C11 UNL     1       2.045  68.294 188.518  1.00  0.00     0.220 C
HETATM    9  C12 UNL     1       2.237  69.498 187.676  1.00  0.00     0.107 C
HETATM   10  N4  UNL     1       2.376  70.428 187.003  1.00  0.00    -0.193 NA
HETATM   11  C13 UNL     1       0.753  67.748 188.163  1.00  0.00     0.107 C
HETATM   12  N5  UNL     1      -0.285  67.332 187.886  1.00  0.00    -0.193 NA
ENDROOT
BRANCH   1  13
HETATM   13  C5  UNL     1       2.883  66.108 187.631  1.00  0.00     0.021 A
HETATM   14  C4  UNL     1       2.110  65.114 188.165  1.00  0.00     0.052 A
HETATM   15  C3  UNL     1       1.822  63.939 187.493  1.00  0.00     0.072 A
HETATM   16  C2  UNL     1       2.345  63.785 186.233  1.00  0.00     0.128 A
HETATM   17 CL1  UNL     1       0.815  62.688 188.238  1.00  0.00    -0.081 Cl
HETATM   18  C14 UNL     1       3.122  64.782 185.692  1.00  0.00     0.139 A
HETATM   19  N6  UNL     1       3.376  65.918 186.397  1.00  0.00    -0.347 N
HETATM   20 CL2  UNL     1       3.790  64.575 184.072  1.00  0.00    -0.061 Cl
ATOM     21  H6  UNL     1       3.955  66.643 185.976  1.00  0.00     0.167 HD
BRANCH  16  22
HETATM   22  O1  UNL     1       2.050  62.596 185.558  1.00  0.00    -0.351 OA
HETATM   23  C1  UNL     1       2.971  61.557 185.379  1.00  0.00     0.210 C
ENDBRANCH  16  22
ENDBRANCH   1  13
BRANCH   4  24
HETATM   24  C9  UNL     1       3.901  66.948 192.635  1.00  0.00     0.138 C
HETATM   25  N2  UNL     1       3.432  65.847 193.078  1.00  0.00    -0.380 N
ATOM     26  H22 UNL     1       2.449  65.621 192.929  1.00  0.00     0.158 HD
ATOM     27  H21 UNL     1       4.065  65.220 193.575  1.00  0.00     0.158 HD
BRANCH  24  28
HETATM   28  S1  UNL     1       5.623  67.345 192.897  1.00  0.00    -0.099 SA
HETATM   29  C10 UNL     1       6.698  66.299 191.887  1.00  0.00     0.099 C
ENDBRANCH  24  28
ENDBRANCH   4  24
TORSDOF 4
ENDMDL