MODEL 3
REMARK VINA RESULT: -8.538479110      2.486      2.953
REMARK  3 active torsions:
REMARK  status: ('A' for Active; 'I' for Inactive)
REMARK    1  A    between atoms: C3_4  and  N2_5
REMARK       I    between atoms: N2_5  and  C4_7
REMARK       I    between atoms: C4_7  and  N3_9
REMARK    2  A    between atoms: C7_13  and  C8_14
REMARK    3  A    between atoms: C8_14  and  O2_15
ROOT
HETATM    1  N1  UNL     1       0.438  67.631 187.701  1.00  0.00    -0.191 NA
HETATM    2  C1  UNL     1       1.601  67.485 187.586  1.00  0.00     0.103 C
HETATM    3  C2  UNL     1       3.064  67.244 187.446  1.00  0.00     0.086 A
HETATM    4  C3  UNL     1       3.970  68.037 188.060  1.00  0.00     0.100 A
HETATM    5  S2  UNL     1       5.479  67.192 187.621  1.00  0.00    -0.075 SA
HETATM    6  C9  UNL     1       4.847  65.939 186.715  1.00  0.00    -0.002 A
HETATM    7  C10 UNL     1       3.505  66.159 186.746  1.00  0.00    -0.020 A
HETATM    8  C11 UNL     1       2.693  65.119 185.962  1.00  0.00     0.066 C
HETATM    9  C12 UNL     1       3.239  63.785 186.430  1.00  0.00     0.169 C
HETATM   10  C13 UNL     1       3.199  63.713 187.887  1.00  0.00     0.070 C
HETATM   11  N4  UNL     1       3.166  63.645 189.025  1.00  0.00    -0.197 NA
HETATM   12  C14 UNL     1       4.606  63.613 185.865  1.00  0.00     0.264 C
HETATM   13  F1  UNL     1       4.468  63.225 184.532  1.00  0.00    -0.204 F
HETATM   14  F2  UNL     1       5.194  62.522 186.517  1.00  0.00    -0.204 F
HETATM   15  C15 UNL     1       5.487  64.800 185.996  1.00  0.00     0.127 C
ENDROOT
BRANCH   4  16
HETATM   16  N2  UNL     1       3.989  69.244 188.781  1.00  0.00    -0.301 N
HETATM   17  C4  UNL     1       3.327  70.430 188.672  1.00  0.00     0.324 C
HETATM   18  O1  UNL     1       2.490  70.704 187.795  1.00  0.00    -0.247 OA
HETATM   19  N3  UNL     1       3.575  71.521 189.636  1.00  0.00    -0.318 N
HETATM   20  C5  UNL     1       2.859  72.773 189.512  1.00  0.00     0.202 C
HETATM   21  C7  UNL     1       4.468  71.519 190.735  1.00  0.00     0.122 C
HETATM   22  S1  UNL     1       4.092  73.966 190.104  1.00  0.00    -0.147 SA
HETATM   23  C6  UNL     1       5.391  72.753 190.581  1.00  0.00     0.103 C
ATOM     24  H2  UNL     1       4.647  69.229 189.561  1.00  0.00     0.171 HD
BRANCH  21  25
HETATM   25  C8  UNL     1       3.766  71.668 192.075  1.00  0.00     0.190 C
BRANCH  25  26
HETATM   26  O2  UNL     1       4.629  71.930 193.116  1.00  0.00    -0.399 OA
ATOM     27  H2  UNL     1       4.902  72.839 193.159  1.00  0.00     0.209 HD
ENDBRANCH  25  26
ENDBRANCH  21  25
ENDBRANCH   4  16
TORSDOF 3
ENDMDL