MODEL 2
REMARK VINA RESULT: -8.785216135      2.069      2.460
REMARK  5 active torsions:
REMARK  status: ('A' for Active; 'I' for Inactive)
REMARK    1  A    between atoms: C2_2  and  O1_5
REMARK    2  A    between atoms: O1_5  and  C5_6
REMARK       I    between atoms: C5_6  and  N1_8
REMARK    3  A    between atoms: N2_12  and  C9_13
REMARK    4  A    between atoms: C11_17  and  C12_18
REMARK    5  A    between atoms: N5_20  and  O3_22
ROOT
HETATM    1  C5  UNL     1       2.193  68.853 190.615  1.00  0.00     0.363 C
HETATM    2  O2  UNL     1       1.847  69.684 189.747  1.00  0.00    -0.238 OA
HETATM    3  N1  UNL     1       2.054  67.468 190.351  1.00  0.00    -0.326 N
HETATM    4  C6  UNL     1       2.502  66.656 191.461  1.00  0.00     0.129 C
HETATM    5  C7  UNL     1       1.719  65.371 191.594  1.00  0.00     0.040 C
HETATM    6  C8  UNL     1       2.341  64.406 190.573  1.00  0.00     0.126 C
HETATM    7  N2  UNL     1       1.678  64.729 189.322  1.00  0.00    -0.364 N
HETATM    8  C15 UNL     1       1.826  65.868 188.484  1.00  0.00     0.144 C
HETATM    9  C16 UNL     1       1.509  67.186 189.063  1.00  0.00     0.148 C
ENDROOT
BRANCH   7  10
HETATM   10  C9  UNL     1       0.746  63.703 188.923  1.00  0.00     0.125 A
HETATM   11  N3  UNL     1      -0.334  63.509 189.664  1.00  0.00    -0.350 N
HETATM   12  C10 UNL     1      -1.256  62.552 189.347  1.00  0.00     0.104 A
ATOM     13  H3  UNL     1      -0.481  64.088 190.491  1.00  0.00     0.166 HD
HETATM   14  C11 UNL     1      -1.066  61.774 188.245  1.00  0.00     0.024 A
HETATM   15  C13 UNL     1       0.050  61.981 187.486  1.00  0.00     0.044 A
HETATM   16  C14 UNL     1       0.997  62.953 187.796  1.00  0.00     0.078 A
HETATM   17 CL1  UNL     1       2.408  63.182 186.790  1.00  0.00    -0.080 Cl
BRANCH  14  18
HETATM   18  C12 UNL     1      -2.061  60.755 187.918  1.00  0.00     0.147 C
HETATM   19  N4  UNL     1      -2.818  60.211 188.988  1.00  0.00    -0.080 NA
HETATM   20  N5  UNL     1      -2.246  60.366 186.712  1.00  0.00    -0.255 N
ATOM     21  H5  UNL     1      -1.699  60.761 185.947  1.00  0.00     0.195 HD
BRANCH  20  22
HETATM   22  O3  UNL     1      -3.196  59.406 186.473  1.00  0.00    -0.288 OA
ATOM     23  H3  UNL     1      -3.259  59.040 185.599  1.00  0.00     0.244 HD
ENDBRANCH  20  22
ENDBRANCH  14  18
ENDBRANCH   7  10
BRANCH   1  24
HETATM   24  O1  UNL     1       2.701  69.370 191.804  1.00  0.00    -0.294 OA
BRANCH  24  25
HETATM   25  C2  UNL     1       1.846  69.932 192.798  1.00  0.00     0.061 C
HETATM   26  C1  UNL     1       2.345  69.372 194.134  1.00  0.00     0.046 C
HETATM   27  C3  UNL     1       1.940  71.422 192.869  1.00  0.00     0.046 C
HETATM   28  C4  UNL     1       0.410  69.530 192.574  1.00  0.00     0.046 C
ENDBRANCH  24  25
ENDBRANCH   1  24
TORSDOF 5
ENDMDL