MODEL 5
REMARK VINA RESULT: -6.912524907      1.762      3.917
REMARK  6 active torsions:
REMARK  status: ('A' for Active; 'I' for Inactive)
REMARK    1  A    between atoms: C2_2  and  O1_3
REMARK    2  A    between atoms: O1_3  and  C3_4
REMARK    3  A    between atoms: C3_4  and  C4_6
REMARK    4  A    between atoms: C4_6  and  O3_7
REMARK    5  A    between atoms: C7_11  and  O4_12
REMARK    6  A    between atoms: C10_16  and  O5_17
ROOT
HETATM    1  C4  UNL     1       3.550  65.791 192.413  1.00  0.00     0.206 C
HETATM    2  C5  UNL     1       3.528  67.203 191.910  1.00  0.00     0.028 A
HETATM    3  C6  UNL     1       3.145  68.400 192.493  1.00  0.00     0.052 A
HETATM    4  C7  UNL     1       3.201  69.606 191.832  1.00  0.00     0.089 A
HETATM    5  C9  UNL     1       3.659  69.657 190.516  1.00  0.00     0.080 A
HETATM    6 BR1  UNL     1       3.738  71.331 189.579  1.00  0.00    -0.045 Br
HETATM    7  C10 UNL     1       4.042  68.479 189.929  1.00  0.00     0.120 A
HETATM    8  C11 UNL     1       3.980  67.255 190.614  1.00  0.00     0.114 A
HETATM    9  O6  UNL     1       4.308  65.967 190.232  1.00  0.00    -0.333 OA
HETATM   10  C12 UNL     1       3.917  65.023 191.199  1.00  0.00     0.105 C
HETATM   11  C13 UNL     1       2.669  64.326 190.657  1.00  0.00     0.050 C
HETATM   12  C14 UNL     1       4.970  63.975 191.446  1.00  0.00     0.050 C
ENDROOT
BRANCH   1  13
HETATM   13  C3  UNL     1       4.574  65.701 193.495  1.00  0.00     0.301 C
HETATM   14  O2  UNL     1       4.327  64.942 194.461  1.00  0.00    -0.261 OA
BRANCH  13  15
HETATM   15  O1  UNL     1       5.761  66.397 193.492  1.00  0.00    -0.319 OA
BRANCH  15  16
HETATM   16  C2  UNL     1       6.976  65.985 194.047  1.00  0.00     0.174 C
HETATM   17  C1  UNL     1       7.981  65.479 193.046  1.00  0.00     0.034 C
ENDBRANCH  15  16
ENDBRANCH  13  15
ENDBRANCH   1  13
BRANCH   1  18
HETATM   18  O3  UNL     1       2.286  65.430 192.893  1.00  0.00    -0.372 OA
ATOM     19  H3  UNL     1       1.759  65.047 192.202  1.00  0.00     0.211 HD
ENDBRANCH   1  18
BRANCH   4  20
HETATM   20  O4  UNL     1       2.825  70.801 192.395  1.00  0.00    -0.354 OA
HETATM   21  C8  UNL     1       1.614  70.966 193.087  1.00  0.00     0.210 C
ENDBRANCH   4  20
BRANCH   7  22
HETATM   22  O5  UNL     1       4.508  68.493 188.612  1.00  0.00    -0.357 OA
ATOM     23  H5  UNL     1       5.287  68.994 188.400  1.00  0.00     0.218 HD
ENDBRANCH   7  22
TORSDOF 6
ENDMDL