MODEL 2
REMARK VINA RESULT: -6.980782864      2.600      4.496
REMARK  4 active torsions:
REMARK  status: ('A' for Active; 'I' for Inactive)
REMARK    1  A    between atoms: C3_4  and  C4_5
REMARK    2  A    between atoms: C4_5  and  C5_6
REMARK    3  A    between atoms: C5_6  and  O1_7
REMARK    4  A    between atoms: C5_6  and  C6_9
ROOT
HETATM    1  N1  UNL     1      42.375  29.248  57.365  1.00  0.00    -0.182 NA
HETATM    2  C1  UNL     1      42.631  30.363  57.547  1.00  0.00     0.152 C
HETATM    3  C2  UNL     1      42.925  31.726  57.752  1.00  0.00     0.014 C
HETATM    4  C3  UNL     1      43.185  32.893  57.915  1.00  0.00    -0.078 C
ENDROOT
BRANCH   4   5
HETATM    5  C4  UNL     1      43.526  34.319  58.129  1.00  0.00     0.051 C
HETATM    6  C10 UNL     1      43.456  34.543  59.596  1.00  0.00     0.025 C
HETATM    7  C11 UNL     1      44.613  33.695  60.103  1.00  0.00     0.002 C
HETATM    8  C12 UNL     1      45.670  33.860  59.043  1.00  0.00     0.002 C
HETATM    9  C13 UNL     1      44.984  34.442  57.822  1.00  0.00     0.025 C
BRANCH   5  10
HETATM   10  C5  UNL     1      42.635  35.127  57.278  1.00  0.00     0.143 C
BRANCH  10  11
HETATM   11  O1  UNL     1      41.751  35.817  58.113  1.00  0.00    -0.393 OA
ATOM     12  H1  UNL     1      40.944  35.958  57.632  1.00  0.00     0.210 HD
ENDBRANCH  10  11
BRANCH  10  13
HETATM   13  C6  UNL     1      41.900  34.467  56.188  1.00  0.00     0.016 C
HETATM   14  C7  UNL     1      42.493  34.829  54.836  1.00  0.00     0.007 C
HETATM   15  C8  UNL     1      41.084  34.612  54.273  1.00  0.00     0.001 C
HETATM   16  C9  UNL     1      40.620  35.019  55.680  1.00  0.00     0.007 C
ENDBRANCH  10  13
ENDBRANCH   5  10
ENDBRANCH   4   5
TORSDOF 4
ENDMDL