MODEL 3
REMARK VINA RESULT: -6.368851458      1.619      5.740
REMARK  3 active torsions:
REMARK  status: ('A' for Active; 'I' for Inactive)
REMARK    1  A    between atoms: N1_1  and  C1_5
REMARK    2  A    between atoms: C5_9  and  C6_10
REMARK    3  A    between atoms: C6_10  and  N2_11
ROOT
HETATM    1  C1  UNL     1      44.849  32.629  59.580  1.00  0.00     0.183 C
HETATM    2  C2  UNL     1      44.471  31.235  59.243  1.00  0.00     0.033 C
HETATM    3  C3  UNL     1      43.784  31.048  57.926  1.00  0.00     0.002 C
HETATM    4  C4  UNL     1      42.781  32.160  57.754  1.00  0.00     0.006 C
HETATM    5  C5  UNL     1      43.553  33.447  57.572  1.00  0.00     0.016 C
HETATM    6  C12 UNL     1      44.724  33.603  58.464  1.00  0.00     0.039 C
ENDROOT
BRANCH   5   7
HETATM    7  C6  UNL     1      42.568  34.594  57.596  1.00  0.00     0.277 C
BRANCH   7   8
HETATM    8  N2  UNL     1      42.231  34.853  56.193  1.00  0.00     0.088 N
HETATM    9  C7  UNL     1      42.945  36.002  55.760  1.00  0.00     0.272 C
HETATM   10  C8  UNL     1      42.214  36.868  54.772  1.00  0.00     0.030 C
HETATM   11  C9  UNL     1      41.400  35.913  53.899  1.00  0.00     0.003 C
HETATM   12  C10 UNL     1      40.267  35.446  54.797  1.00  0.00     0.030 C
HETATM   13  C11 UNL     1      40.831  34.821  56.025  1.00  0.00     0.272 C
ENDBRANCH   7   8
ENDBRANCH   5   7
BRANCH   1  14
HETATM   14  N1  UNL     1      44.185  33.164  60.752  1.00  0.00    -0.075 N
ATOM     15  H13 UNL     1      43.185  32.965  60.716  1.00  0.00     0.274 HD
ATOM     16  H12 UNL     1      44.441  32.629  61.581  1.00  0.00     0.274 HD
ATOM     17  H11 UNL     1      44.343  34.160  60.909  1.00  0.00     0.274 HD
ENDBRANCH   1  14
TORSDOF 3
ENDMDL