MODEL 1
REMARK VINA RESULT: -7.096991941      0.000      0.000
REMARK  2 active torsions:
REMARK  status: ('A' for Active; 'I' for Inactive)
REMARK    1  A    between atoms: C4_4  and  C5_5
REMARK    2  A    between atoms: C7_7  and  C8_8
ROOT
HETATM    1  C5  UNL     1      42.764  32.936  56.917  1.00  0.00     0.128 C
HETATM    2  C6  UNL     1      41.951  31.707  56.648  1.00  0.00     0.064 C
HETATM    3  C7  UNL     1      42.632  31.283  57.906  1.00  0.00     0.130 C
HETATM    4  O1  UNL     1      42.744  32.643  58.252  1.00  0.00    -0.380 OA
ENDROOT
BRANCH   3   5
HETATM    5  C8  UNL     1      43.917  30.543  57.776  1.00  0.00     0.042 C
HETATM    6  C9  UNL     1      43.704  29.277  57.012  1.00  0.00     0.036 C
HETATM    7  C10 UNL     1      43.378  28.228  58.061  1.00  0.00     0.232 C
HETATM    8  N1  UNL     1      43.676  28.804  59.341  1.00  0.00    -0.075 N
HETATM    9  C11 UNL     1      44.360  30.047  59.130  1.00  0.00     0.239 C
ATOM     10  H12 UNL     1      42.848  28.907  59.927  1.00  0.00     0.277 HD
ATOM     11  H11 UNL     1      44.196  28.168  59.945  1.00  0.00     0.277 HD
ENDBRANCH   3   5
BRANCH   1  12
HETATM   12  C4  UNL     1      42.095  34.204  56.477  1.00  0.00     0.015 C
HETATM   13  C3  UNL     1      42.960  35.039  55.562  1.00  0.00     0.007 C
HETATM   14  C2  UNL     1      41.937  36.086  55.096  1.00  0.00     0.000 C
HETATM   15  C1  UNL     1      40.602  35.370  55.105  1.00  0.00     0.000 C
HETATM   16  C12 UNL     1      40.870  33.982  55.650  1.00  0.00     0.007 C
ENDBRANCH   1  12
TORSDOF 2
ENDMDL