MODEL 4
REMARK VINA RESULT: -7.043668787      1.657      6.016
REMARK  2 active torsions:
REMARK  status: ('A' for Active; 'I' for Inactive)
REMARK       I    between atoms: C1_2  and  N1_3
REMARK    1  A    between atoms: C1_2  and  C6_10
REMARK    2  A    between atoms: N1_3  and  C2_5
ROOT
HETATM    1  O1  UNL     1      40.417  32.407  55.814  1.00  0.00    -0.273 OA
HETATM    2  C1  UNL     1      41.395  33.081  56.284  1.00  0.00     0.223 C
HETATM    3  N1  UNL     1      42.380  32.450  57.086  1.00  0.00    -0.334 N
ATOM      4  H1  UNL     1      43.163  32.986  57.461  1.00  0.00     0.165 HD
ENDROOT
BRANCH   2   5
HETATM    5  C6  UNL     1      41.489  34.539  55.975  1.00  0.00     0.078 C
HETATM    6  C7  UNL     1      40.698  34.858  54.778  1.00  0.00     0.014 C
HETATM    7  C8  UNL     1      41.314  35.782  53.792  1.00  0.00     0.001 C
HETATM    8  C9  UNL     1      42.063  36.854  54.593  1.00  0.00     0.000 C
HETATM    9  C10 UNL     1      43.277  36.101  55.129  1.00  0.00     0.001 C
HETATM   10  C11 UNL     1      42.916  34.953  55.987  1.00  0.00     0.014 C
ENDBRANCH   2   5
BRANCH   3  11
HETATM   11  C2  UNL     1      42.260  31.046  57.363  1.00  0.00     0.223 C
HETATM   12  C3  UNL     1      43.027  30.656  58.628  1.00  0.00     0.056 C
HETATM   13  C4  UNL     1      43.076  29.145  58.466  1.00  0.00     0.031 C
HETATM   14  C5  UNL     1      42.840  28.974  56.991  1.00  0.00     0.170 C
HETATM   15  O2  UNL     1      42.879  30.247  56.418  1.00  0.00    -0.367 OA
ENDBRANCH   3  11
TORSDOF 2
ENDMDL