MODEL 2
REMARK VINA RESULT: -6.961539742      1.728      5.891
REMARK  3 active torsions:
REMARK  status: ('A' for Active; 'I' for Inactive)
REMARK    1  A    between atoms: N1_1  and  C1_5
REMARK    2  A    between atoms: C1_5  and  C2_6
REMARK    3  A    between atoms: N2_9  and  C5_10
ROOT
HETATM    1  C2  UNL     1      43.065  30.847  58.663  1.00  0.00     0.017 C
HETATM    2  C3  UNL     1      44.068  31.934  58.283  1.00  0.00     0.026 C
HETATM    3  C4  UNL     1      43.170  33.135  57.956  1.00  0.00     0.123 C
HETATM    4  N2  UNL     1      42.275  32.909  56.902  1.00  0.00    -0.389 N
HETATM    5  C11 UNL     1      41.795  31.640  56.638  1.00  0.00     0.059 C
HETATM    6  C12 UNL     1      42.336  30.490  57.411  1.00  0.00     0.050 C
ENDROOT
BRANCH   4   7
HETATM    7  C5  UNL     1      42.285  33.894  55.909  1.00  0.00     0.083 C
HETATM    8  C6  UNL     1      41.002  34.560  55.587  1.00  0.00     0.025 C
HETATM    9  C7  UNL     1      41.250  35.483  54.384  1.00  0.00     0.002 C
HETATM   10  C8  UNL     1      42.145  36.590  54.831  1.00  0.00     0.000 C
HETATM   11  C9  UNL     1      43.497  35.970  55.178  1.00  0.00     0.002 C
HETATM   12  C10 UNL     1      43.273  35.000  56.311  1.00  0.00     0.025 C
ENDBRANCH   4   7
BRANCH   1  13
HETATM   13  C1  UNL     1      43.838  29.619  59.118  1.00  0.00     0.234 C
BRANCH  13  14
HETATM   14  N1  UNL     1      43.682  28.561  58.146  1.00  0.00    -0.079 N
ATOM     15  H13 UNL     1      42.702  28.374  57.936  1.00  0.00     0.274 HD
ATOM     16  H12 UNL     1      43.981  28.848  57.214  1.00  0.00     0.274 HD
ATOM     17  H11 UNL     1      44.172  27.727  58.467  1.00  0.00     0.274 HD
ENDBRANCH  13  14
ENDBRANCH   1  13
TORSDOF 3
ENDMDL