MODEL 3
REMARK VINA RESULT: -6.796981465      1.119      1.636
REMARK  2 active torsions:
REMARK  status: ('A' for Active; 'I' for Inactive)
REMARK    1  A    between atoms: C4_5  and  N2_6
REMARK    2  A    between atoms: N2_6  and  C5_8
ROOT
HETATM    1  N2  UNL     1      42.433  32.921  56.637  1.00  0.00    -0.413 N
ATOM      2  H2  UNL     1      42.261  32.639  55.671  1.00  0.00     0.154 HD
ENDROOT
BRANCH   1   3
HETATM    3  C4  UNL     1      42.468  34.281  56.955  1.00  0.00     0.080 C
HETATM    4  C3  UNL     1      41.205  35.056  57.049  1.00  0.00     0.055 C
HETATM    5  C2  UNL     1      40.721  35.271  55.607  1.00  0.00     0.274 C
HETATM    6  N1  UNL     1      41.549  36.280  55.047  1.00  0.00     0.084 N
HETATM    7  C1  UNL     1      41.417  36.419  53.617  1.00  0.00     0.309 C
HETATM    8  C12 UNL     1      42.883  36.292  55.519  1.00  0.00     0.274 C
HETATM    9  C11 UNL     1      43.416  34.982  55.983  1.00  0.00     0.055 C
ENDBRANCH   1   3
BRANCH   1  10
HETATM   10  C5  UNL     1      42.630  31.921  57.628  1.00  0.00     0.077 C
HETATM   11  C6  UNL     1      42.099  30.579  57.349  1.00  0.00     0.024 C
HETATM   12  C7  UNL     1      42.968  29.448  57.873  1.00  0.00     0.002 C
HETATM   13  C8  UNL     1      43.309  29.855  59.305  1.00  0.00     0.000 C
HETATM   14  C9  UNL     1      44.385  30.908  59.158  1.00  0.00     0.002 C
HETATM   15  C10 UNL     1      44.056  31.929  58.152  1.00  0.00     0.024 C
ENDBRANCH   1  10
TORSDOF 2
ENDMDL