MODEL 1
REMARK VINA RESULT: -5.833303171      0.000      0.000
REMARK  2 active torsions:
REMARK  status: ('A' for Active; 'I' for Inactive)
REMARK    1  A    between atoms: O1_1  and  C1_3
REMARK    2  A    between atoms: C1_3  and  C2_4
ROOT
HETATM    1  C2  UNL     1      42.707  34.817  57.488  1.00  0.00     0.020 C
HETATM    2  C3  UNL     1      43.983  34.692  56.760  1.00  0.00    -0.006 C
HETATM    3  C4  UNL     1      43.933  35.617  55.565  1.00  0.00     0.031 C
HETATM    4  C5  UNL     1      42.712  35.063  54.793  1.00  0.00     0.168 C
HETATM    5  O2  UNL     1      42.486  33.736  55.033  1.00  0.00    -0.391 OA
HETATM    6  C6  UNL     1      41.546  33.402  55.968  1.00  0.00     0.173 C
HETATM    7  C7  UNL     1      42.095  33.455  57.419  1.00  0.00     0.020 C
HETATM    8  C8  UNL     1      42.981  32.314  57.652  1.00  0.00    -0.004 A
HETATM    9  C9  UNL     1      43.300  31.890  59.068  1.00  0.00     0.010 A
HETATM   10  C10 UNL     1      44.338  32.319  57.974  1.00  0.00    -0.010 A
HETATM   11  C11 UNL     1      45.179  33.411  58.406  1.00  0.00     0.005 C
HETATM   12  C12 UNL     1      45.139  34.725  57.640  1.00  0.00     0.005 C
ENDROOT
BRANCH   1  13
HETATM   13  C1  UNL     1      42.703  35.476  58.819  1.00  0.00     0.169 C
BRANCH  13  14
HETATM   14  O1  UNL     1      41.519  36.225  58.928  1.00  0.00    -0.400 OA
ATOM     15  H1  UNL     1      41.385  36.431  59.846  1.00  0.00     0.209 HD
ENDBRANCH  13  14
ENDBRANCH   1  13
TORSDOF 2
ENDMDL