MODEL 4
REMARK VINA RESULT: -6.005206047      3.667      4.995
REMARK  1 active torsions:
REMARK  status: ('A' for Active; 'I' for Inactive)
REMARK    1  A    between atoms: C1_2  and  C2_4
ROOT
HETATM    1  C2  UNL     1      44.214  31.832  58.404  1.00  0.00     0.053 C
HETATM    2  C3  UNL     1      45.037  30.744  57.840  1.00  0.00     0.025 C
HETATM    3  C4  UNL     1      44.482  29.371  57.937  1.00  0.00    -0.011 C
HETATM    4  C5  UNL     1      43.520  28.999  56.853  1.00  0.00     0.007 C
HETATM    5  C6  UNL     1      42.493  30.001  56.526  1.00  0.00     0.032 C
HETATM    6  C7  UNL     1      42.053  30.881  57.659  1.00  0.00     0.123 C
HETATM    7  C8  UNL     1      42.942  32.103  57.651  1.00  0.00     0.052 C
HETATM    8  O3  UNL     1      41.911  30.273  58.857  1.00  0.00    -0.381 OA
HETATM    9  C9  UNL     1      42.984  30.186  59.676  1.00  0.00     0.123 C
HETATM   10  C10 UNL     1      43.855  29.038  59.260  1.00  0.00     0.036 C
HETATM   11  C11 UNL     1      43.781  31.466  59.816  1.00  0.00     0.052 C
ENDROOT
BRANCH   1  12
HETATM   12  C1  UNL     1      45.024  33.066  58.487  1.00  0.00     0.182 C
HETATM   13  O1  UNL     1      46.087  33.112  59.150  1.00  0.00    -0.647 OA
HETATM   14  O2  UNL     1      44.574  34.186  57.805  1.00  0.00    -0.647 OA
ENDBRANCH   1  12
TORSDOF 1
ENDMDL