MODEL 3
REMARK VINA RESULT: -7.552794933      2.777      5.420
REMARK  2 active torsions:
REMARK  status: ('A' for Active; 'I' for Inactive)
REMARK    1  A    between atoms: C1_2  and  C2_4
REMARK    2  A    between atoms: N1_8  and  C6_9
ROOT
HETATM    1  C2  UNL     1      43.523  31.647  58.322  1.00  0.00     0.115 C
HETATM    2  C3  UNL     1      43.769  32.412  59.603  1.00  0.00     0.019 C
HETATM    3  C4  UNL     1      43.489  33.892  59.406  1.00  0.00     0.031 C
HETATM    4  C5  UNL     1      43.888  34.300  58.014  1.00  0.00     0.273 C
HETATM    5  N1  UNL     1      43.201  33.606  56.973  1.00  0.00     0.093 N
HETATM    6  C12 UNL     1      42.586  32.382  57.382  1.00  0.00     0.288 C
ENDROOT
BRANCH   5   7
HETATM    7  C6  UNL     1      42.376  34.467  56.185  1.00  0.00     0.223 C
HETATM    8  C7  UNL     1      42.888  35.873  56.069  1.00  0.00     0.036 C
HETATM    9  C8  UNL     1      42.322  36.574  54.832  1.00  0.00     0.002 C
HETATM   10  C9  UNL     1      40.965  36.027  54.478  1.00  0.00     0.000 C
HETATM   11  C10 UNL     1      41.138  34.607  54.006  1.00  0.00     0.002 C
HETATM   12  C11 UNL     1      42.127  33.833  54.834  1.00  0.00     0.036 C
ENDBRANCH   5   7
BRANCH   1  13
HETATM   13  C1  UNL     1      42.867  30.339  58.667  1.00  0.00     0.178 C
HETATM   14  O1  UNL     1      42.108  29.772  57.826  1.00  0.00    -0.648 OA
HETATM   15  O2  UNL     1      43.125  29.787  59.924  1.00  0.00    -0.648 OA
ENDBRANCH   1  13
TORSDOF 2
ENDMDL