MODEL 3
REMARK VINA RESULT: -6.610221931      2.620      3.829
REMARK  3 active torsions:
REMARK  status: ('A' for Active; 'I' for Inactive)
REMARK    1  A    between atoms: C2_2  and  C3_3
REMARK    2  A    between atoms: C3_3  and  C5_5
REMARK    3  A    between atoms: C11_11  and  O1_12
ROOT
HETATM    1  C5  UNL     1      42.917  33.853  57.275  1.00  0.00     0.088 C
HETATM    2  C6  UNL     1      43.990  34.638  56.597  1.00  0.00     0.048 C
HETATM    3  C7  UNL     1      43.432  35.237  55.324  1.00  0.00    -0.008 C
HETATM    4  C8  UNL     1      42.693  34.255  54.472  1.00  0.00     0.012 C
HETATM    5  C9  UNL     1      41.582  33.601  55.224  1.00  0.00     0.020 C
HETATM    6  C10 UNL     1      42.225  32.858  56.407  1.00  0.00     0.050 C
HETATM    7  C11 UNL     1      40.606  34.563  55.849  1.00  0.00     0.151 C
HETATM    8  C12 UNL     1      41.442  35.542  56.663  1.00  0.00     0.152 C
HETATM    9  C13 UNL     1      42.418  36.289  55.793  1.00  0.00     0.039 C
HETATM   10  O2  UNL     1      41.995  34.852  57.706  1.00  0.00    -0.367 OA
ENDROOT
BRANCH   1  11
HETATM   11  C3  UNL     1      43.438  33.186  58.472  1.00  0.00    -0.034 C
HETATM   12  C4  UNL     1      43.643  33.965  59.557  1.00  0.00     0.022 C
BRANCH  11  13
HETATM   13  C2  UNL     1      43.760  31.788  58.618  1.00  0.00    -0.001 C
HETATM   14  C1  UNL     1      44.903  31.201  58.428  1.00  0.00     0.012 C
ENDBRANCH  11  13
ENDBRANCH   1  11
BRANCH   7  15
HETATM   15  O1  UNL     1      39.794  35.198  54.942  1.00  0.00    -0.393 OA
ATOM     16  H1  UNL     1      40.098  36.063  54.693  1.00  0.00     0.210 HD
ENDBRANCH   7  15
TORSDOF 3
ENDMDL