MODEL 4
REMARK VINA RESULT: -7.266053714      1.451      1.731
REMARK  11 active torsions:
REMARK  status: ('A' for Active; 'I' for Inactive)
REMARK    1  A    between atoms: C3_5  and  S1_6
REMARK    2  A    between atoms: S1_6  and  C4_7
REMARK    3  A    between atoms: C4_7  and  C5_8
REMARK    4  A    between atoms: C5_8  and  N2_9
REMARK    5  A    between atoms: C5_8  and  C6_13
REMARK    6  A    between atoms: N3_16  and  N4_17
REMARK    7  A    between atoms: N5_21  and  C8_23
REMARK    8  A    between atoms: C9_25  and  N6_26
REMARK    9  A    between atoms: C10_31  and  N8_32
REMARK       I    between atoms: C11_34  and  N10_36
REMARK   10  A    between atoms: N10_36  and  N11_38
REMARK   11  A    between atoms: N11_38  and  O3_40
ROOT
HETATM    1  C1  UNL     1      10.191 -54.242   2.079  1.00  0.00     0.089 C
HETATM    2  C2  UNL     1      10.116 -54.697   3.506  1.00  0.00     0.095 A
HETATM    3  N1  UNL     1       8.973 -55.192   4.020  1.00  0.00    -0.324 N
ATOM      4  H1  UNL     1       8.149 -55.253   3.421  1.00  0.00     0.169 HD
HETATM    5  C3  UNL     1       8.878 -55.616   5.316  1.00  0.00     0.184 A
HETATM    6  N3  UNL     1       9.979 -55.522   6.082  1.00  0.00    -0.070 N
HETATM    7  C7  UNL     1      11.138 -55.036   5.618  1.00  0.00     0.707 A
HETATM    8  N5  UNL     1      12.199 -54.946   6.364  1.00  0.00    -0.179 N
ATOM      9  H5  UNL     1      12.163 -55.253   7.336  1.00  0.00     0.185 HD
HETATM   10  N12 UNL     1      11.182 -54.631   4.333  1.00  0.00    -0.179 N
ATOM     11  H12 UNL     1      12.059 -54.258   3.969  1.00  0.00     0.185 HD
ENDROOT
BRANCH   6  12
HETATM   12  N4  UNL     1       9.903 -55.950   7.416  1.00  0.00    -0.322 N
ATOM     13  H42 UNL     1       9.035 -55.810   7.933  1.00  0.00     0.178 HD
ATOM     14  H41 UNL     1      10.723 -56.391   7.831  1.00  0.00     0.178 HD
ENDBRANCH   6  12
BRANCH   8  15
HETATM   15  C8  UNL     1      13.417 -54.421   5.828  1.00  0.00     0.138 A
HETATM   16  S2  UNL     1      13.722 -53.880   4.239  1.00  0.00    -0.032 SA
HETATM   17  C9  UNL     1      15.359 -53.429   4.431  1.00  0.00     0.145 A
HETATM   18  N7  UNL     1      15.592 -53.718   5.713  1.00  0.00    -0.321 N
HETATM   19  C10 UNL     1      14.630 -54.216   6.431  1.00  0.00     0.144 A
ATOM     20  H7  UNL     1      16.511 -53.550   6.122  1.00  0.00     0.169 HD
BRANCH  17  21
HETATM   21  N6  UNL     1      16.202 -52.921   3.556  1.00  0.00    -0.380 N
ATOM     22  H62 UNL     1      17.200 -52.747   3.682  1.00  0.00     0.158 HD
ATOM     23  H61 UNL     1      16.039 -52.603   2.600  1.00  0.00     0.158 HD
ENDBRANCH  17  21
BRANCH  19  24
HETATM   24  N8  UNL     1      14.774 -54.563   7.841  1.00  0.00    -0.313 N
HETATM   25  C11 UNL     1      15.387 -55.667   8.082  1.00  0.00     0.210 C
HETATM   26  N9  UNL     1      15.885 -56.482   7.036  1.00  0.00    -0.062 NA
HETATM   27  N10 UNL     1      15.589 -56.114   9.430  1.00  0.00    -0.254 N
ATOM     28  H10 UNL     1      16.343 -56.757   9.669  1.00  0.00     0.191 HD
ATOM     29  H8  UNL     1      14.411 -53.969   8.587  1.00  0.00     0.170 HD
BRANCH  27  30
HETATM   30  N11 UNL     1      14.713 -55.630  10.397  1.00  0.00    -0.208 N
ATOM     31  H11 UNL     1      15.059 -55.392  11.327  1.00  0.00     0.215 HD
BRANCH  30  32
HETATM   32  O3  UNL     1      13.499 -55.486  10.128  1.00  0.00    -0.274 OA
ATOM     33  H3  UNL     1      12.841 -55.655  10.792  1.00  0.00     0.246 HD
ENDBRANCH  30  32
ENDBRANCH  27  30
ENDBRANCH  19  24
ENDBRANCH   8  15
BRANCH   5  34
HETATM   34  S1  UNL     1       7.365 -56.262   5.974  1.00  0.00    -0.089 SA
BRANCH  34  35
HETATM   35  C4  UNL     1       5.976 -55.136   5.651  1.00  0.00     0.126 C
BRANCH  35  36
HETATM   36  C5  UNL     1       6.295 -53.831   6.381  1.00  0.00     0.293 C
BRANCH  36  37
HETATM   37  N2  UNL     1       5.207 -52.885   6.145  1.00  0.00    -0.064 N
ATOM     38  H23 UNL     1       5.339 -52.342   5.292  1.00  0.00     0.275 HD
ATOM     39  H22 UNL     1       4.337 -53.348   5.883  1.00  0.00     0.275 HD
ATOM     40  H21 UNL     1       5.103 -52.296   6.971  1.00  0.00     0.275 HD
ENDBRANCH  36  37
BRANCH  36  41
HETATM   41  C6  UNL     1       6.413 -54.144   7.815  1.00  0.00     0.205 C
HETATM   42  O1  UNL     1       7.483 -53.937   8.426  1.00  0.00    -0.646 OA
HETATM   43  O2  UNL     1       5.341 -54.674   8.504  1.00  0.00    -0.646 OA
ENDBRANCH  36  41
ENDBRANCH  35  36
ENDBRANCH  34  35
ENDBRANCH   5  34
TORSDOF 11
ENDMDL