MODEL 1
REMARK VINA RESULT: -8.625458105      0.000      0.000
REMARK  11 active torsions:
REMARK  status: ('A' for Active; 'I' for Inactive)
REMARK    1  A    between atoms: C2_3  and  O1_4
REMARK    2  A    between atoms: C3_6  and  C4_7
REMARK    3  A    between atoms: C4_7  and  O2_8
REMARK    4  A    between atoms: C4_7  and  C5_10
REMARK    5  A    between atoms: C6_13  and  N3_14
REMARK    6  A    between atoms: N3_14  and  N4_16
REMARK    7  A    between atoms: N4_16  and  S1_18
REMARK    8  A    between atoms: S1_18  and  O5_21
REMARK    9  A    between atoms: O5_21  and  C7_22
REMARK   10  A    between atoms: C8_28  and  N7_29
REMARK   11  A    between atoms: C9_32  and  O7_33
ROOT
HETATM    1  C5  UNL     1       8.358 -54.599   6.779  1.00  0.00     0.164 A
HETATM    2  N2  UNL     1       7.648 -55.544   6.137  1.00  0.00    -0.319 N
ATOM      3  H2  UNL     1       7.925 -56.004   5.270  1.00  0.00     0.169 HD
HETATM    4  C6  UNL     1       6.518 -55.784   6.820  1.00  0.00     0.182 A
HETATM    5  C9  UNL     1       6.556 -54.942   7.921  1.00  0.00     0.232 A
HETATM    6  O8  UNL     1       7.679 -54.267   7.834  1.00  0.00    -0.269 OA
ENDROOT
BRANCH   4   7
HETATM    7  N3  UNL     1       5.479 -56.702   6.509  1.00  0.00    -0.270 N
ATOM      8  H3  UNL     1       4.512 -56.507   6.770  1.00  0.00     0.189 HD
BRANCH   7   9
HETATM    9  N4  UNL     1       5.815 -57.865   5.843  1.00  0.00    -0.202 N
ATOM     10  H4  UNL     1       6.718 -58.046   5.403  1.00  0.00     0.202 HD
BRANCH   9  11
HETATM   11  S1  UNL     1       4.471 -58.982   5.863  1.00  0.00     0.382 S
HETATM   12  O3  UNL     1       4.650 -60.003   6.942  1.00  0.00    -0.174 OA
HETATM   13  O4  UNL     1       3.188 -58.216   6.013  1.00  0.00    -0.174 OA
BRANCH  11  14
HETATM   14  O5  UNL     1       4.445 -59.760   4.360  1.00  0.00    -0.191 OA
BRANCH  14  15
HETATM   15  C7  UNL     1       3.375 -60.435   3.837  1.00  0.00     0.229 A
HETATM   16  N5  UNL     1       2.699 -60.121   2.726  1.00  0.00    -0.215 N
HETATM   17  O6  UNL     1       1.741 -61.020   2.567  1.00  0.00    -0.153 OA
ATOM     18  H5  UNL     1       2.888 -59.330   2.112  1.00  0.00     0.199 HD
HETATM   19  N6  UNL     1       1.762 -61.894   3.512  1.00  0.00    -0.222 N
HETATM   20  C8  UNL     1       2.780 -61.562   4.337  1.00  0.00     0.175 A
ATOM     21  H6  UNL     1       1.130 -62.687   3.618  1.00  0.00     0.198 HD
BRANCH  20  22
HETATM   22  N7  UNL     1       3.109 -62.202   5.390  1.00  0.00    -0.380 N
ATOM     23  H72 UNL     1       3.849 -61.928   6.036  1.00  0.00     0.157 HD
ATOM     24  H71 UNL     1       2.693 -63.066   5.739  1.00  0.00     0.157 HD
ENDBRANCH  20  22
ENDBRANCH  14  15
ENDBRANCH  11  14
ENDBRANCH   9  11
ENDBRANCH   7   9
ENDBRANCH   4   7
BRANCH   5  25
HETATM   25  O7  UNL     1       5.563 -54.880   8.889  1.00  0.00    -0.338 OA
ATOM     26  H7  UNL     1       4.972 -55.594   9.093  1.00  0.00     0.220 HD
ENDBRANCH   5  25
BRANCH   1  27
HETATM   27  C4  UNL     1       9.664 -54.103   6.285  1.00  0.00     0.254 C
BRANCH  27  28
HETATM   28  C3  UNL     1      10.767 -54.375   7.200  1.00  0.00     0.146 A
HETATM   29  C2  UNL     1      12.065 -54.727   6.890  1.00  0.00     0.180 A
HETATM   30  N1  UNL     1      12.741 -54.881   8.040  1.00  0.00    -0.276 N
HETATM   31  C1  UNL     1      14.121 -55.245   8.184  1.00  0.00     0.164 C
HETATM   32  C10 UNL     1      11.859 -54.626   9.028  1.00  0.00     0.373 A
HETATM   33  O9  UNL     1      10.691 -54.327   8.510  1.00  0.00    -0.258 OA
HETATM   34  O10 UNL     1      12.111 -54.667  10.270  1.00  0.00    -0.237 OA
BRANCH  29  35
HETATM   35  O1  UNL     1      12.590 -54.893   5.625  1.00  0.00    -0.344 OA
ATOM     36  H1  UNL     1      12.392 -54.351   4.872  1.00  0.00     0.219 HD
ENDBRANCH  29  35
ENDBRANCH  27  28
BRANCH  27  37
HETATM   37  O2  UNL     1       9.937 -54.682   5.051  1.00  0.00    -0.381 OA
ATOM     38  H2  UNL     1       9.726 -54.065   4.360  1.00  0.00     0.211 HD
ENDBRANCH  27  37
ENDBRANCH   1  27
TORSDOF 11
ENDMDL