MODEL 4
REMARK VINA RESULT: -7.423762951      2.117      7.256
REMARK  10 active torsions:
REMARK  status: ('A' for Active; 'I' for Inactive)
REMARK    1  A    between atoms: O1_3  and  N2_4
REMARK       I    between atoms: N2_4  and  C2_6
REMARK    2  A    between atoms: N4_8  and  N5_10
REMARK    3  A    between atoms: C3_12  and  N6_13
REMARK    4  A    between atoms: C3_12  and  C10_31
REMARK    5  A    between atoms: N6_13  and  N7_15
REMARK    6  A    between atoms: N7_15  and  C4_17
REMARK    7  A    between atoms: C5_18  and  O2_19
REMARK    8  A    between atoms: C7_22  and  N8_23
REMARK    9  A    between atoms: C9_27  and  N9_28
REMARK   10  A    between atoms: C11_37  and  N12_38
ROOT
HETATM    1  N1  UNL     1       4.356 -51.785   5.824  1.00  0.00    -0.162 NA
HETATM    2  C1  UNL     1       5.091 -52.623   6.144  1.00  0.00     0.253 C
HETATM    3  O1  UNL     1       5.971 -53.605   6.516  1.00  0.00    -0.157 OA
ENDROOT
BRANCH   3   4
HETATM    4  N2  UNL     1       5.554 -54.514   7.457  1.00  0.00    -0.220 N
HETATM    5  C2  UNL     1       6.287 -55.701   7.666  1.00  0.00     0.228 C
HETATM    6  N3  UNL     1       6.684 -56.044   8.980  1.00  0.00    -0.060 NA
HETATM    7  N4  UNL     1       6.588 -56.453   6.699  1.00  0.00    -0.270 N
ATOM      8  H4  UNL     1       7.119 -57.290   6.937  1.00  0.00     0.189 HD
ATOM      9  H2  UNL     1       4.713 -54.331   8.006  1.00  0.00     0.198 HD
BRANCH   7  10
HETATM   10  N5  UNL     1       6.293 -56.291   5.373  1.00  0.00    -0.280 N
HETATM   11  C3  UNL     1       7.163 -56.044   4.448  1.00  0.00     0.168 C
ATOM     12  H5  UNL     1       5.315 -56.371   5.093  1.00  0.00     0.188 HD
BRANCH  11  13
HETATM   13  N6  UNL     1       8.500 -55.931   4.789  1.00  0.00    -0.282 N
ATOM     14  H6  UNL     1       9.079 -56.770   4.773  1.00  0.00     0.188 HD
BRANCH  13  15
HETATM   15  N7  UNL     1       9.082 -54.739   5.148  1.00  0.00    -0.294 N
ATOM     16  H7  UNL     1       8.487 -53.995   5.512  1.00  0.00     0.187 HD
BRANCH  15  17
HETATM   17  C4  UNL     1      10.492 -54.498   5.032  1.00  0.00     0.114 A
HETATM   18  C5  UNL     1      11.097 -54.215   3.828  1.00  0.00     0.098 A
HETATM   19  C6  UNL     1      12.475 -53.971   3.857  1.00  0.00     0.075 A
HETATM   20  C7  UNL     1      13.206 -54.007   5.017  1.00  0.00     0.108 A
HETATM   21  C8  UNL     1      12.602 -54.286   6.205  1.00  0.00     0.074 A
HETATM   22  C9  UNL     1      11.222 -54.538   6.231  1.00  0.00     0.136 A
BRANCH  18  23
HETATM   23  O2  UNL     1      10.417 -54.174   2.656  1.00  0.00    -0.358 OA
ATOM     24  H2  UNL     1      10.072 -53.369   2.288  1.00  0.00     0.217 HD
ENDBRANCH  18  23
BRANCH  20  25
HETATM   25  N8  UNL     1      14.624 -53.746   4.999  1.00  0.00    -0.116 N
HETATM   26  O3  UNL     1      15.234 -53.562   3.922  1.00  0.00    -0.532 OA
HETATM   27  O4  UNL     1      15.338 -53.690   6.151  1.00  0.00    -0.532 OA
ENDBRANCH  20  25
BRANCH  22  28
HETATM   28  N9  UNL     1      10.609 -54.819   7.477  1.00  0.00    -0.113 N
HETATM   29  O5  UNL     1      10.777 -54.116   8.477  1.00  0.00    -0.532 OA
HETATM   30  O6  UNL     1       9.808 -55.926   7.618  1.00  0.00    -0.532 OA
ENDBRANCH  22  28
ENDBRANCH  15  17
ENDBRANCH  13  15
ENDBRANCH  11  13
BRANCH  11  31
HETATM   31  C10 UNL     1       6.687 -55.865   3.098  1.00  0.00     0.148 A
HETATM   32  N10 UNL     1       6.922 -56.589   2.009  1.00  0.00    -0.234 N
HETATM   33  O7  UNL     1       6.321 -56.123   0.961  1.00  0.00    -0.155 OA
ATOM     34  H10 UNL     1       7.511 -57.422   2.000  1.00  0.00     0.197 HD
HETATM   35  N11 UNL     1       5.658 -55.057   1.336  1.00  0.00    -0.224 N
HETATM   36  C11 UNL     1       5.844 -54.843   2.646  1.00  0.00     0.154 A
ATOM     37  H11 UNL     1       5.087 -54.476   0.723  1.00  0.00     0.198 HD
BRANCH  36  38
HETATM   38  N12 UNL     1       5.399 -53.933   3.429  1.00  0.00    -0.382 N
ATOM     39 2H12 UNL     1       5.717 -53.613   4.344  1.00  0.00     0.157 HD
ATOM     40 1H12 UNL     1       4.585 -53.366   3.193  1.00  0.00     0.157 HD
ENDBRANCH  36  38
ENDBRANCH  11  31
ENDBRANCH   7  10
ENDBRANCH   3   4
TORSDOF 10
ENDMDL