MODEL 4
REMARK VINA RESULT: -7.372793497      2.046      2.571
REMARK  9 active torsions:
REMARK  status: ('A' for Active; 'I' for Inactive)
REMARK    1  A    between atoms: N1_1  and  C1_4
REMARK    2  A    between atoms: C2_7  and  N3_8
REMARK    3  A    between atoms: C4_16  and  N7_17
REMARK       I    between atoms: N7_17  and  C5_19
REMARK    4  A    between atoms: C5_19  and  C6_21
REMARK    5  A    between atoms: C6_21  and  S1_22
REMARK    6  A    between atoms: S1_22  and  C7_23
REMARK    7  A    between atoms: C8_27  and  N9_28
REMARK    8  A    between atoms: C9_31  and  N10_32
REMARK    9  A    between atoms: C10_35  and  O4_36
ROOT
HETATM    1  C1  UNL     1      15.283 -55.796   9.318  1.00  0.00     0.679 A
HETATM    2  N2  UNL     1      15.370 -55.364   8.055  1.00  0.00    -0.172 N
ATOM      3  H2  UNL     1      16.250 -55.451   7.546  1.00  0.00     0.186 HD
HETATM    4  C2  UNL     1      14.278 -54.803   7.445  1.00  0.00     0.176 A
HETATM    5  C4  UNL     1      13.106 -54.694   8.144  1.00  0.00     0.133 A
HETATM    6  C10 UNL     1      13.088 -55.159   9.435  1.00  0.00     0.186 A
HETATM    7  N11 UNL     1      14.145 -55.706  10.038  1.00  0.00    -0.168 N
ATOM      8  H11 UNL     1      14.095 -56.042  11.000  1.00  0.00     0.186 HD
ENDROOT
BRANCH   5   9
HETATM    9  N7  UNL     1      11.964 -54.130   7.549  1.00  0.00    -0.320 N
HETATM   10  C5  UNL     1      11.042 -54.829   6.735  1.00  0.00     0.232 C
HETATM   11  O1  UNL     1      11.235 -56.046   6.511  1.00  0.00    -0.272 OA
ATOM     12  H7  UNL     1      11.787 -53.139   7.717  1.00  0.00     0.169 HD
BRANCH  10  13
HETATM   13  C6  UNL     1       9.876 -54.162   6.154  1.00  0.00     0.183 C
BRANCH  13  14
HETATM   14  S1  UNL     1       8.973 -55.250   5.007  1.00  0.00    -0.109 SA
BRANCH  14  15
HETATM   15  C7  UNL     1       7.210 -54.996   5.321  1.00  0.00     0.095 A
HETATM   16  S2  UNL     1       5.921 -54.830   4.222  1.00  0.00    -0.004 SA
HETATM   17  N8  UNL     1       4.657 -54.642   5.309  1.00  0.00    -0.310 N
HETATM   18  C8  UNL     1       5.240 -54.710   6.499  1.00  0.00     0.140 A
ATOM     19  H8  UNL     1       3.668 -54.506   5.102  1.00  0.00     0.176 HD
HETATM   20  C9  UNL     1       6.579 -54.895   6.538  1.00  0.00     0.171 A
BRANCH  18  21
HETATM   21  N9  UNL     1       4.523 -54.597   7.602  1.00  0.00    -0.383 N
ATOM     22  H92 UNL     1       3.645 -54.078   7.619  1.00  0.00     0.157 HD
ATOM     23  H91 UNL     1       4.837 -55.033   8.469  1.00  0.00     0.157 HD
ENDBRANCH  18  21
BRANCH  20  24
HETATM   24  N10 UNL     1       7.367 -54.992   7.761  1.00  0.00    -0.110 N
HETATM   25  O2  UNL     1       7.898 -56.057   8.088  1.00  0.00    -0.532 OA
HETATM   26  O3  UNL     1       7.514 -53.888   8.545  1.00  0.00    -0.532 OA
ENDBRANCH  20  24
ENDBRANCH  14  15
ENDBRANCH  13  14
ENDBRANCH  10  13
ENDBRANCH   5   9
BRANCH   4  27
HETATM   27  N3  UNL     1      14.439 -54.359   6.127  1.00  0.00    -0.216 N
HETATM   28  C3  UNL     1      15.611 -53.813   5.672  1.00  0.00     0.228 A
HETATM   29  N4  UNL     1      15.453 -53.490   4.380  1.00  0.00    -0.279 N
HETATM   30  N5  UNL     1      14.230 -53.825   4.045  1.00  0.00    -0.227 N
ATOM     31  H4  UNL     1      16.153 -53.064   3.771  1.00  0.00     0.189 HD
HETATM   32  N6  UNL     1      13.646 -54.337   5.095  1.00  0.00    -0.219 N
ATOM     33  H5  UNL     1      13.806 -53.705   3.124  1.00  0.00     0.210 HD
ATOM     34  H6  UNL     1      12.685 -54.680   5.106  1.00  0.00     0.210 HD
ENDBRANCH   4  27
BRANCH   6  35
HETATM   35  O4  UNL     1      11.906 -55.050  10.141  1.00  0.00    -0.344 OA
ATOM     36  H4  UNL     1      11.883 -55.407  11.022  1.00  0.00     0.219 HD
ENDBRANCH   6  35
BRANCH   1  37
HETATM   37  N1  UNL     1      16.341 -56.320   9.856  1.00  0.00    -0.234 N
ATOM     38  H12 UNL     1      17.174 -56.470   9.287  1.00  0.00     0.174 HD
ATOM     39  H11 UNL     1      16.303 -56.567  10.845  1.00  0.00     0.174 HD
ENDBRANCH   1  37
TORSDOF 9
ENDMDL