MODEL 2
REMARK VINA RESULT: -7.322702786      2.310      3.344
REMARK  10 active torsions:
REMARK  status: ('A' for Active; 'I' for Inactive)
REMARK    1  A    between atoms: C2_2  and  C3_4
REMARK    2  A    between atoms: C4_8  and  C5_9
REMARK    3  A    between atoms: C5_9  and  N3_10
REMARK    4  A    between atoms: N3_10  and  C6_12
REMARK    5  A    between atoms: C7_13  and  C8_14
REMARK    6  A    between atoms: C8_14  and  N4_15
REMARK    7  A    between atoms: C8_14  and  O2_19
REMARK    8  A    between atoms: C11_29  and  N8_30
REMARK    9  A    between atoms: N8_30  and  O3_32
REMARK   10  A    between atoms: C15_41  and  O5_42
ROOT
HETATM    1  C6  UNL     1      13.056 -54.860   8.117  1.00  0.00     0.086 A
HETATM    2  C7  UNL     1      13.076 -55.101   9.459  1.00  0.00     0.096 A
HETATM    3  N5  UNL     1      14.168 -55.692  10.027  1.00  0.00    -0.339 N
ATOM      4  H5  UNL     1      14.165 -55.865  11.033  1.00  0.00     0.167 HD
HETATM    5  C9  UNL     1      15.245 -56.055   9.312  1.00  0.00     0.126 A
HETATM    6  N6  UNL     1      16.282 -56.617   9.851  1.00  0.00    -0.384 N
ATOM      7  H61 UNL     1      17.100 -56.892   9.308  1.00  0.00     0.157 HD
ATOM      8  H62 UNL     1      16.288 -56.794  10.855  1.00  0.00     0.157 HD
HETATM    9  C10 UNL     1      15.237 -55.816   7.953  1.00  0.00     0.120 A
HETATM   10  N7  UNL     1      16.359 -56.189   7.184  1.00  0.00    -0.096 NA
HETATM   11  C11 UNL     1      14.129 -55.211   7.351  1.00  0.00     0.110 A
ENDROOT
BRANCH   1  12
HETATM   12  N3  UNL     1      11.930 -54.252   7.532  1.00  0.00    -0.379 N
ATOM     13  H3  UNL     1      12.006 -53.276   7.245  1.00  0.00     0.160 HD
BRANCH  12  14
HETATM   14  C5  UNL     1      10.674 -54.926   7.315  1.00  0.00     0.199 C
BRANCH  14  15
HETATM   15  C4  UNL     1      10.348 -54.843   5.855  1.00  0.00     0.136 A
HETATM   16  N2  UNL     1       9.215 -55.367   5.355  1.00  0.00    -0.232 N
HETATM   17  N1  UNL     1       8.242 -56.011   6.020  1.00  0.00    -0.286 N
HETATM   18  C14 UNL     1       8.901 -55.304   4.047  1.00  0.00     0.163 A
HETATM   19  C3  UNL     1       7.293 -56.367   5.140  1.00  0.00     0.130 A
ATOM     20  H1  UNL     1       8.227 -56.197   7.023  1.00  0.00     0.188 HD
HETATM   21  C15 UNL     1       7.686 -55.934   3.892  1.00  0.00     0.132 A
HETATM   22  C13 UNL     1       9.804 -54.668   3.218  1.00  0.00     0.293 A
HETATM   23  N10 UNL     1      10.948 -54.134   3.692  1.00  0.00    -0.259 N
HETATM   24  O4  UNL     1       9.558 -54.584   1.989  1.00  0.00    -0.264 OA
HETATM   25  N9  UNL     1      11.190 -54.234   4.988  1.00  0.00    -0.281 N
HETATM   26  C12 UNL     1      11.874 -53.471   2.775  1.00  0.00     0.181 C
ATOM     27  H9  UNL     1      12.054 -53.832   5.352  1.00  0.00     0.188 HD
BRANCH  19  28
HETATM   28  C2  UNL     1       6.042 -57.087   5.390  1.00  0.00     0.176 C
HETATM   29  C1  UNL     1       5.127 -56.518   6.422  1.00  0.00     0.098 C
HETATM   30  O1  UNL     1       5.737 -58.132   4.778  1.00  0.00    -0.291 OA
ENDBRANCH  19  28
BRANCH  21  31
HETATM   31  O5  UNL     1       7.023 -56.077   2.679  1.00  0.00    -0.356 OA
ATOM     32  H5  UNL     1       7.091 -55.536   1.900  1.00  0.00     0.218 HD
ENDBRANCH  21  31
ENDBRANCH  14  15
ENDBRANCH  12  14
ENDBRANCH   1  12
BRANCH   2  33
HETATM   33  C8  UNL     1      11.955 -54.754  10.385  1.00  0.00     0.369 C
BRANCH  33  34
HETATM   34  N4  UNL     1      12.261 -55.319  11.663  1.00  0.00    -0.047 N
ATOM     35  H43 UNL     1      13.212 -55.685  11.719  1.00  0.00     0.277 HD
ATOM     36  H42 UNL     1      12.345 -54.617  12.398  1.00  0.00     0.277 HD
ATOM     37  H41 UNL     1      11.551 -56.023  11.866  1.00  0.00     0.277 HD
ENDBRANCH  33  34
BRANCH  33  38
HETATM   38  O2  UNL     1      11.798 -53.370  10.481  1.00  0.00    -0.365 OA
ATOM     39  H2  UNL     1      12.121 -52.936   9.700  1.00  0.00     0.212 HD
ENDBRANCH  33  38
ENDBRANCH   2  33
BRANCH  11  40
HETATM   40  N8  UNL     1      14.149 -54.975   5.937  1.00  0.00    -0.265 N
ATOM     41  H8  UNL     1      14.174 -55.742   5.264  1.00  0.00     0.194 HD
BRANCH  40  42
HETATM   42  O3  UNL     1      14.135 -53.785   5.575  1.00  0.00    -0.289 OA
ATOM     43  H3  UNL     1      13.323 -53.311   5.715  1.00  0.00     0.244 HD
ENDBRANCH  40  42
ENDBRANCH  11  40
TORSDOF 10
ENDMDL