MODEL 2
REMARK VINA RESULT: -7.130704365      1.637      1.790
REMARK  10 active torsions:
REMARK  status: ('A' for Active; 'I' for Inactive)
REMARK    1  A    between atoms: C2_2  and  C4_4
REMARK    2  A    between atoms: C6_10  and  S1_11
REMARK    3  A    between atoms: S1_11  and  C7_12
REMARK    4  A    between atoms: C7_12  and  C8_13
REMARK    5  A    between atoms: N6_21  and  N7_22
REMARK    6  A    between atoms: N7_22  and  C10_24
REMARK    7  A    between atoms: C10_24  and  N8_25
REMARK    8  A    between atoms: C11_32  and  N12_33
REMARK    9  A    between atoms: C12_36  and  N13_37
REMARK   10  A    between atoms: N13_37  and  N14_39
ROOT
HETATM    1  C4  UNL     1      11.259 -53.363   1.512  1.00  0.00     0.086 A
HETATM    2  N1  UNL     1      12.556 -53.048   1.558  1.00  0.00    -0.330 N
ATOM      3  H1  UNL     1      13.089 -52.651   0.784  1.00  0.00     0.168 HD
HETATM    4  C5  UNL     1      13.060 -53.333   2.782  1.00  0.00     0.140 A
HETATM    5  N2  UNL     1      14.278 -53.210   3.335  1.00  0.00    -0.319 N
ATOM      6  H2  UNL     1      15.031 -52.826   2.764  1.00  0.00     0.169 HD
HETATM    7  C6  UNL     1      14.555 -53.564   4.585  1.00  0.00     0.169 A
HETATM    8  N6  UNL     1      13.578 -54.074   5.358  1.00  0.00    -0.216 N
HETATM    9  C12 UNL     1      12.314 -54.230   4.868  1.00  0.00     0.174 A
HETATM   10  C13 UNL     1      12.035 -53.852   3.543  1.00  0.00     0.126 A
HETATM   11  N15 UNL     1      10.970 -53.857   2.754  1.00  0.00    -0.339 N
ATOM     12  H15 UNL     1      10.049 -54.188   3.038  1.00  0.00     0.167 HD
ENDROOT
BRANCH   8  13
HETATM   13  N7  UNL     1      13.868 -54.442   6.663  1.00  0.00    -0.305 N
ATOM     14  H7  UNL     1      14.194 -53.693   7.275  1.00  0.00     0.183 HD
BRANCH  13  15
HETATM   15  C10 UNL     1      13.769 -55.741   7.262  1.00  0.00     0.309 C
BRANCH  15  16
HETATM   16  N8  UNL     1      15.078 -56.053   7.885  1.00  0.00    -0.088 N
HETATM   17  N9  UNL     1      16.191 -56.432   7.292  1.00  0.00    -0.209 N
HETATM   18  N10 UNL     1      17.150 -56.620   8.174  1.00  0.00    -0.213 N
ATOM     19  H9  UNL     1      16.297 -56.563   6.286  1.00  0.00     0.210 HD
HETATM   20  N11 UNL     1      16.628 -56.353   9.341  1.00  0.00    -0.115 N
ATOM     21  H10 UNL     1      18.108 -56.914   7.985  1.00  0.00     0.210 HD
HETATM   22  C11 UNL     1      15.346 -56.000   9.197  1.00  0.00     0.711 A
ATOM     23  H11 UNL     1      17.124 -56.407  10.230  1.00  0.00     0.207 HD
BRANCH  22  24
HETATM   24  N12 UNL     1      14.523 -55.668  10.147  1.00  0.00    -0.232 N
ATOM     25 2H12 UNL     1      13.666 -56.156  10.406  1.00  0.00     0.174 HD
ATOM     26 1H12 UNL     1      14.608 -54.872  10.778  1.00  0.00     0.174 HD
ENDBRANCH  22  24
ENDBRANCH  15  16
ENDBRANCH  13  15
ENDBRANCH   8  13
BRANCH   7  27
HETATM   27  S1  UNL     1      16.213 -53.376   5.276  1.00  0.00    -0.084 SA
BRANCH  27  28
HETATM   28  C7  UNL     1      17.453 -53.429   3.992  1.00  0.00     0.160 C
BRANCH  28  29
HETATM   29  C8  UNL     1      18.714 -54.098   4.396  1.00  0.00     0.106 A
HETATM   30  N3  UNL     1      19.864 -54.180   3.675  1.00  0.00    -0.339 N
HETATM   31  C9  UNL     1      20.802 -54.855   4.343  1.00  0.00     0.198 A
ATOM     32  H3  UNL     1      19.993 -53.778   2.746  1.00  0.00     0.168 HD
HETATM   33  N4  UNL     1      20.240 -55.213   5.516  1.00  0.00    -0.295 N
HETATM   34  N5  UNL     1      18.997 -54.761   5.544  1.00  0.00    -0.287 N
ATOM     35  H4  UNL     1      20.697 -55.744   6.257  1.00  0.00     0.187 HD
ATOM     36  H5  UNL     1      18.346 -54.892   6.318  1.00  0.00     0.188 HD
ENDBRANCH  28  29
ENDBRANCH  27  28
ENDBRANCH   7  27
BRANCH   9  37
HETATM   37  N13 UNL     1      11.373 -54.698   5.552  1.00  0.00    -0.289 N
ATOM     38  H13 UNL     1      11.384 -55.717   5.571  1.00  0.00     0.188 HD
BRANCH  37  39
HETATM   39  N14 UNL     1      10.355 -54.192   6.265  1.00  0.00    -0.344 N
ATOM     40 2H14 UNL     1       9.481 -54.664   6.029  1.00  0.00     0.176 HD
ATOM     41 1H14 UNL     1      10.245 -53.465   6.971  1.00  0.00     0.176 HD
ENDBRANCH  37  39
ENDBRANCH   9  37
BRANCH   1  42
HETATM   42  C2  UNL     1      10.304 -53.223   0.370  1.00  0.00     0.045 C
HETATM   43  C1  UNL     1       8.944 -52.889   0.957  1.00  0.00     0.017 C
HETATM   44  C3  UNL     1      10.274 -54.445  -0.484  1.00  0.00     0.017 C
ENDBRANCH   1  42
TORSDOF 10
ENDMDL