MODEL 1
REMARK VINA RESULT: -8.177224762      0.000      0.000
REMARK  10 active torsions:
REMARK  status: ('A' for Active; 'I' for Inactive)
REMARK    1  A    between atoms: C4_7  and  O1_8
REMARK    2  A    between atoms: O1_8  and  C5_9
REMARK    3  A    between atoms: C5_9  and  C6_10
REMARK    4  A    between atoms: C6_10  and  S1_11
REMARK    5  A    between atoms: S1_11  and  C7_12
REMARK    6  A    between atoms: C8_15  and  N4_16
REMARK    7  A    between atoms: N6_21  and  N7_22
REMARK    8  A    between atoms: C10_27  and  N9_28
REMARK       I    between atoms: N9_28  and  C11_30
REMARK       I    between atoms: C11_30  and  N11_34
REMARK    9  A    between atoms: N11_34  and  N12_36
REMARK   10  A    between atoms: N12_36  and  O4_38
ROOT
HETATM    1  C1  UNL     1      15.109 -53.462   4.330  1.00  0.00     0.056 C
HETATM    2  C2  UNL     1      13.752 -53.486   3.708  1.00  0.00     0.024 A
HETATM    3  C3  UNL     1      13.606 -52.919   2.459  1.00  0.00     0.129 A
HETATM    4  N1  UNL     1      14.698 -52.322   1.767  1.00  0.00    -0.082 NA
HETATM    5  N2  UNL     1      12.371 -52.954   1.918  1.00  0.00    -0.310 N
ATOM      6  H2  UNL     1      12.241 -52.540   0.995  1.00  0.00     0.170 HD
HETATM    7  C4  UNL     1      11.319 -53.494   2.511  1.00  0.00     0.226 A
HETATM    8  N8  UNL     1      11.485 -54.053   3.750  1.00  0.00    -0.307 N
ATOM      9  H8  UNL     1      10.679 -54.473   4.213  1.00  0.00     0.171 HD
HETATM   10  C10 UNL     1      12.667 -54.070   4.376  1.00  0.00     0.133 A
ENDROOT
BRANCH   7  11
HETATM   11  O1  UNL     1      10.041 -53.540   1.975  1.00  0.00    -0.321 OA
BRANCH  11  12
HETATM   12  C5  UNL     1       9.394 -54.796   1.917  1.00  0.00     0.189 C
BRANCH  12  13
HETATM   13  C6  UNL     1       7.911 -54.507   1.963  1.00  0.00     0.109 C
BRANCH  13  14
HETATM   14  S1  UNL     1       7.101 -55.807   2.936  1.00  0.00    -0.090 SA
BRANCH  14  15
HETATM   15  C7  UNL     1       6.674 -55.139   4.540  1.00  0.00     0.168 A
HETATM   16  N3  UNL     1       7.224 -55.415   5.743  1.00  0.00    -0.314 N
HETATM   17  C8  UNL     1       6.580 -54.673   6.661  1.00  0.00     0.219 A
ATOM     18  H3  UNL     1       7.989 -56.067   5.922  1.00  0.00     0.170 HD
HETATM   19  C9  UNL     1       5.607 -53.912   6.050  1.00  0.00     0.190 A
HETATM   20  N5  UNL     1       4.728 -53.010   6.699  1.00  0.00    -0.076 NA
HETATM   21  N6  UNL     1       5.691 -54.222   4.745  1.00  0.00    -0.222 N
BRANCH  17  22
HETATM   22  N4  UNL     1       6.866 -54.683   8.048  1.00  0.00    -0.094 N
HETATM   23  O2  UNL     1       7.356 -53.707   8.645  1.00  0.00    -0.530 OA
HETATM   24  O3  UNL     1       6.582 -55.841   8.762  1.00  0.00    -0.530 OA
ENDBRANCH  17  22
BRANCH  21  25
HETATM   25  N7  UNL     1       4.891 -53.686   3.749  1.00  0.00    -0.335 N
ATOM     26  H72 UNL     1       5.101 -53.716   2.751  1.00  0.00     0.177 HD
ATOM     27  H71 UNL     1       4.007 -53.204   3.910  1.00  0.00     0.177 HD
ENDBRANCH  21  25
ENDBRANCH  14  15
ENDBRANCH  13  14
ENDBRANCH  12  13
ENDBRANCH  11  12
ENDBRANCH   7  11
BRANCH  10  28
HETATM   28  N9  UNL     1      12.842 -54.579   5.533  1.00  0.00    -0.175 N
HETATM   29  C11 UNL     1      11.785 -54.814   6.434  1.00  0.00     0.693 C
HETATM   30  N10 UNL     1      11.167 -53.822   6.968  1.00  0.00    -0.233 N
HETATM   31  N11 UNL     1      11.356 -56.106   6.820  1.00  0.00    -0.113 N
ATOM     32 2H10 UNL     1      11.477 -52.891   6.689  1.00  0.00     0.174 HD
ATOM     33 1H10 UNL     1      10.402 -53.992   7.620  1.00  0.00     0.174 HD
ATOM     34  H11 UNL     1      12.043 -56.857   6.883  1.00  0.00     0.207 HD
ATOM     35  H9  UNL     1      13.789 -54.826   5.819  1.00  0.00     0.186 HD
BRANCH  31  36
HETATM   36  N12 UNL     1      10.025 -56.381   7.115  1.00  0.00    -0.196 N
ATOM     37  H12 UNL     1       9.461 -56.825   6.391  1.00  0.00     0.216 HD
BRANCH  36  38
HETATM   38  O4  UNL     1       9.474 -56.124   8.199  1.00  0.00    -0.274 OA
ATOM     39  H4  UNL     1       8.610 -55.739   8.288  1.00  0.00     0.246 HD
ENDBRANCH  36  38
ENDBRANCH  31  36
ENDBRANCH  10  28
TORSDOF 10
ENDMDL