MODEL 3
REMARK VINA RESULT: -7.320828437      2.429      6.983
REMARK  12 active torsions:
REMARK  status: ('A' for Active; 'I' for Inactive)
REMARK    1  A    between atoms: C1_4  and  O1_5
REMARK    2  A    between atoms: C1_4  and  O2_7
REMARK    3  A    between atoms: O2_7  and  C2_8
REMARK    4  A    between atoms: C2_8  and  C3_10
REMARK    5  A    between atoms: C4_11  and  C5_12
REMARK    6  A    between atoms: C4_11  and  S1_37
REMARK    7  A    between atoms: C9_23  and  N5_24
REMARK    8  A    between atoms: N6_27  and  N7_28
REMARK    9  A    between atoms: N7_28  and  O4_30
REMARK   10  A    between atoms: N8_32  and  C10_33
REMARK   11  A    between atoms: C10_33  and  C11_34
REMARK   12  A    between atoms: C11_34  and  O5_35
ROOT
HETATM    1  C5  UNL     1       6.543 -57.026   5.241  1.00  0.00     0.134 A
HETATM    2  N2  UNL     1       6.197 -58.268   5.734  1.00  0.00    -0.323 N
ATOM      3  H2  UNL     1       6.398 -58.611   6.674  1.00  0.00     0.169 HD
HETATM    4  C6  UNL     1       5.564 -58.941   4.791  1.00  0.00     0.180 A
HETATM    5  C7  UNL     1       5.493 -58.139   3.678  1.00  0.00     0.128 A
HETATM    6  C8  UNL     1       4.857 -58.654   2.567  1.00  0.00     0.145 A
HETATM    7  N3  UNL     1       4.728 -57.988   1.482  1.00  0.00    -0.383 N
ATOM      8  H31 UNL     1       4.258 -58.369   0.661  1.00  0.00     0.157 HD
ATOM      9  H32 UNL     1       5.118 -57.046   1.447  1.00  0.00     0.157 HD
HETATM   10  N4  UNL     1       4.334 -59.918   2.613  1.00  0.00    -0.173 N
ATOM     11  H4  UNL     1       3.864 -60.301   1.793  1.00  0.00     0.186 HD
HETATM   12  C9  UNL     1       4.431 -60.655   3.722  1.00  0.00     0.702 A
HETATM   13  N6  UNL     1       5.036 -60.205   4.829  1.00  0.00    -0.048 N
HETATM   14  N8  UNL     1       6.116 -56.939   3.983  1.00  0.00    -0.324 N
ENDROOT
BRANCH   1  15
HETATM   15  C4  UNL     1       7.240 -56.078   6.115  1.00  0.00     0.130 C
HETATM   16  C3  UNL     1       8.478 -55.722   6.037  1.00  0.00     0.113 C
BRANCH  16  17
HETATM   17  C2  UNL     1       9.189 -54.781   6.872  1.00  0.00     0.292 C
HETATM   18  O3  UNL     1       9.076 -53.559   6.797  1.00  0.00    -0.260 OA
BRANCH  17  19
HETATM   19  O2  UNL     1      10.092 -55.232   7.866  1.00  0.00    -0.237 OA
BRANCH  19  20
HETATM   20  C1  UNL     1      11.214 -54.503   8.171  1.00  0.00     0.263 C
HETATM   21  N1  UNL     1      12.042 -54.213   7.237  1.00  0.00    -0.359 N
ATOM     22  H12 UNL     1      12.875 -53.670   7.464  1.00  0.00     0.160 HD
ATOM     23  H11 UNL     1      11.831 -54.539   6.294  1.00  0.00     0.160 HD
BRANCH  20  24
HETATM   24  O1  UNL     1      11.501 -54.057   9.461  1.00  0.00    -0.327 OA
ATOM     25  H1  UNL     1      12.238 -54.449   9.915  1.00  0.00     0.221 HD
ENDBRANCH  20  24
ENDBRANCH  19  20
ENDBRANCH  17  19
ENDBRANCH  16  17
BRANCH  15  26
HETATM   26  S1  UNL     1       6.280 -55.366   7.431  1.00  0.00     0.141 S
HETATM   27  O6  UNL     1       6.670 -55.839   8.772  1.00  0.00    -0.591 OA
HETATM   28  O7  UNL     1       4.828 -55.860   7.186  1.00  0.00    -0.591 OA
HETATM   29  O8  UNL     1       6.192 -53.730   7.306  1.00  0.00    -0.591 OA
ENDBRANCH  15  26
ENDBRANCH   1  15
BRANCH  14  30
HETATM   30  C10 UNL     1       6.207 -55.911   2.994  1.00  0.00     0.157 C
BRANCH  30  31
HETATM   31  C11 UNL     1       5.318 -54.729   3.156  1.00  0.00     0.184 C
BRANCH  31  32
HETATM   32  O5  UNL     1       4.349 -54.793   4.120  1.00  0.00    -0.399 OA
ATOM     33  H5  UNL     1       3.457 -54.955   3.836  1.00  0.00     0.209 HD
ENDBRANCH  31  32
ENDBRANCH  30  31
ENDBRANCH  14  30
BRANCH  13  34
HETATM   34  N7  UNL     1       5.129 -60.991   5.982  1.00  0.00    -0.187 N
ATOM     35  H7  UNL     1       5.838 -61.717   6.082  1.00  0.00     0.217 HD
BRANCH  34  36
HETATM   36  O4  UNL     1       4.293 -60.755   6.886  1.00  0.00    -0.273 OA
ATOM     37  H4  UNL     1       4.382 -61.261   7.685  1.00  0.00     0.246 HD
ENDBRANCH  34  36
ENDBRANCH  13  34
BRANCH  12  38
HETATM   38  N5  UNL     1       3.931 -61.854   3.759  1.00  0.00    -0.233 N
ATOM     39  H52 UNL     1       4.337 -62.551   3.134  1.00  0.00     0.174 HD
ATOM     40  H51 UNL     1       3.162 -62.072   4.394  1.00  0.00     0.174 HD
ENDBRANCH  12  38
TORSDOF 12
ENDMDL