MODEL 3
REMARK VINA RESULT: -7.736990845      1.486      4.192
REMARK  11 active torsions:
REMARK  status: ('A' for Active; 'I' for Inactive)
REMARK    1  A    between atoms: C3_3  and  N1_4
REMARK    2  A    between atoms: C4_7  and  N2_8
REMARK    3  A    between atoms: N2_8  and  N3_10
REMARK    4  A    between atoms: N3_10  and  C5_12
REMARK    5  A    between atoms: C5_12  and  N4_13
REMARK    6  A    between atoms: C5_12  and  C8_25
REMARK    7  A    between atoms: N4_13  and  N5_15
REMARK    8  A    between atoms: C7_21  and  N8_22
REMARK    9  A    between atoms: N9_27  and  N10_28
REMARK   10  A    between atoms: C10_37  and  N14_38
REMARK   11  A    between atoms: C11_41  and  N15_42
ROOT
HETATM    1  C5  UNL     1      12.241 -54.748   6.998  1.00  0.00     0.166 C
ENDROOT
BRANCH   1   2
HETATM    2  N3  UNL     1      10.875 -54.336   7.366  1.00  0.00    -0.281 N
ATOM      3  H3  UNL     1      10.647 -53.394   7.683  1.00  0.00     0.188 HD
BRANCH   2   4
HETATM    4  N2  UNL     1       9.924 -55.342   7.245  1.00  0.00    -0.282 N
ATOM      5  H2  UNL     1       9.949 -56.143   7.876  1.00  0.00     0.188 HD
BRANCH   4   6
HETATM    6  C4  UNL     1       8.913 -55.259   6.241  1.00  0.00     0.155 A
HETATM    7  C3  UNL     1       7.599 -55.056   6.620  1.00  0.00     0.156 A
HETATM    8  C2  UNL     1       6.634 -54.990   5.634  1.00  0.00     0.012 A
HETATM    9  C1  UNL     1       5.235 -54.762   6.004  1.00  0.00     0.054 C
HETATM   10  C11 UNL     1       6.996 -55.125   4.300  1.00  0.00     0.154 A
HETATM   11  C10 UNL     1       8.303 -55.324   3.960  1.00  0.00     0.134 A
HETATM   12  N13 UNL     1       9.223 -55.384   4.942  1.00  0.00    -0.324 N
ATOM     13  H13 UNL     1      10.200 -55.531   4.686  1.00  0.00     0.169 HD
BRANCH   7  14
HETATM   14  N1  UNL     1       7.262 -54.918   7.986  1.00  0.00    -0.111 N
HETATM   15  O1  UNL     1       7.386 -53.802   8.548  1.00  0.00    -0.532 OA
HETATM   16  O2  UNL     1       6.783 -55.996   8.736  1.00  0.00    -0.532 OA
ENDBRANCH   7  14
BRANCH  10  17
HETATM   17  N15 UNL     1       6.048 -55.067   3.253  1.00  0.00    -0.111 N
HETATM   18  O3  UNL     1       5.506 -56.154   2.918  1.00  0.00    -0.532 OA
HETATM   19  O4  UNL     1       5.701 -53.909   2.595  1.00  0.00    -0.532 OA
ENDBRANCH  10  17
BRANCH  11  20
HETATM   20  N14 UNL     1       8.705 -55.447   2.755  1.00  0.00    -0.383 N
ATOM     21 2H14 UNL     1       9.600 -55.087   2.421  1.00  0.00     0.157 HD
ATOM     22 1H14 UNL     1       8.100 -55.938   2.096  1.00  0.00     0.157 HD
ENDBRANCH  11  20
ENDBRANCH   4   6
ENDBRANCH   2   4
ENDBRANCH   1   2
BRANCH   1  23
HETATM   23  N4  UNL     1      12.514 -54.779   5.848  1.00  0.00    -0.260 N
ATOM     24  H4  UNL     1      12.500 -55.771   5.611  1.00  0.00     0.190 HD
BRANCH  23  25
HETATM   25  N5  UNL     1      12.829 -54.175   4.714  1.00  0.00    -0.078 N
HETATM   26  C6  UNL     1      12.021 -53.873   3.678  1.00  0.00     0.242 A
HETATM   27  N6  UNL     1      12.796 -53.264   2.748  1.00  0.00    -0.279 N
HETATM   28  N7  UNL     1      14.021 -53.180   3.164  1.00  0.00    -0.130 N
ATOM     29  H6  UNL     1      12.462 -52.919   1.848  1.00  0.00     0.188 HD
HETATM   30  C7  UNL     1      14.089 -53.731   4.374  1.00  0.00     0.712 A
ATOM     31  H7  UNL     1      14.799 -52.764   2.652  1.00  0.00     0.205 HD
BRANCH  30  32
HETATM   32  N8  UNL     1      15.121 -53.847   5.127  1.00  0.00    -0.232 N
ATOM     33  H82 UNL     1      15.181 -54.303   6.038  1.00  0.00     0.174 HD
ATOM     34  H81 UNL     1      16.045 -53.484   4.892  1.00  0.00     0.174 HD
ENDBRANCH  30  32
ENDBRANCH  23  25
ENDBRANCH   1  23
BRANCH   1  35
HETATM   35  C8  UNL     1      13.058 -55.042   8.155  1.00  0.00     0.115 A
HETATM   36  C9  UNL     1      14.376 -55.530   8.083  1.00  0.00     0.172 A
HETATM   37  N9  UNL     1      14.840 -55.729   9.318  1.00  0.00    -0.198 N
HETATM   38  N11 UNL     1      13.874 -55.387  10.145  1.00  0.00    -0.222 N
HETATM   39  N12 UNL     1      12.823 -54.982   9.473  1.00  0.00    -0.280 N
ATOM     40  H11 UNL     1      13.935 -55.430  11.162  1.00  0.00     0.210 HD
ATOM     41  H12 UNL     1      11.949 -54.667   9.894  1.00  0.00     0.189 HD
BRANCH  37  42
HETATM   42  N10 UNL     1      16.119 -56.212   9.635  1.00  0.00    -0.323 N
ATOM     43 2H10 UNL     1      16.367 -56.947  10.297  1.00  0.00     0.179 HD
ATOM     44 1H10 UNL     1      16.993 -55.876   9.228  1.00  0.00     0.179 HD
ENDBRANCH  37  42
ENDBRANCH   1  35
TORSDOF 11
ENDMDL