MODEL 1
REMARK VINA RESULT: -8.116185759      0.000      0.000
REMARK  10 active torsions:
REMARK  status: ('A' for Active; 'I' for Inactive)
REMARK       I    between atoms: C2_2  and  N1_4
REMARK       I    between atoms: N1_4  and  C3_6
REMARK    1  A    between atoms: C3_6  and  C4_8
REMARK    2  A    between atoms: C5_12  and  N3_13
REMARK    3  A    between atoms: N3_13  and  C6_15
REMARK    4  A    between atoms: C7_19  and  N5_20
REMARK    5  A    between atoms: N5_20  and  O4_21
REMARK    6  A    between atoms: N6_23  and  O5_25
REMARK    7  A    between atoms: C11_31  and  N7_32
REMARK    8  A    between atoms: N7_32  and  C12_34
REMARK    9  A    between atoms: C12_34  and  O7_35
REMARK   10  A    between atoms: C12_34  and  O8_37
ROOT
HETATM    1  C4  UNL     1      13.762 -55.494   8.681  1.00  0.00     0.175 A
HETATM    2  N2  UNL     1      12.785 -55.089   9.556  1.00  0.00    -0.250 N
ATOM      3  H2  UNL     1      12.995 -55.046  10.553  1.00  0.00     0.195 HD
HETATM    4  O3  UNL     1      11.631 -54.768   9.154  1.00  0.00    -0.217 OA
HETATM    5  C5  UNL     1      11.207 -54.776   7.864  1.00  0.00     0.200 A
HETATM    6  C11 UNL     1      12.141 -55.173   6.953  1.00  0.00     0.138 A
HETATM    7  C13 UNL     1      13.431 -55.534   7.368  1.00  0.00     0.236 A
HETATM    8  O9  UNL     1      14.195 -55.875   6.446  1.00  0.00    -0.283 OA
ENDROOT
BRANCH   5   9
HETATM    9  N3  UNL     1       9.893 -54.375   7.613  1.00  0.00    -0.318 N
ATOM     10  H3  UNL     1       9.761 -53.367   7.704  1.00  0.00     0.166 HD
BRANCH   9  11
HETATM   11  C6  UNL     1       8.714 -55.051   7.264  1.00  0.00     0.434 C
HETATM   12  N4  UNL     1       7.541 -54.333   7.625  1.00  0.00    -0.003 N
HETATM   13  C7  UNL     1       6.935 -53.929   6.395  1.00  0.00     0.372 C
ATOM     14  H42 UNL     1       6.914 -54.858   8.234  1.00  0.00     0.285 HD
ATOM     15  H41 UNL     1       7.718 -53.559   8.266  1.00  0.00     0.285 HD
HETATM   16  C8  UNL     1       7.340 -55.100   5.499  1.00  0.00     0.108 C
HETATM   17  C9  UNL     1       6.600 -56.359   5.847  1.00  0.00     0.050 C
HETATM   18  C10 UNL     1       7.105 -54.781   4.064  1.00  0.00     0.050 C
HETATM   19  O6  UNL     1       8.655 -55.222   5.855  1.00  0.00    -0.329 OA
BRANCH  13  20
HETATM   20  N5  UNL     1       5.523 -53.736   6.448  1.00  0.00    -0.146 N
HETATM   21  N6  UNL     1       4.865 -54.121   7.475  1.00  0.00    -0.186 N
ATOM     22  H6  UNL     1       3.855 -53.974   7.498  1.00  0.00     0.218 HD
BRANCH  20  23
HETATM   23  O4  UNL     1       4.826 -53.148   5.440  1.00  0.00    -0.269 OA
ATOM     24  H4  UNL     1       3.934 -53.393   5.225  1.00  0.00     0.246 HD
ENDBRANCH  20  23
BRANCH  21  25
HETATM   25  O5  UNL     1       5.473 -54.726   8.550  1.00  0.00    -0.273 OA
ATOM     26  H5  UNL     1       4.974 -55.134   9.248  1.00  0.00     0.246 HD
ENDBRANCH  21  25
ENDBRANCH  13  20
ENDBRANCH   9  11
ENDBRANCH   5   9
BRANCH   6  27
HETATM   27  N7  UNL     1      11.867 -55.312   5.583  1.00  0.00    -0.335 N
ATOM     28  H7  UNL     1      11.696 -56.246   5.212  1.00  0.00     0.164 HD
BRANCH  27  29
HETATM   29  C12 UNL     1      11.818 -54.176   4.665  1.00  0.00     0.366 C
BRANCH  29  30
HETATM   30  O7  UNL     1      10.802 -54.294   3.727  1.00  0.00    -0.355 OA
ATOM     31  H7  UNL     1      10.777 -53.562   3.123  1.00  0.00     0.214 HD
ENDBRANCH  29  30
BRANCH  29  32
HETATM   32  O8  UNL     1      13.031 -54.060   4.044  1.00  0.00    -0.355 OA
ATOM     33  H8  UNL     1      13.021 -53.284   3.496  1.00  0.00     0.214 HD
ENDBRANCH  29  32
ENDBRANCH  27  29
ENDBRANCH   6  27
BRANCH   1  34
HETATM   34  C3  UNL     1      15.063 -55.846   9.194  1.00  0.00     0.280 C
HETATM   35  N1  UNL     1      16.147 -56.360   8.471  1.00  0.00    -0.292 N
HETATM   36  C2  UNL     1      17.380 -56.668   9.097  1.00  0.00     0.220 C
ATOM     37  H1  UNL     1      16.045 -56.517   7.468  1.00  0.00     0.172 HD
HETATM   38  C1  UNL     1      17.654 -56.491  10.510  1.00  0.00     0.117 C
HETATM   39  O1  UNL     1      18.313 -57.133   8.357  1.00  0.00    -0.274 OA
HETATM   40  O2  UNL     1      15.236 -55.667  10.451  1.00  0.00    -0.265 OA
ENDBRANCH   1  34
TORSDOF 10
ENDMDL