MODEL 3
REMARK VINA RESULT: -8.016443668      1.876      2.333
REMARK  10 active torsions:
REMARK  status: ('A' for Active; 'I' for Inactive)
REMARK    1  A    between atoms: C2_2  and  C3_3
REMARK    2  A    between atoms: C2_2  and  N9_33
REMARK    3  A    between atoms: C3_3  and  N1_4
REMARK    4  A    between atoms: N1_4  and  C4_6
REMARK    5  A    between atoms: C4_6  and  C5_12
REMARK    6  A    between atoms: N2_7  and  N3_9
REMARK    7  A    between atoms: C6_14  and  O2_15
REMARK    8  A    between atoms: C10_22  and  C11_23
REMARK       I    between atoms: C11_23  and  N6_25
REMARK    9  A    between atoms: N6_25  and  N7_27
REMARK   10  A    between atoms: C13_38  and  N12_39
ROOT
HETATM    1  C4  UNL     1       7.944 -12.543   7.017  1.00  0.00     0.152 C
HETATM    2  N2  UNL     1       7.590 -12.967   8.176  1.00  0.00    -0.290 N
ATOM      3  H2  UNL     1       7.168 -12.321   8.844  1.00  0.00     0.188 HD
ENDROOT
BRANCH   1   4
HETATM    4  N1  UNL     1       7.735 -11.179   6.697  1.00  0.00    -0.371 N
ATOM      5  H1  UNL     1       8.199 -10.846   5.852  1.00  0.00     0.161 HD
BRANCH   4   6
HETATM    6  C3  UNL     1       6.968 -10.218   7.395  1.00  0.00     0.150 C
BRANCH   6   7
HETATM    7  C2  UNL     1       7.650  -9.367   8.395  1.00  0.00     0.143 C
HETATM    8  C1  UNL     1       7.243  -9.699   9.799  1.00  0.00     0.038 C
BRANCH   7   9
HETATM    9  N9  UNL     1       7.229  -7.978   8.142  1.00  0.00    -0.199 N
HETATM   10  N10 UNL     1       6.924  -7.042   9.024  1.00  0.00    -0.211 N
HETATM   11  N11 UNL     1       6.595  -5.927   8.422  1.00  0.00    -0.115 N
ATOM     12  H10 UNL     1       6.943  -7.170  10.036  1.00  0.00     0.210 HD
HETATM   13  C13 UNL     1       6.688  -6.143   7.097  1.00  0.00     0.711 A
ATOM     14  H11 UNL     1       6.319  -5.055   8.873  1.00  0.00     0.207 HD
HETATM   15  N13 UNL     1       7.081  -7.414   6.944  1.00  0.00    -0.113 N
ATOM     16  H13 UNL     1       7.241  -7.878   6.050  1.00  0.00     0.207 HD
BRANCH  13  17
HETATM   17  N12 UNL     1       6.411  -5.171   6.082  1.00  0.00    -0.224 N
HETATM   18  C14 UNL     1       7.187  -3.963   5.984  1.00  0.00     0.168 C
HETATM   19  C15 UNL     1       5.315  -5.443   5.150  1.00  0.00     0.168 C
ENDBRANCH  13  17
ENDBRANCH   7   9
ENDBRANCH   6   7
ENDBRANCH   4   6
ENDBRANCH   1   4
BRANCH   1  20
HETATM   20  C5  UNL     1       8.551 -13.488   6.094  1.00  0.00     0.150 A
HETATM   21  O1  UNL     1       9.609 -14.142   6.434  1.00  0.00    -0.280 OA
HETATM   22  C6  UNL     1      10.236 -15.006   5.701  1.00  0.00     0.209 A
HETATM   23  C7  UNL     1       9.735 -15.264   4.426  1.00  0.00     0.119 A
HETATM   24  N4  UNL     1      10.386 -16.192   3.610  1.00  0.00    -0.096 NA
HETATM   25  C8  UNL     1       8.605 -14.621   3.956  1.00  0.00     0.049 A
HETATM   26  C9  UNL     1       7.859 -14.628   2.797  1.00  0.00     0.093 A
HETATM   27  C12 UNL     1       7.976 -13.665   4.865  1.00  0.00     0.085 A
HETATM   28  N5  UNL     1       8.172 -15.443   1.678  1.00  0.00    -0.099 NA
HETATM   29  C10 UNL     1       6.828 -13.730   2.978  1.00  0.00     0.128 A
HETATM   30  N8  UNL     1       6.917 -13.174   4.206  1.00  0.00    -0.347 N
ATOM     31  H8  UNL     1       6.271 -12.478   4.579  1.00  0.00     0.166 HD
BRANCH  22  32
HETATM   32  O2  UNL     1      11.370 -15.658   6.159  1.00  0.00    -0.339 OA
ATOM     33  H2  UNL     1      12.092 -15.869   5.577  1.00  0.00     0.220 HD
ENDBRANCH  22  32
BRANCH  29  34
HETATM   34  C11 UNL     1       5.822 -13.463   1.957  1.00  0.00     0.288 C
HETATM   35  O3  UNL     1       4.650 -13.121   2.251  1.00  0.00    -0.264 OA
HETATM   36  N6  UNL     1       6.120 -13.574   0.562  1.00  0.00    -0.271 N
ATOM     37  H6  UNL     1       7.065 -13.848   0.290  1.00  0.00     0.189 HD
BRANCH  36  38
HETATM   38  N7  UNL     1       5.198 -13.330  -0.435  1.00  0.00    -0.342 N
ATOM     39  H72 UNL     1       5.026 -12.356  -0.682  1.00  0.00     0.176 HD
ATOM     40  H71 UNL     1       4.690 -14.068  -0.924  1.00  0.00     0.176 HD
ENDBRANCH  36  38
ENDBRANCH  29  34
ENDBRANCH   1  20
BRANCH   2  41
HETATM   41  N3  UNL     1       7.776 -14.295   8.529  1.00  0.00    -0.344 N
ATOM     42  H32 UNL     1       7.779 -15.001   7.793  1.00  0.00     0.176 HD
ATOM     43  H31 UNL     1       7.906 -14.560   9.505  1.00  0.00     0.176 HD
ENDBRANCH   2  41
TORSDOF 10
ENDMDL