MODEL 5
REMARK VINA RESULT: -7.792230712      2.267      3.151
REMARK  11 active torsions:
REMARK  status: ('A' for Active; 'I' for Inactive)
REMARK    1  A    between atoms: C2_3  and  N2_4
REMARK    2  A    between atoms: C2_3  and  C10_28
REMARK    3  A    between atoms: N2_4  and  N3_6
REMARK    4  A    between atoms: N4_8  and  C3_10
REMARK    5  A    between atoms: C4_13  and  N6_14
REMARK    6  A    between atoms: C5_19  and  N8_20
REMARK    7  A    between atoms: C10_28  and  C11_30
REMARK    8  A    between atoms: C12_33  and  O3_34
REMARK    9  A    between atoms: C13_36  and  O4_37
REMARK   10  A    between atoms: C14_41  and  N12_42
REMARK   11  A    between atoms: N12_42  and  N13_44
ROOT
HETATM    1  N1  UNL     1      11.084 -14.534   7.751  1.00  0.00    -0.195 NA
HETATM    2  C1  UNL     1      10.850 -14.791   6.644  1.00  0.00     0.094 C
HETATM    3  C2  UNL     1      10.569 -15.131   5.249  1.00  0.00     0.283 C
ENDROOT
BRANCH   3   4
HETATM    4  N2  UNL     1       9.169 -15.346   5.048  1.00  0.00    -0.295 N
ATOM      5  H2  UNL     1       8.775 -15.135   4.132  1.00  0.00     0.183 HD
BRANCH   4   6
HETATM    6  N3  UNL     1       8.324 -15.825   6.031  1.00  0.00    -0.231 N
HETATM    7  N4  UNL     1       7.408 -15.145   6.549  1.00  0.00    -0.117 N
ATOM      8  H4  UNL     1       6.835 -15.585   7.269  1.00  0.00     0.207 HD
ATOM      9  H3  UNL     1       8.453 -16.785   6.351  1.00  0.00     0.208 HD
BRANCH   7  10
HETATM   10  C3  UNL     1       7.117 -13.798   6.198  1.00  0.00     0.727 A
HETATM   11  N5  UNL     1       6.627 -13.481   4.976  1.00  0.00    -0.020 N
HETATM   12  C4  UNL     1       6.340 -12.233   4.602  1.00  0.00     0.705 A
ATOM     13  H5  UNL     1       6.468 -14.235   4.308  1.00  0.00     0.203 HD
HETATM   14  N7  UNL     1       6.555 -11.245   5.504  1.00  0.00    -0.022 N
HETATM   15  C5  UNL     1       7.043 -11.499   6.739  1.00  0.00     0.709 A
ATOM     16  H7  UNL     1       6.342 -10.282   5.243  1.00  0.00     0.203 HD
HETATM   17  N9  UNL     1       7.310 -12.772   7.048  1.00  0.00    -0.020 N
ATOM     18  H9  UNL     1       7.678 -12.977   7.977  1.00  0.00     0.203 HD
BRANCH  12  19
HETATM   19  N6  UNL     1       5.870 -11.922   3.436  1.00  0.00    -0.234 N
ATOM     20  H62 UNL     1       6.418 -11.310   2.832  1.00  0.00     0.174 HD
ATOM     21  H61 UNL     1       4.973 -12.253   3.080  1.00  0.00     0.174 HD
ENDBRANCH  12  19
BRANCH  15  22
HETATM   22  N8  UNL     1       7.241 -10.405   7.625  1.00  0.00    -0.213 N
HETATM   23  C6  UNL     1       7.136  -9.074   7.107  1.00  0.00     0.167 C
HETATM   24  C7  UNL     1       7.141  -8.009   8.154  1.00  0.00     0.188 C
HETATM   25  O1  UNL     1       7.789  -8.359   9.318  1.00  0.00    -0.388 OA
HETATM   26  C8  UNL     1       7.238  -9.501   9.880  1.00  0.00     0.188 C
HETATM   27  C9  UNL     1       7.539 -10.692   9.004  1.00  0.00     0.167 C
ENDBRANCH  15  22
ENDBRANCH   7  10
ENDBRANCH   4   6
ENDBRANCH   3   4
BRANCH   3  28
HETATM   28  C10 UNL     1      11.359 -16.316   4.845  1.00  0.00     0.217 C
HETATM   29  O2  UNL     1      12.362 -16.148   4.116  1.00  0.00    -0.287 OA
BRANCH  28  30
HETATM   30  C11 UNL     1      11.022 -17.663   5.255  1.00  0.00     0.130 A
HETATM   31  N10 UNL     1      11.291 -18.128   6.501  1.00  0.00    -0.327 N
HETATM   32  C12 UNL     1      10.964 -19.381   6.843  1.00  0.00     0.193 A
ATOM     33  H10 UNL     1      11.746 -17.520   7.181  1.00  0.00     0.168 HD
HETATM   34  C13 UNL     1      10.350 -20.263   5.981  1.00  0.00     0.194 A
HETATM   35  N11 UNL     1      10.088 -19.793   4.748  1.00  0.00    -0.317 N
HETATM   36  C14 UNL     1      10.407 -18.538   4.383  1.00  0.00     0.152 A
ATOM     37  H11 UNL     1       9.634 -20.405   4.071  1.00  0.00     0.169 HD
BRANCH  32  38
HETATM   38  O3  UNL     1      11.242 -19.861   8.130  1.00  0.00    -0.343 OA
ATOM     39  H3  UNL     1      10.664 -20.491   8.543  1.00  0.00     0.219 HD
ENDBRANCH  32  38
BRANCH  34  40
HETATM   40  O4  UNL     1      10.023 -21.557   6.361  1.00  0.00    -0.343 OA
ATOM     41  H4  UNL     1       9.708 -21.763   7.233  1.00  0.00     0.219 HD
ENDBRANCH  34  40
BRANCH  36  42
HETATM   42  N12 UNL     1      10.125 -18.138   3.165  1.00  0.00    -0.290 N
ATOM     43  H12 UNL     1       9.755 -17.199   3.019  1.00  0.00     0.188 HD
BRANCH  42  44
HETATM   44  N13 UNL     1      10.322 -18.967   2.073  1.00  0.00    -0.344 N
ATOM     45 2H13 UNL     1      10.226 -19.973   2.206  1.00  0.00     0.176 HD
ATOM     46 1H13 UNL     1      10.557 -18.587   1.156  1.00  0.00     0.176 HD
ENDBRANCH  42  44
ENDBRANCH  36  42
ENDBRANCH  28  30
ENDBRANCH   3  28
TORSDOF 11
ENDMDL