MODEL 3
REMARK VINA RESULT: -6.313090388      3.062      5.940
REMARK  12 active torsions:
REMARK  status: ('A' for Active; 'I' for Inactive)
REMARK    1  A    between atoms: C2_3  and  C3_4
REMARK    2  A    between atoms: C3_4  and  N15_39
REMARK    3  A    between atoms: N2_5  and  N3_7
REMARK    4  A    between atoms: C4_9  and  S1_10
REMARK    5  A    between atoms: C4_9  and  N7_22
REMARK    6  A    between atoms: S1_10  and  C5_11
REMARK    7  A    between atoms: C5_11  and  C6_12
REMARK    8  A    between atoms: C6_12  and  N4_13
REMARK    9  A    between atoms: N4_13  and  C7_15
REMARK   10  A    between atoms: N11_28  and  C11_29
REMARK   11  A    between atoms: C12_35  and  N14_36
REMARK   12  A    between atoms: N15_39  and  N16_41
ROOT
HETATM    1  N1  UNL     1       7.382  -7.975   9.127  1.00  0.00    -0.197 NA
HETATM    2  C1  UNL     1       7.598  -9.073   9.412  1.00  0.00     0.066 C
HETATM    3  C2  UNL     1       7.898 -10.461   9.768  1.00  0.00     0.203 C
ENDROOT
BRANCH   3   4
HETATM    4  C3  UNL     1       7.614 -11.387   8.637  1.00  0.00     0.123 C
HETATM    5  N2  UNL     1       7.520 -10.899   7.452  1.00  0.00    -0.285 N
ATOM      6  H2  UNL     1       7.653  -9.890   7.380  1.00  0.00     0.188 HD
BRANCH   5   7
HETATM    7  N3  UNL     1       7.273 -11.531   6.299  1.00  0.00    -0.276 N
HETATM    8  C4  UNL     1       6.326 -11.660   5.495  1.00  0.00     0.196 C
ATOM      9  H3  UNL     1       8.090 -12.058   5.989  1.00  0.00     0.189 HD
BRANCH   8  10
HETATM   10  S1  UNL     1       4.762 -10.885   5.715  1.00  0.00    -0.088 SA
BRANCH  10  11
HETATM   11  C5  UNL     1       4.112  -9.970   4.351  1.00  0.00     0.102 C
BRANCH  11  12
HETATM   12  C6  UNL     1       4.024  -8.488   4.511  1.00  0.00     0.133 C
BRANCH  12  13
HETATM   13  N4  UNL     1       4.647  -8.111   5.755  1.00  0.00    -0.362 N
ATOM     14  H4  UNL     1       4.720  -8.819   6.486  1.00  0.00     0.162 HD
BRANCH  13  15
HETATM   15  C7  UNL     1       5.161  -6.826   6.025  1.00  0.00     0.171 A
HETATM   16  N5  UNL     1       5.588  -6.438   7.175  1.00  0.00    -0.361 N
HETATM   17  C8  UNL     1       6.052  -5.058   7.109  1.00  0.00     0.142 A
ATOM     18  H5  UNL     1       5.600  -7.015   8.016  1.00  0.00     0.162 HD
HETATM   19  C9  UNL     1       5.856  -4.590   5.692  1.00  0.00     0.142 A
HETATM   20  N6  UNL     1       5.286  -5.765   5.065  1.00  0.00    -0.361 N
ATOM     21  H6  UNL     1       5.014  -5.829   4.084  1.00  0.00     0.162 HD
ENDBRANCH  13  15
ENDBRANCH  12  13
ENDBRANCH  11  12
ENDBRANCH  10  11
ENDBRANCH   8  10
BRANCH   8  22
HETATM   22  N7  UNL     1       6.566 -12.555   4.376  1.00  0.00    -0.144 N
HETATM   23  N8  UNL     1       6.104 -12.420   3.064  1.00  0.00     0.006 NA
HETATM   24  N9  UNL     1       6.591 -13.508   2.356  1.00  0.00    -0.254 N
HETATM   25  C10 UNL     1       7.291 -14.283   3.090  1.00  0.00     0.230 A
ATOM     26  H9  UNL     1       6.410 -13.671   1.366  1.00  0.00     0.187 HD
HETATM   27  N10 UNL     1       7.937 -15.496   2.662  1.00  0.00    -0.060 NA
HETATM   28  N11 UNL     1       7.316 -13.733   4.390  1.00  0.00    -0.182 N
BRANCH  28  29
HETATM   29  C11 UNL     1       7.975 -14.267   5.526  1.00  0.00     0.199 A
HETATM   30  N12 UNL     1       7.408 -14.859   6.591  1.00  0.00    -0.220 N
HETATM   31  O1  UNL     1       8.384 -15.188   7.388  1.00  0.00    -0.153 OA
ATOM     32  H12 UNL     1       6.412 -15.018   6.745  1.00  0.00     0.198 HD
HETATM   33  N13 UNL     1       9.534 -14.847   6.904  1.00  0.00    -0.222 N
HETATM   34  C12 UNL     1       9.338 -14.253   5.714  1.00  0.00     0.169 A
ATOM     35  H13 UNL     1      10.438 -15.002   7.350  1.00  0.00     0.198 HD
BRANCH  34  36
HETATM   36  N14 UNL     1      10.265 -13.781   4.939  1.00  0.00    -0.381 N
ATOM     37 2H14 UNL     1      11.186 -13.460   5.238  1.00  0.00     0.157 HD
ATOM     38 1H14 UNL     1      10.251 -13.645   3.928  1.00  0.00     0.157 HD
ENDBRANCH  34  36
ENDBRANCH  28  29
ENDBRANCH   8  22
ENDBRANCH   5   7
BRANCH   4  39
HETATM   39  N15 UNL     1       7.455 -12.768   8.894  1.00  0.00    -0.294 N
ATOM     40  H15 UNL     1       7.027 -13.372   8.192  1.00  0.00     0.187 HD
BRANCH  39  41
HETATM   41  N16 UNL     1       7.877 -13.294  10.083  1.00  0.00    -0.344 N
ATOM     42 2H16 UNL     1       7.187 -13.681  10.725  1.00  0.00     0.176 HD
ATOM     43 1H16 UNL     1       8.870 -13.296  10.315  1.00  0.00     0.176 HD
ENDBRANCH  39  41
ENDBRANCH   4  39
ENDBRANCH   3   4
TORSDOF 12
ENDMDL