MODEL 5
REMARK VINA RESULT: -7.441544969      3.541      4.928
REMARK  11 active torsions:
REMARK  status: ('A' for Active; 'I' for Inactive)
REMARK    1  A    between atoms: C2_2  and  N1_3
REMARK    2  A    between atoms: C2_2  and  C10_37
REMARK    3  A    between atoms: N1_3  and  N2_5
REMARK    4  A    between atoms: N2_5  and  C3_7
REMARK    5  A    between atoms: C4_11  and  C5_12
REMARK       I    between atoms: C5_12  and  N4_14
REMARK    6  A    between atoms: N4_14  and  N5_16
REMARK    7  A    between atoms: N5_16  and  N6_18
REMARK    8  A    between atoms: N6_18  and  C6_20
REMARK    9  A    between atoms: C8_25  and  N9_26
REMARK   10  A    between atoms: N11_33  and  N12_34
REMARK   11  A    between atoms: N14_41  and  N15_42
ROOT
HETATM    1  C3  UNL     1       8.674 -15.009   6.727  1.00  0.00     0.284 A
HETATM    2  O1  UNL     1       8.598 -16.240   7.171  1.00  0.00    -0.195 OA
HETATM    3  N3  UNL     1       9.439 -16.973   6.508  1.00  0.00    -0.235 N
ATOM      4  H3  UNL     1       9.587 -17.973   6.649  1.00  0.00     0.197 HD
HETATM    5  C4  UNL     1      10.093 -16.202   5.594  1.00  0.00     0.221 A
HETATM    6  N11 UNL     1       9.595 -14.963   5.748  1.00  0.00    -0.199 N
ENDROOT
BRANCH   5   7
HETATM    7  C5  UNL     1      11.109 -16.609   4.650  1.00  0.00     0.308 C
HETATM    8  O2  UNL     1      12.310 -16.305   4.857  1.00  0.00    -0.262 OA
HETATM    9  N4  UNL     1      10.804 -17.351   3.479  1.00  0.00    -0.249 N
ATOM     10  H4  UNL     1       9.831 -17.602   3.305  1.00  0.00     0.192 HD
BRANCH   9  11
HETATM   11  N5  UNL     1      11.761 -17.753   2.559  1.00  0.00    -0.239 N
ATOM     12  H5  UNL     1      11.968 -18.743   2.426  1.00  0.00     0.208 HD
BRANCH  11  13
HETATM   13  N6  UNL     1      12.382 -16.861   1.877  1.00  0.00    -0.278 N
ATOM     14  H6  UNL     1      12.008 -15.913   1.827  1.00  0.00     0.189 HD
BRANCH  13  15
HETATM   15  C6  UNL     1      13.585 -17.179   1.189  1.00  0.00     0.160 A
HETATM   16  C7  UNL     1      13.540 -17.647  -0.107  1.00  0.00     0.165 A
HETATM   17  N7  UNL     1      12.284 -17.826  -0.790  1.00  0.00    -0.079 NA
HETATM   18  N8  UNL     1      14.702 -17.938  -0.728  1.00  0.00    -0.176 N
HETATM   19  C8  UNL     1      15.896 -17.787  -0.128  1.00  0.00     0.680 A
ATOM     20  H8  UNL     1      14.673 -18.287  -1.686  1.00  0.00     0.185 HD
HETATM   21  N10 UNL     1      15.934 -17.330   1.132  1.00  0.00    -0.154 N
HETATM   22  C9  UNL     1      14.810 -17.022   1.804  1.00  0.00     0.291 A
ATOM     23  H10 UNL     1      16.837 -17.213   1.592  1.00  0.00     0.187 HD
HETATM   24  O3  UNL     1      14.909 -16.599   2.984  1.00  0.00    -0.265 OA
BRANCH  19  25
HETATM   25  N9  UNL     1      17.009 -18.078  -0.756  1.00  0.00    -0.234 N
ATOM     26  H92 UNL     1      17.324 -19.046  -0.818  1.00  0.00     0.174 HD
ATOM     27  H91 UNL     1      17.573 -17.347  -1.190  1.00  0.00     0.174 HD
ENDBRANCH  19  25
ENDBRANCH  13  15
ENDBRANCH  11  13
ENDBRANCH   9  11
ENDBRANCH   5   7
BRANCH   6  28
HETATM   28  N12 UNL     1      10.010 -13.855   4.985  1.00  0.00    -0.333 N
ATOM     29 2H12 UNL     1      10.798 -13.259   5.236  1.00  0.00     0.177 HD
ATOM     30 1H12 UNL     1       9.612 -13.497   4.117  1.00  0.00     0.177 HD
ENDBRANCH   6  28
BRANCH   1  31
HETATM   31  N2  UNL     1       7.982 -14.010   7.155  1.00  0.00    -0.262 N
ATOM     32  H2  UNL     1       7.547 -13.421   6.445  1.00  0.00     0.190 HD
BRANCH  31  33
HETATM   33  N1  UNL     1       7.773 -13.665   8.426  1.00  0.00    -0.300 N
ATOM     34  H1  UNL     1       7.382 -14.463   8.926  1.00  0.00     0.186 HD
BRANCH  33  35
HETATM   35  C2  UNL     1       7.885 -12.719   9.212  1.00  0.00     0.052 C
HETATM   36  C1  UNL     1       8.291 -13.129  10.629  1.00  0.00     0.072 C
BRANCH  35  37
HETATM   37  C10 UNL     1       7.687 -11.284   8.983  1.00  0.00     0.100 A
HETATM   38  N13 UNL     1       7.549 -10.372  10.010  1.00  0.00    -0.346 N
HETATM   39  C11 UNL     1       7.385  -9.157   9.480  1.00  0.00     0.208 A
ATOM     40  H13 UNL     1       7.568 -10.590  11.006  1.00  0.00     0.167 HD
HETATM   41  N14 UNL     1       7.407  -9.207   8.150  1.00  0.00    -0.242 N
HETATM   42  C12 UNL     1       7.595 -10.533   7.848  1.00  0.00     0.167 A
HETATM   43  N16 UNL     1       7.678 -11.016   6.510  1.00  0.00    -0.078 NA
BRANCH  41  44
HETATM   44  N15 UNL     1       7.276  -8.194   7.207  1.00  0.00    -0.336 N
ATOM     45 2H15 UNL     1       7.768  -8.165   6.314  1.00  0.00     0.177 HD
ATOM     46 1H15 UNL     1       6.707  -7.347   7.221  1.00  0.00     0.177 HD
ENDBRANCH  41  44
ENDBRANCH  35  37
ENDBRANCH  33  35
ENDBRANCH  31  33
ENDBRANCH   1  31
TORSDOF 11
ENDMDL