MODEL 1
REMARK VINA RESULT: -8.071945063      0.000      0.000
REMARK  8 active torsions:
REMARK  status: ('A' for Active; 'I' for Inactive)
REMARK    1  A    between atoms: N1_1  and  C1_4
REMARK    2  A    between atoms: N3_8  and  C3_9
REMARK    3  A    between atoms: C3_9  and  N4_10
REMARK    4  A    between atoms: N4_10  and  C4_12
REMARK    5  A    between atoms: C5_17  and  C6_18
REMARK       I    between atoms: C6_18  and  N7_20
REMARK    6  A    between atoms: N7_20  and  C7_22
REMARK    7  A    between atoms: C7_22  and  C8_23
REMARK    8  A    between atoms: N8_25  and  C10_26
ROOT
HETATM    1  C4  UNL     1       4.977  -6.328   5.709  1.00  0.00     0.152 C
HETATM    2  N5  UNL     1       4.240  -7.435   5.596  1.00  0.00    -0.283 N
ATOM      3  H5  UNL     1       4.017  -7.825   6.511  1.00  0.00     0.188 HD
HETATM    4  N6  UNL     1       3.713  -8.177   4.608  1.00  0.00    -0.293 N
ATOM      5  H6  UNL     1       3.033  -8.870   4.922  1.00  0.00     0.187 HD
HETATM    6  C5  UNL     1       3.922  -8.169   3.267  1.00  0.00     0.131 C
HETATM    7  C13 UNL     1       4.106  -7.143   2.360  1.00  0.00     0.126 C
HETATM    8  N14 UNL     1       4.822  -5.980   2.362  1.00  0.00    -0.348 N
ATOM      9  H14 UNL     1       5.072  -5.656   1.427  1.00  0.00     0.167 HD
HETATM   10  C14 UNL     1       5.263  -5.177   3.339  1.00  0.00     0.137 A
HETATM   11  N15 UNL     1       5.766  -4.209   4.193  1.00  0.00    -0.334 N
ATOM     12  H15 UNL     1       6.181  -3.283   4.296  1.00  0.00     0.168 HD
HETATM   13  C15 UNL     1       5.320  -5.353   4.803  1.00  0.00     0.124 A
ENDROOT
BRANCH   6  14
HETATM   14  C6  UNL     1       3.943  -9.484   2.671  1.00  0.00     0.271 C
HETATM   15  O1  UNL     1       3.220  -9.710   1.672  1.00  0.00    -0.266 OA
HETATM   16  N7  UNL     1       4.746 -10.510   3.182  1.00  0.00    -0.350 N
ATOM     17  H7  UNL     1       5.333 -10.330   3.997  1.00  0.00     0.163 HD
BRANCH  16  18
HETATM   18  C7  UNL     1       4.757 -11.835   2.569  1.00  0.00     0.183 C
BRANCH  18  19
HETATM   19  C8  UNL     1       5.846 -12.605   3.206  1.00  0.00     0.062 A
HETATM   20  C9  UNL     1       6.339 -12.412   4.466  1.00  0.00     0.142 A
HETATM   21  N8  UNL     1       7.311 -13.325   4.631  1.00  0.00    -0.262 N
HETATM   22  N12 UNL     1       7.432 -14.059   3.541  1.00  0.00    -0.239 N
HETATM   23  N13 UNL     1       6.539 -13.629   2.656  1.00  0.00    -0.287 N
ATOM     24  H12 UNL     1       8.095 -14.822   3.402  1.00  0.00     0.208 HD
ATOM     25  H13 UNL     1       6.398 -14.008   1.719  1.00  0.00     0.188 HD
BRANCH  21  26
HETATM   26  C10 UNL     1       8.133 -13.517   5.814  1.00  0.00     0.223 C
HETATM   27  C11 UNL     1       9.605 -13.556   5.461  1.00  0.00     0.183 C
HETATM   28  N9  UNL     1       9.952 -14.892   5.091  1.00  0.00    -0.137 NA
HETATM   29  N10 UNL     1       9.685 -15.795   6.127  1.00  0.00    -0.300 N
HETATM   30  C12 UNL     1       8.371 -15.750   6.677  1.00  0.00     0.191 C
ATOM     31  H10 UNL     1      10.391 -16.448   6.468  1.00  0.00     0.183 HD
HETATM   32  N11 UNL     1       7.682 -14.682   6.513  1.00  0.00    -0.361 N
ATOM     33  H11 UNL     1       6.743 -14.660   6.911  1.00  0.00     0.162 HD
ENDBRANCH  21  26
ENDBRANCH  18  19
ENDBRANCH  16  18
ENDBRANCH   6  14
BRANCH   1  34
HETATM   34  N4  UNL     1       5.481  -6.136   7.006  1.00  0.00    -0.333 N
ATOM     35  H4  UNL     1       4.819  -5.770   7.690  1.00  0.00     0.168 HD
BRANCH  34  36
HETATM   36  C3  UNL     1       6.796  -6.386   7.489  1.00  0.00     0.228 C
BRANCH  36  37
HETATM   37  N3  UNL     1       7.091  -7.749   7.844  1.00  0.00    -0.191 N
HETATM   38  N2  UNL     1       7.433  -8.735   7.053  1.00  0.00    -0.286 N
HETATM   39  C2  UNL     1       7.631  -9.866   7.735  1.00  0.00     0.158 A
ATOM     40  H2  UNL     1       7.535  -8.650   6.041  1.00  0.00     0.188 HD
HETATM   41  C1  UNL     1       7.391  -9.546   9.054  1.00  0.00     0.132 A
HETATM   42  N16 UNL     1       7.067  -8.251   9.071  1.00  0.00    -0.263 N
ATOM     43  H16 UNL     1       6.835  -7.721   9.910  1.00  0.00     0.191 HD
BRANCH  41  44
HETATM   44  N1  UNL     1       7.456 -10.309  10.095  1.00  0.00    -0.383 N
ATOM     45  H12 UNL     1       6.679 -10.846  10.478  1.00  0.00     0.157 HD
ATOM     46  H11 UNL     1       8.258 -10.500  10.696  1.00  0.00     0.157 HD
ENDBRANCH  41  44
ENDBRANCH  36  37
ENDBRANCH  34  36
ENDBRANCH   1  34
TORSDOF 8
ENDMDL