MODEL 2
REMARK VINA RESULT: -6.687652272      0.968      1.269
REMARK  13 active torsions:
REMARK  status: ('A' for Active; 'I' for Inactive)
REMARK    1  A    between atoms: O1_2  and  C2_3
REMARK    2  A    between atoms: C2_3  and  O2_4
REMARK    3  A    between atoms: C2_3  and  N1_6
REMARK    4  A    between atoms: N1_6  and  C3_8
REMARK    5  A    between atoms: C4_10  and  C5_11
REMARK    6  A    between atoms: C6_12  and  C7_13
REMARK    7  A    between atoms: C7_13  and  O5_15
REMARK    8  A    between atoms: O5_15  and  C8_16
REMARK    9  A    between atoms: C8_16  and  O6_17
REMARK   10  A    between atoms: C8_16  and  C9_19
REMARK   11  A    between atoms: C12_31  and  C13_32
REMARK   12  A    between atoms: C13_32  and  O9_33
REMARK   13  A    between atoms: C13_32  and  O10_35
ROOT
HETATM    1  C5  UNL     1      10.897 -16.325   3.539  1.00  0.00     0.136 A
HETATM    2  C6  UNL     1      10.919 -16.261   4.908  1.00  0.00     0.155 A
HETATM    3  N2  UNL     1       9.849 -15.517   5.337  1.00  0.00    -0.182 N
ATOM      4  H2  UNL     1       9.610 -15.301   6.305  1.00  0.00     0.184 HD
HETATM    5  C10 UNL     1       9.186 -15.133   4.263  1.00  0.00     0.693 A
HETATM    6  N3  UNL     1       8.118 -14.410   4.300  1.00  0.00    -0.233 N
ATOM      7  H31 UNL     1       7.605 -14.113   3.469  1.00  0.00     0.174 HD
ATOM      8  H32 UNL     1       7.643 -14.042   5.124  1.00  0.00     0.174 HD
HETATM    9  N4  UNL     1       9.820 -15.623   3.165  1.00  0.00    -0.075 N
HETATM   10  C11 UNL     1       9.262 -15.416   1.898  1.00  0.00     0.204 C
HETATM   11  N5  UNL     1       8.779 -15.267   0.848  1.00  0.00    -0.171 NA
ENDROOT
BRANCH   1  12
HETATM   12  C4  UNL     1      11.799 -17.150   2.661  1.00  0.00     0.127 A
HETATM   13  O3  UNL     1      12.951 -16.674   2.322  1.00  0.00    -0.284 OA
HETATM   14  C3  UNL     1      13.762 -17.301   1.585  1.00  0.00     0.192 A
HETATM   15  S1  UNL     1      12.928 -18.746   1.258  1.00  0.00    -0.043 SA
HETATM   16  C12 UNL     1      11.489 -18.391   2.171  1.00  0.00     0.077 A
BRANCH  14  17
HETATM   17  N1  UNL     1      14.959 -16.950   1.158  1.00  0.00    -0.316 N
ATOM     18  H1  UNL     1      15.189 -17.034   0.168  1.00  0.00     0.167 HD
BRANCH  17  19
HETATM   19  C2  UNL     1      15.948 -16.446   2.085  1.00  0.00     0.369 C
BRANCH  19  20
HETATM   20  O1  UNL     1      17.120 -17.178   1.904  1.00  0.00    -0.349 OA
HETATM   21  C1  UNL     1      17.877 -17.131   3.049  1.00  0.00     0.206 C
ENDBRANCH  19  20
BRANCH  19  22
HETATM   22  O2  UNL     1      15.538 -16.489   3.402  1.00  0.00    -0.355 OA
ATOM     23  H2  UNL     1      15.074 -17.297   3.586  1.00  0.00     0.214 HD
ENDBRANCH  19  22
ENDBRANCH  17  19
ENDBRANCH  14  17
BRANCH  16  24
HETATM   24  C13 UNL     1      10.264 -19.242   2.274  1.00  0.00     0.298 C
BRANCH  24  25
HETATM   25  O9  UNL     1      10.204 -20.232   1.314  1.00  0.00    -0.367 OA
ATOM     26  H9  UNL     1       9.501 -20.106   0.688  1.00  0.00     0.213 HD
ENDBRANCH  24  25
BRANCH  24  27
HETATM   27  O10 UNL     1      10.439 -19.970   3.502  1.00  0.00    -0.367 OA
ATOM     28  H10 UNL     1      11.357 -20.218   3.498  1.00  0.00     0.213 HD
ENDBRANCH  24  27
ENDBRANCH  16  24
ENDBRANCH   1  12
BRANCH   2  29
HETATM   29  C7  UNL     1      11.901 -16.849   5.810  1.00  0.00     0.316 C
HETATM   30  O4  UNL     1      13.121 -16.920   5.626  1.00  0.00    -0.257 OA
BRANCH  29  31
HETATM   31  O5  UNL     1      11.467 -17.408   7.035  1.00  0.00    -0.274 OA
BRANCH  31  32
HETATM   32  C8  UNL     1      10.393 -18.329   7.095  1.00  0.00     0.369 C
BRANCH  32  33
HETATM   33  O6  UNL     1       9.698 -18.251   8.297  1.00  0.00    -0.362 OA
ATOM     34  H6  UNL     1       8.772 -18.438   8.191  1.00  0.00     0.213 HD
ENDBRANCH  32  33
BRANCH  32  35
HETATM   35  C9  UNL     1      10.957 -19.692   6.931  1.00  0.00     0.231 C
HETATM   36  O7  UNL     1      12.100 -19.960   7.381  1.00  0.00    -0.644 OA
HETATM   37  O8  UNL     1      10.244 -20.675   6.288  1.00  0.00    -0.644 OA
ENDBRANCH  32  35
ENDBRANCH  31  32
ENDBRANCH  29  31
ENDBRANCH   2  29
TORSDOF 13
ENDMDL