MODEL 5
REMARK VINA RESULT: -6.891726085      3.974      6.440
REMARK  10 active torsions:
REMARK  status: ('A' for Active; 'I' for Inactive)
REMARK    1  A    between atoms: C2_7  and  C3_8
REMARK    2  A    between atoms: C4_13  and  O1_14
REMARK    3  A    between atoms: O1_14  and  C5_15
REMARK    4  A    between atoms: C9_21  and  N7_22
REMARK    5  A    between atoms: N10_32  and  O3_34
REMARK    6  A    between atoms: N11_36  and  C12_37
REMARK    7  A    between atoms: C12_37  and  C13_38
REMARK    8  A    between atoms: C13_38  and  O4_39
REMARK    9  A    between atoms: C13_38  and  C14_41
REMARK   10  A    between atoms: C14_41  and  O5_42
ROOT
HETATM    1  C3  UNL     1       6.822 -12.782   4.337  1.00  0.00     0.173 A
HETATM    2  N4  UNL     1       6.645 -13.482   3.178  1.00  0.00    -0.279 N
ATOM      3  H4  UNL     1       5.844 -13.398   2.553  1.00  0.00     0.189 HD
HETATM    4  N5  UNL     1       7.678 -14.288   2.994  1.00  0.00    -0.263 N
ATOM      5  H5  UNL     1       7.801 -14.923   2.206  1.00  0.00     0.190 HD
HETATM    6  C4  UNL     1       8.537 -14.134   4.011  1.00  0.00     0.243 A
HETATM    7  N11 UNL     1       7.999 -13.210   4.824  1.00  0.00    -0.291 N
ENDROOT
BRANCH   6   8
HETATM    8  O1  UNL     1       9.717 -14.789   4.180  1.00  0.00    -0.307 OA
BRANCH   8   9
HETATM    9  C5  UNL     1       9.848 -16.128   4.600  1.00  0.00     0.205 C
HETATM   10  C6  UNL     1      10.891 -16.324   5.643  1.00  0.00     0.088 C
HETATM   11  C7  UNL     1      10.922 -17.753   6.045  1.00  0.00     0.058 A
HETATM   12  C8  UNL     1      10.588 -18.776   5.187  1.00  0.00     0.134 A
HETATM   13  C10 UNL     1      11.317 -18.092   7.350  1.00  0.00     0.269 A
HETATM   14  N6  UNL     1      10.627 -20.080   5.553  1.00  0.00    -0.176 N
HETATM   15  N9  UNL     1      10.169 -18.444   3.852  1.00  0.00    -0.328 N
HETATM   16  C9  UNL     1      11.007 -20.365   6.802  1.00  0.00     0.680 A
ATOM     17  H6  UNL     1      10.374 -20.820   4.898  1.00  0.00     0.186 HD
HETATM   18  N8  UNL     1      11.341 -19.393   7.669  1.00  0.00    -0.156 N
ATOM     19  H8  UNL     1      11.625 -19.658   8.612  1.00  0.00     0.187 HD
HETATM   20  C11 UNL     1      10.125 -17.070   3.496  1.00  0.00     0.133 C
ATOM     21  H9  UNL     1       9.913 -19.171   3.183  1.00  0.00     0.169 HD
HETATM   22  N10 UNL     1      10.319 -16.723   2.284  1.00  0.00    -0.254 N
ATOM     23  H10 UNL     1      10.281 -15.729   2.060  1.00  0.00     0.195 HD
HETATM   24  O2  UNL     1      11.623 -17.162   8.139  1.00  0.00    -0.267 OA
BRANCH  16  25
HETATM   25  N7  UNL     1      11.058 -21.594   7.192  1.00  0.00    -0.234 N
ATOM     26  H72 UNL     1      10.393 -21.916   7.895  1.00  0.00     0.174 HD
ATOM     27  H71 UNL     1      11.756 -22.223   6.795  1.00  0.00     0.174 HD
ENDBRANCH  16  25
BRANCH  22  28
HETATM   28  O3  UNL     1      10.574 -17.599   1.269  1.00  0.00    -0.288 OA
ATOM     29  H3  UNL     1      11.082 -17.384   0.495  1.00  0.00     0.244 HD
ENDBRANCH  22  28
ENDBRANCH   8   9
ENDBRANCH   6   8
BRANCH   7  30
HETATM   30  C12 UNL     1       8.603 -12.731   6.070  1.00  0.00     0.168 C
BRANCH  30  31
HETATM   31  C13 UNL     1       8.383 -13.727   7.189  1.00  0.00     0.160 C
BRANCH  31  32
HETATM   32  O4  UNL     1       7.414 -14.668   6.839  1.00  0.00    -0.392 OA
ATOM     33  H4  UNL     1       6.577 -14.252   6.675  1.00  0.00     0.210 HD
ENDBRANCH  31  32
BRANCH  31  34
HETATM   34  C14 UNL     1       7.898 -13.048   8.444  1.00  0.00     0.197 C
BRANCH  34  35
HETATM   35  O5  UNL     1       7.606 -14.032   9.385  1.00  0.00    -0.398 OA
ATOM     36  H5  UNL     1       8.202 -14.759   9.247  1.00  0.00     0.209 HD
ENDBRANCH  34  35
ENDBRANCH  31  34
ENDBRANCH  30  31
ENDBRANCH   7  30
BRANCH   1  37
HETATM   37  C2  UNL     1       5.899 -11.789   4.890  1.00  0.00     0.184 A
HETATM   38  N3  UNL     1       5.614 -11.510   6.163  1.00  0.00    -0.265 N
HETATM   39  N2  UNL     1       4.729 -10.542   6.169  1.00  0.00    -0.225 N
ATOM     40  H3  UNL     1       6.013 -11.967   6.984  1.00  0.00     0.190 HD
HETATM   41  N1  UNL     1       4.443 -10.197   4.945  1.00  0.00    -0.223 N
ATOM     42  H2  UNL     1       4.324 -10.122   7.007  1.00  0.00     0.210 HD
HETATM   43  C1  UNL     1       3.521  -9.175   4.444  1.00  0.00     0.202 C
HETATM   44  N12 UNL     1       5.157 -10.957   4.143  1.00  0.00    -0.264 N
ATOM     45  H12 UNL     1       5.148 -10.919   3.124  1.00  0.00     0.190 HD
ENDBRANCH   1  37
TORSDOF 10
ENDMDL