MODEL 1
REMARK VINA RESULT: -8.760533900      0.000      0.000
REMARK  6 active torsions:
REMARK  status: ('A' for Active; 'I' for Inactive)
REMARK    1  A    between atoms: C2_7  and  C3_8
REMARK    2  A    between atoms: C4_13  and  N5_14
REMARK       I    between atoms: N5_14  and  C5_16
REMARK       I    between atoms: C5_16  and  N6_17
REMARK       I    between atoms: C5_16  and  N7_21
REMARK    3  A    between atoms: C6_25  and  C7_26
REMARK    4  A    between atoms: N9_30  and  C9_31
REMARK    5  A    between atoms: C9_31  and  C10_32
REMARK       I    between atoms: C10_32  and  N10_34
REMARK    6  A    between atoms: C12_40  and  N13_41
ROOT
HETATM    1  C7  UNL     1       9.828 -15.743   4.943  1.00  0.00     0.084 A
HETATM    2  C8  UNL     1      10.895 -15.006   5.447  1.00  0.00     0.141 A
HETATM    3  N8  UNL     1      10.359 -14.312   6.463  1.00  0.00    -0.293 N
ATOM      4  H8  UNL     1      10.877 -13.663   7.055  1.00  0.00     0.187 HD
HETATM    5  N9  UNL     1       9.073 -14.578   6.598  1.00  0.00    -0.225 N
HETATM    6  N16 UNL     1       8.745 -15.454   5.668  1.00  0.00    -0.281 N
ATOM      7  H16 UNL     1       7.815 -15.847   5.526  1.00  0.00     0.189 HD
ENDROOT
BRANCH   1   8
HETATM    8  C6  UNL     1       9.982 -16.644   3.814  1.00  0.00     0.081 A
HETATM    9  C1  UNL     1       9.595 -16.261   2.546  1.00  0.00     0.117 A
HETATM   10  N1  UNL     1       9.089 -15.096   2.342  1.00  0.00    -0.385 N
HETATM   11  N2  UNL     1       9.775 -17.169   1.548  1.00  0.00    -0.324 N
ATOM     12  H12 UNL     1       8.802 -14.814   1.405  1.00  0.00     0.157 HD
ATOM     13  H11 UNL     1       8.953 -14.417   3.091  1.00  0.00     0.157 HD
HETATM   14  C2  UNL     1      10.305 -18.385   1.770  1.00  0.00     0.174 A
ATOM     15  H2  UNL     1       9.498 -16.918   0.599  1.00  0.00     0.169 HD
HETATM   16  N4  UNL     1      10.680 -18.743   3.026  1.00  0.00    -0.324 N
HETATM   17  C4  UNL     1      10.523 -17.884   4.044  1.00  0.00     0.122 A
ATOM     18  H4  UNL     1      11.082 -19.665   3.194  1.00  0.00     0.169 HD
BRANCH  14  19
HETATM   19  C3  UNL     1      10.480 -19.326   0.674  1.00  0.00     0.298 C
HETATM   20  N3  UNL     1       9.948 -20.634   0.782  1.00  0.00    -0.054 NA
HETATM   21  O1  UNL     1      11.094 -19.004  -0.370  1.00  0.00    -0.268 OA
ENDBRANCH  14  19
BRANCH  17  22
HETATM   22  N5  UNL     1      10.905 -18.232   5.357  1.00  0.00    -0.326 N
HETATM   23  C5  UNL     1      10.761 -19.602   5.809  1.00  0.00     0.481 C
HETATM   24  N6  UNL     1      11.210 -19.741   7.180  1.00  0.00    -0.033 N
HETATM   25  N7  UNL     1       9.371 -19.956   5.694  1.00  0.00    -0.033 N
ATOM     26  H63 UNL     1      12.164 -19.403   7.301  1.00  0.00     0.278 HD
ATOM     27  H62 UNL     1      10.733 -19.087   7.802  1.00  0.00     0.278 HD
ATOM     28  H61 UNL     1      11.109 -20.705   7.497  1.00  0.00     0.278 HD
ATOM     29  H73 UNL     1       8.754 -19.309   6.187  1.00  0.00     0.278 HD
ATOM     30  H72 UNL     1       9.000 -19.807   4.756  1.00  0.00     0.278 HD
ATOM     31  H71 UNL     1       9.270 -20.920   6.012  1.00  0.00     0.278 HD
ATOM     32  H5  UNL     1      11.282 -17.523   5.986  1.00  0.00     0.164 HD
ENDBRANCH  17  22
ENDBRANCH   1   8
BRANCH   5  33
HETATM   33  C9  UNL     1       8.176 -13.995   7.609  1.00  0.00     0.274 C
BRANCH  33  34
HETATM   34  C10 UNL     1       7.854 -12.578   7.253  1.00  0.00     0.267 C
HETATM   35  O2  UNL     1       7.694 -12.309   6.042  1.00  0.00    -0.269 OA
HETATM   36  N10 UNL     1       7.729 -11.566   8.231  1.00  0.00    -0.189 N
HETATM   37  N11 UNL     1       7.894 -11.815   9.540  1.00  0.00    -0.231 N
HETATM   38  C14 UNL     1       7.448 -10.280   8.040  1.00  0.00     0.165 A
HETATM   39  N12 UNL     1       7.713 -10.677  10.164  1.00  0.00    -0.279 N
ATOM     40  H11 UNL     1       8.117 -12.715   9.966  1.00  0.00     0.209 HD
HETATM   41  C11 UNL     1       7.438  -9.698   9.302  1.00  0.00     0.139 A
ATOM     42  H12 UNL     1       7.775 -10.555  11.175  1.00  0.00     0.189 HD
HETATM   43  C12 UNL     1       7.171  -8.366   9.395  1.00  0.00     0.132 A
HETATM   44  N14 UNL     1       6.927  -7.645   8.281  1.00  0.00    -0.337 N
HETATM   45  C13 UNL     1       6.931  -8.178   7.056  1.00  0.00     0.183 A
ATOM     46  H14 UNL     1       6.729  -6.650   8.379  1.00  0.00     0.168 HD
HETATM   47  N15 UNL     1       7.197  -9.509   6.963  1.00  0.00    -0.335 N
ATOM     48  H15 UNL     1       7.206  -9.942   6.040  1.00  0.00     0.168 HD
BRANCH  43  49
HETATM   49  N13 UNL     1       7.163  -7.832  10.572  1.00  0.00    -0.383 N
ATOM     50 2H13 UNL     1       7.065  -8.392  11.418  1.00  0.00     0.157 HD
ATOM     51 1H13 UNL     1       7.258  -6.819  10.637  1.00  0.00     0.157 HD
ENDBRANCH  43  49
ENDBRANCH  33  34
ENDBRANCH   5  33
TORSDOF 6
ENDMDL