MODEL 2
REMARK VINA RESULT: -7.047908634      1.506      1.866
REMARK  9 active torsions:
REMARK  status: ('A' for Active; 'I' for Inactive)
REMARK    1  A    between atoms: N1_1  and  C1_4
REMARK    2  A    between atoms: C2_7  and  C3_8
REMARK    3  A    between atoms: C3_8  and  O1_9
REMARK    4  A    between atoms: C6_14  and  N4_15
REMARK    5  A    between atoms: C8_23  and  C9_24
REMARK    6  A    between atoms: C9_24  and  N7_25
REMARK    7  A    between atoms: C9_24  and  C10_29
REMARK    8  A    between atoms: C11_36  and  N12_37
REMARK    9  A    between atoms: N12_37  and  N13_39
REMARK       I    between atoms: N14_41  and  C12_43
ROOT
HETATM    1  C1  UNL     1       8.511 -16.348   2.156  1.00  0.00     0.677 A
HETATM    2  N2  UNL     1       8.239 -15.373   3.021  1.00  0.00    -0.190 N
ATOM      3  H2  UNL     1       7.442 -14.771   2.816  1.00  0.00     0.184 HD
HETATM    4  C2  UNL     1       8.956 -15.114   4.179  1.00  0.00     0.096 A
HETATM    5  C8  UNL     1      10.004 -15.965   4.366  1.00  0.00     0.054 A
HETATM    6  C11 UNL     1      10.283 -17.007   3.433  1.00  0.00     0.147 A
HETATM    7  N16 UNL     1       9.538 -17.183   2.348  1.00  0.00    -0.175 N
ATOM      8  H16 UNL     1       9.742 -17.929   1.684  1.00  0.00     0.186 HD
ENDROOT
BRANCH   4   9
HETATM    9  C3  UNL     1       8.514 -14.100   5.064  1.00  0.00     0.196 C
HETATM   10  C4  UNL     1       7.615 -12.996   4.648  1.00  0.00     0.199 C
HETATM   11  N3  UNL     1       7.529 -12.230   5.899  1.00  0.00    -0.320 N
HETATM   12  C5  UNL     1       7.204 -11.014   6.416  1.00  0.00     0.149 A
HETATM   13  C7  UNL     1       7.904 -12.998   6.924  1.00  0.00     0.186 A
HETATM   14  C6  UNL     1       7.379 -11.028   7.779  1.00  0.00     0.192 A
HETATM   15  N5  UNL     1       7.810 -12.265   8.053  1.00  0.00    -0.308 N
ATOM     16  H5  UNL     1       8.036 -12.607   8.988  1.00  0.00     0.170 HD
HETATM   17  N6  UNL     1       8.272 -14.317   6.444  1.00  0.00    -0.323 N
ATOM     18  H6  UNL     1       8.340 -15.188   6.971  1.00  0.00     0.166 HD
BRANCH   9  19
HETATM   19  O1  UNL     1       9.720 -13.247   5.211  1.00  0.00    -0.364 OA
ATOM     20  H1  UNL     1       9.443 -12.601   5.851  1.00  0.00     0.213 HD
ENDBRANCH   9  19
BRANCH  14  21
HETATM   21  N4  UNL     1       7.154  -9.963   8.686  1.00  0.00    -0.096 N
HETATM   22  O2  UNL     1       6.615  -8.912   8.294  1.00  0.00    -0.530 OA
HETATM   23  O3  UNL     1       7.507 -10.038  10.010  1.00  0.00    -0.530 OA
ENDBRANCH  14  21
ENDBRANCH   4   9
BRANCH   5  24
HETATM   24  C9  UNL     1      10.961 -15.837   5.439  1.00  0.00     0.291 C
BRANCH  24  25
HETATM   25  N7  UNL     1      12.313 -16.124   5.349  1.00  0.00    -0.064 N
ATOM     26  H73 UNL     1      12.631 -16.327   6.297  1.00  0.00     0.275 HD
ATOM     27  H72 UNL     1      12.387 -17.029   4.883  1.00  0.00     0.275 HD
ATOM     28  H71 UNL     1      13.020 -15.522   4.927  1.00  0.00     0.275 HD
ENDBRANCH  24  25
BRANCH  24  29
HETATM   29  C10 UNL     1      10.490 -16.823   6.502  1.00  0.00     0.142 A
HETATM   30  N8  UNL     1       9.260 -17.281   6.704  1.00  0.00    -0.272 N
HETATM   31  N9  UNL     1       9.325 -18.111   7.736  1.00  0.00    -0.007 NA
ATOM     32  H8  UNL     1       8.426 -17.040   6.169  1.00  0.00     0.185 HD
HETATM   33  N10 UNL     1      10.566 -18.196   8.200  1.00  0.00    -0.007 NA
HETATM   34  N11 UNL     1      11.278 -17.387   7.419  1.00  0.00    -0.272 N
ATOM     35  H11 UNL     1      12.281 -17.223   7.508  1.00  0.00     0.185 HD
ENDBRANCH  24  29
ENDBRANCH   5  24
BRANCH   1  36
HETATM   36  N1  UNL     1       7.800 -16.539   1.090  1.00  0.00    -0.234 N
ATOM     37  H12 UNL     1       8.085 -16.031   0.253  1.00  0.00     0.174 HD
ATOM     38  H11 UNL     1       6.995 -17.165   1.082  1.00  0.00     0.174 HD
ENDBRANCH   1  36
BRANCH   6  39
HETATM   39  N12 UNL     1      11.405 -17.875   3.700  1.00  0.00    -0.270 N
ATOM     40  H12 UNL     1      12.327 -17.704   3.300  1.00  0.00     0.190 HD
BRANCH  39  41
HETATM   41  N13 UNL     1      11.153 -18.974   4.547  1.00  0.00    -0.237 N
HETATM   42  N14 UNL     1      10.072 -19.634   4.457  1.00  0.00    -0.239 N
HETATM   43  C12 UNL     1       9.753 -20.743   5.269  1.00  0.00     0.348 C
ATOM     44  H14 UNL     1       9.392 -19.344   3.754  1.00  0.00     0.193 HD
HETATM   45  N15 UNL     1       8.862 -21.718   4.746  1.00  0.00    -0.038 NA
HETATM   46  O4  UNL     1      10.204 -20.925   6.424  1.00  0.00    -0.249 OA
ATOM     47  H13 UNL     1      11.849 -19.243   5.243  1.00  0.00     0.208 HD
ENDBRANCH  39  41
ENDBRANCH   6  39
TORSDOF 9
ENDMDL