MODEL 1
REMARK VINA RESULT: -7.896449031      0.000      0.000
REMARK  10 active torsions:
REMARK  status: ('A' for Active; 'I' for Inactive)
REMARK    1  A    between atoms: C2_2  and  O1_3
REMARK    2  A    between atoms: C2_2  and  C7_27
REMARK    3  A    between atoms: O1_3  and  N1_4
REMARK    4  A    between atoms: N2_6  and  C3_8
REMARK    5  A    between atoms: C5_18  and  N7_19
REMARK       I    between atoms: C7_27  and  N10_29
REMARK    6  A    between atoms: C9_33  and  O4_35
REMARK    7  A    between atoms: C12_38  and  C13_39
REMARK    8  A    between atoms: C13_39  and  O5_40
REMARK    9  A    between atoms: C13_39  and  N11_42
REMARK   10  A    between atoms: N11_42  and  N12_44
ROOT
HETATM    1  O1  UNL     1       8.347 -15.674   7.120  1.00  0.00    -0.250 OA
ENDROOT
BRANCH   1   2
HETATM    2  C2  UNL     1       9.667 -16.077   6.791  1.00  0.00     0.241 C
HETATM    3  C1  UNL     1       9.869 -17.551   7.008  1.00  0.00     0.052 C
BRANCH   2   4
HETATM    4  C7  UNL     1       9.884 -15.810   5.325  1.00  0.00     0.254 C
HETATM    5  O2  UNL     1       9.260 -14.897   4.739  1.00  0.00    -0.270 OA
HETATM    6  N10 UNL     1      10.812 -16.615   4.619  1.00  0.00    -0.308 N
HETATM    7  C8  UNL     1      10.562 -16.935   3.409  1.00  0.00     0.132 C
ATOM      8  H10 UNL     1      11.668 -16.934   5.072  1.00  0.00     0.170 HD
HETATM    9  O3  UNL     1       9.452 -16.578   2.675  1.00  0.00    -0.302 OA
HETATM   10  C12 UNL     1      11.448 -17.771   2.560  1.00  0.00     0.115 C
HETATM   11  C9  UNL     1       9.746 -16.638   1.300  1.00  0.00     0.166 C
HETATM   12  C10 UNL     1       8.559 -16.963   0.457  1.00  0.00     0.079 C
HETATM   13  C11 UNL     1      10.830 -17.697   1.212  1.00  0.00     0.085 C
BRANCH  11  14
HETATM   14  O4  UNL     1      10.344 -15.419   0.905  1.00  0.00    -0.365 OA
ATOM     15  H4  UNL     1       9.916 -15.107   0.116  1.00  0.00     0.213 HD
ENDBRANCH  11  14
BRANCH  10  16
HETATM   16  C13 UNL     1      11.554 -19.124   3.179  1.00  0.00     0.244 C
BRANCH  16  17
HETATM   17  O5  UNL     1      12.608 -19.862   2.642  1.00  0.00    -0.375 OA
ATOM     18  H5  UNL     1      12.348 -20.752   2.436  1.00  0.00     0.212 HD
ENDBRANCH  16  17
BRANCH  16  19
HETATM   19  N11 UNL     1      10.326 -19.817   3.314  1.00  0.00    -0.314 N
ATOM     20  H11 UNL     1       9.780 -20.076   2.492  1.00  0.00     0.182 HD
BRANCH  19  21
HETATM   21  N12 UNL     1       9.890 -20.130   4.569  1.00  0.00    -0.347 N
ATOM     22 2H12 UNL     1      10.043 -19.476   5.337  1.00  0.00     0.176 HD
ATOM     23 1H12 UNL     1       9.415 -21.021   4.711  1.00  0.00     0.176 HD
ENDBRANCH  19  21
ENDBRANCH  16  19
ENDBRANCH  10  16
ENDBRANCH   2   4
ENDBRANCH   1   2
BRANCH   1  24
HETATM   24  N1  UNL     1       8.078 -14.389   7.588  1.00  0.00    -0.192 N
HETATM   25  N2  UNL     1       7.593 -13.550   6.756  1.00  0.00    -0.111 N
ATOM     26  H2  UNL     1       7.424 -13.848   5.795  1.00  0.00     0.207 HD
ATOM     27  H1  UNL     1       8.261 -14.130   8.557  1.00  0.00     0.216 HD
BRANCH  25  28
HETATM   28  C3  UNL     1       7.284 -12.216   7.127  1.00  0.00     0.727 A
HETATM   29  N3  UNL     1       6.448 -11.510   6.342  1.00  0.00    -0.018 N
HETATM   30  C4  UNL     1       6.103 -10.238   6.622  1.00  0.00     0.727 A
ATOM     31  H3  UNL     1       6.064 -11.952   5.507  1.00  0.00     0.203 HD
HETATM   32  N4  UNL     1       5.305  -9.607   5.846  1.00  0.00    -0.232 N
HETATM   33  N5  UNL     1       6.587  -9.626   7.710  1.00  0.00     0.105 N
ATOM     34  H42 UNL     1       4.935 -10.073   5.017  1.00  0.00     0.174 HD
ATOM     35  H41 UNL     1       5.043  -8.644   6.058  1.00  0.00     0.174 HD
HETATM   36  N6  UNL     1       6.414  -8.406   8.212  1.00  0.00    -0.096 N
HETATM   37  C6  UNL     1       7.424 -10.318   8.508  1.00  0.00     0.748 A
HETATM   38  C5  UNL     1       7.131  -8.278   9.339  1.00  0.00     0.706 A
ATOM     39  H6  UNL     1       5.827  -7.678   7.802  1.00  0.00     0.207 HD
HETATM   40  N8  UNL     1       7.751  -9.475   9.505  1.00  0.00    -0.018 N
ATOM     41  H8  UNL     1       8.376  -9.704  10.278  1.00  0.00     0.203 HD
HETATM   42  N9  UNL     1       7.769 -11.602   8.216  1.00  0.00    -0.017 N
ATOM     43  H9  UNL     1       8.405 -12.104   8.835  1.00  0.00     0.203 HD
BRANCH  38  44
HETATM   44  N7  UNL     1       7.231  -7.241  10.125  1.00  0.00    -0.233 N
ATOM     45  H72 UNL     1       6.510  -6.539  10.293  1.00  0.00     0.174 HD
ATOM     46  H71 UNL     1       8.024  -6.952  10.698  1.00  0.00     0.174 HD
ENDBRANCH  38  44
ENDBRANCH  25  28
ENDBRANCH   1  24
TORSDOF 10
ENDMDL