MODEL 3
REMARK VINA RESULT: -4.916078780      0.918      1.166
REMARK  2 active torsions:
REMARK  status: ('A' for Active; 'I' for Inactive)
REMARK    1  A    between atoms: N3_8  and  N4_9
REMARK    2  A    between atoms: N4_9  and  C4_11
ROOT
HETATM    1  C1  UNL     1     -18.762  10.289  -4.116  1.00  0.00     0.092 C
HETATM    2  C2  UNL     1     -19.602   9.182  -4.692  1.00  0.00     0.114 A
HETATM    3  N1  UNL     1     -19.129   8.096  -5.310  1.00  0.00    -0.287 N
ATOM      4  H1  UNL     1     -18.149   7.868  -5.475  1.00  0.00     0.188 HD
HETATM    5  N2  UNL     1     -20.181   7.374  -5.665  1.00  0.00    -0.293 N
ATOM      6  H2  UNL     1     -20.142   6.482  -6.159  1.00  0.00     0.187 HD
HETATM    7  C3  UNL     1     -21.306   7.995  -5.276  1.00  0.00     0.224 A
HETATM    8  N3  UNL     1     -20.943   9.131  -4.665  1.00  0.00    -0.241 N
ENDROOT
BRANCH   8   9
HETATM    9  N4  UNL     1     -21.774  10.096  -4.096  1.00  0.00    -0.323 N
ATOM     10  H4  UNL     1     -21.592  10.415  -3.144  1.00  0.00     0.181 HD
BRANCH   9  11
HETATM   11  C4  UNL     1     -22.906  10.662  -4.843  1.00  0.00     0.100 C
HETATM   12  C5  UNL     1     -23.218  12.010  -4.230  1.00  0.00     0.026 C
HETATM   13  C6  UNL     1     -24.318  12.727  -4.976  1.00  0.00     0.002 C
HETATM   14  C7  UNL     1     -24.069  12.726  -6.473  1.00  0.00     0.000 C
HETATM   15  C8  UNL     1     -22.672  12.236  -6.788  1.00  0.00     0.002 C
HETATM   16  C9  UNL     1     -22.565  10.811  -6.293  1.00  0.00     0.026 C
ENDBRANCH   9  11
ENDBRANCH   8   9
TORSDOF 2
ENDMDL