MODEL 3
REMARK VINA RESULT: -4.638155378      0.158      1.226
REMARK  3 active torsions:
REMARK  status: ('A' for Active; 'I' for Inactive)
REMARK    1  A    between atoms: C4_4  and  N1_5
REMARK    2  A    between atoms: N1_5  and  N2_7
REMARK    3  A    between atoms: N2_7  and  C5_9
ROOT
HETATM    1  N1  UNL     1     -21.730   9.812  -5.869  1.00  0.00    -0.307 N
ATOM      2  H1  UNL     1     -21.889   9.654  -6.864  1.00  0.00     0.186 HD
ENDROOT
BRANCH   1   3
HETATM    3  C4  UNL     1     -22.165  10.902  -5.332  1.00  0.00     0.004 C
HETATM    4  C3  UNL     1     -23.453  11.008  -4.595  1.00  0.00     0.054 C
HETATM    5  C2  UNL     1     -23.732  12.494  -4.690  1.00  0.00     0.006 C
HETATM    6  C1  UNL     1     -22.342  13.064  -4.375  1.00  0.00     0.006 C
HETATM    7  C6  UNL     1     -21.495  12.227  -5.340  1.00  0.00     0.054 C
ENDBRANCH   1   3
BRANCH   1   8
HETATM    8  N2  UNL     1     -21.051   8.846  -5.134  1.00  0.00    -0.277 N
ATOM      9  H2  UNL     1     -21.553   8.046  -4.749  1.00  0.00     0.189 HD
BRANCH   8  10
HETATM   10  C5  UNL     1     -19.735   8.973  -4.934  1.00  0.00     0.209 A
HETATM   11  N3  UNL     1     -18.738   8.219  -5.327  1.00  0.00    -0.228 N
HETATM   12  O1  UNL     1     -17.739   8.813  -4.857  1.00  0.00    -0.194 OA
ATOM     13  H3  UNL     1     -18.768   7.361  -5.879  1.00  0.00     0.198 HD
HETATM   14  S1  UNL     1     -18.636   9.967  -4.198  1.00  0.00     0.100 SA
ENDBRANCH   8  10
ENDBRANCH   1   8
TORSDOF 3
ENDMDL