MODEL 2
REMARK VINA RESULT: -4.565929130      0.164      2.201
REMARK  1 active torsions:
REMARK  status: ('A' for Active; 'I' for Inactive)
REMARK    1  A    between atoms: N3_9  and  C5_10
ROOT
HETATM    1  C1  UNL     1     -23.172   7.608  -5.913  1.00  0.00     0.091 C
HETATM    2  C2  UNL     1     -21.876   8.195  -5.500  1.00  0.00     0.095 A
HETATM    3  N1  UNL     1     -20.753   7.457  -5.365  1.00  0.00    -0.288 N
ATOM      4  H1  UNL     1     -20.692   6.452  -5.529  1.00  0.00     0.188 HD
HETATM    5  N2  UNL     1     -19.745   8.225  -4.989  1.00  0.00    -0.288 N
ATOM      6  H2  UNL     1     -18.783   7.933  -4.813  1.00  0.00     0.188 HD
HETATM    7  C3  UNL     1     -20.244   9.466  -4.887  1.00  0.00     0.095 A
HETATM    8  C4  UNL     1     -19.499  10.677  -4.494  1.00  0.00     0.091 C
HETATM    9  N3  UNL     1     -21.563   9.444  -5.205  1.00  0.00    -0.320 N
ENDROOT
BRANCH   9  10
HETATM   10  C5  UNL     1     -22.475  10.558  -5.223  1.00  0.00     0.092 C
HETATM   11  C6  UNL     1     -22.420  11.344  -6.532  1.00  0.00     0.026 C
HETATM   12  C7  UNL     1     -23.705  12.169  -6.565  1.00  0.00     0.002 C
HETATM   13  C8  UNL     1     -23.872  13.019  -5.351  1.00  0.00     0.000 C
HETATM   14  C9  UNL     1     -22.684  12.890  -4.423  1.00  0.00     0.002 C
HETATM   15  C10 UNL     1     -22.475  11.424  -4.014  1.00  0.00     0.026 C
ENDBRANCH   9  10
TORSDOF 1
ENDMDL