MODEL 3
REMARK VINA RESULT: -4.163617592      1.631      2.448
REMARK  2 active torsions:
REMARK  status: ('A' for Active; 'I' for Inactive)
REMARK    1  A    between atoms: O1_1  and  C1_3
REMARK    2  A    between atoms: N2_8  and  C4_9
ROOT
HETATM    1  C1  UNL     1     -20.912   9.130  -4.691  1.00  0.00     0.159 A
HETATM    2  C2  UNL     1     -19.674   9.328  -4.080  1.00  0.00     0.145 A
HETATM    3  N1  UNL     1     -19.413  10.624  -4.239  1.00  0.00    -0.358 N
ATOM      4  H1  UNL     1     -18.572  11.092  -3.900  1.00  0.00     0.166 HD
HETATM    5  C3  UNL     1     -20.406  11.230  -4.906  1.00  0.00     0.185 A
HETATM    6  N2  UNL     1     -21.344  10.307  -5.192  1.00  0.00    -0.318 N
ENDROOT
BRANCH   6   7
HETATM    7  C4  UNL     1     -22.546  10.604  -5.899  1.00  0.00     0.097 C
HETATM    8  C5  UNL     1     -22.480  11.970  -6.567  1.00  0.00     0.031 C
HETATM    9  C6  UNL     1     -23.795  12.652  -6.265  1.00  0.00    -0.012 C
HETATM   10  C7  UNL     1     -23.729  13.169  -4.865  1.00  0.00     0.005 C
HETATM   11  C10 UNL     1     -24.696  11.423  -6.052  1.00  0.00     0.011 C
HETATM   12  C8  UNL     1     -23.589  11.883  -4.051  1.00  0.00     0.007 C
HETATM   13  C9  UNL     1     -23.758  10.743  -5.035  1.00  0.00     0.009 C
ENDBRANCH   6   7
BRANCH   1  14
HETATM   14  O1  UNL     1     -21.621   7.951  -4.797  1.00  0.00    -0.345 OA
ATOM     15  H1  UNL     1     -22.537   7.804  -4.595  1.00  0.00     0.219 HD
ENDBRANCH   1  14
TORSDOF 2
ENDMDL