MODEL 2
REMARK VINA RESULT: -3.588732720      2.786      3.508
REMARK  2 active torsions:
REMARK  status: ('A' for Active; 'I' for Inactive)
REMARK    1  A    between atoms: C6_7  and  C7_8
REMARK    2  A    between atoms: N1_11  and  O2_13
ROOT
HETATM    1  C1  UNL     1     -19.854   9.646  -3.868  1.00  0.00     0.028 C
HETATM    2  C2  UNL     1     -20.714  10.059  -5.017  1.00  0.00     0.091 C
HETATM    3  S1  UNL     1     -21.019  11.845  -4.871  1.00  0.00    -0.158 SA
HETATM    4  C3  UNL     1     -22.362  12.192  -6.054  1.00  0.00     0.080 C
HETATM    5  C4  UNL     1     -23.502  11.281  -5.718  1.00  0.00     0.007 C
HETATM    6  C5  UNL     1     -24.055  11.656  -4.379  1.00  0.00     0.012 C
HETATM    7  C6  UNL     1     -23.159   9.821  -5.840  1.00  0.00     0.100 C
HETATM    8  C8  UNL     1     -22.045   9.393  -4.999  1.00  0.00     0.034 C
HETATM    9  N1  UNL     1     -22.169   8.384  -4.172  1.00  0.00    -0.276 N
ATOM     10  H1  UNL     1     -21.374   8.107  -3.596  1.00  0.00     0.193 HD
ENDROOT
BRANCH   7  11
HETATM   11  C7  UNL     1     -22.941   9.519  -7.289  1.00  0.00     0.242 C
HETATM   12  O1  UNL     1     -22.928   8.391  -7.740  1.00  0.00    -0.306 OA
ENDBRANCH   7  11
BRANCH   9  13
HETATM   13  O2  UNL     1     -23.358   7.686  -4.066  1.00  0.00    -0.290 OA
ATOM     14  H2  UNL     1     -23.482   7.021  -3.398  1.00  0.00     0.244 HD
ENDBRANCH   9  13
TORSDOF 2
ENDMDL