MODEL 5
REMARK VINA RESULT: -3.192151358      2.352      3.801
REMARK  1 active torsions:
REMARK  status: ('A' for Active; 'I' for Inactive)
REMARK    1  A    between atoms: N1_2  and  N2_4
ROOT
HETATM    1  N2  UNL     1     -23.211   7.862  -4.561  1.00  0.00    -0.302 N
ATOM      2  H2  UNL     1     -22.941   6.893  -4.394  1.00  0.00     0.187 HD
HETATM    3  C2  UNL     1     -22.268   8.702  -4.821  1.00  0.00     0.076 C
HETATM    4  S1  UNL     1     -20.543   8.192  -4.886  1.00  0.00    -0.099 SA
HETATM    5  C3  UNL     1     -19.761   9.661  -4.114  1.00  0.00     0.111 C
HETATM    6  C4  UNL     1     -18.346   9.827  -4.566  1.00  0.00     0.033 C
HETATM    7  S2  UNL     1     -20.859  10.950  -4.770  1.00  0.00    -0.142 SA
HETATM    8  C5  UNL     1     -22.403  10.127  -5.093  1.00  0.00     0.102 C
HETATM    9  C6  UNL     1     -22.941  10.356  -6.486  1.00  0.00     0.028 C
ENDROOT
BRANCH   1  10
HETATM   10  N1  UNL     1     -24.548   8.163  -4.492  1.00  0.00    -0.340 N
HETATM   11  C1  UNL     1     -25.354   7.698  -3.406  1.00  0.00     0.167 C
ATOM     12  H1  UNL     1     -24.974   8.727  -5.227  1.00  0.00     0.179 HD
ENDBRANCH   1  10
TORSDOF 1
ENDMDL