MODEL 4
REMARK VINA RESULT: -3.843344156      1.812      3.789
REMARK  2 active torsions:
REMARK  status: ('A' for Active; 'I' for Inactive)
REMARK    1  A    between atoms: N1_6  and  O1_8
REMARK    2  A    between atoms: C6_11  and  C7_12
ROOT
HETATM    1  C1  UNL     1     -22.687  11.981  -6.413  1.00  0.00     0.015 C
HETATM    2  C2  UNL     1     -22.897  11.092  -5.182  1.00  0.00    -0.041 C
HETATM    3  C3  UNL     1     -24.072  11.741  -4.438  1.00  0.00     0.015 C
HETATM    4  C4  UNL     1     -21.733  11.243  -4.258  1.00  0.00     0.075 C
HETATM    5  C5  UNL     1     -20.607  10.357  -4.530  1.00  0.00     0.069 C
HETATM    6  N1  UNL     1     -19.432  10.797  -4.511  1.00  0.00    -0.267 N
ATOM      7  H1  UNL     1     -19.343  11.790  -4.296  1.00  0.00     0.194 HD
HETATM    8  S1  UNL     1     -20.944   8.661  -4.885  1.00  0.00    -0.103 SA
HETATM    9  C6  UNL     1     -22.781   8.572  -4.841  1.00  0.00     0.115 C
HETATM   10  C8  UNL     1     -23.309   9.742  -5.578  1.00  0.00     0.031 C
ENDROOT
BRANCH   6  11
HETATM   11  O1  UNL     1     -18.276  10.153  -4.731  1.00  0.00    -0.289 OA
ATOM     12  H1  UNL     1     -17.897   9.853  -5.549  1.00  0.00     0.244 HD
ENDBRANCH   6  11
BRANCH   9  13
HETATM   13  C7  UNL     1     -23.192   7.326  -5.545  1.00  0.00     0.246 C
HETATM   14  O2  UNL     1     -22.436   6.361  -5.633  1.00  0.00    -0.306 OA
ENDBRANCH   9  13
TORSDOF 2
ENDMDL