MODEL 2
REMARK VINA RESULT: -3.409563443      1.555      1.685
REMARK  3 active torsions:
REMARK  status: ('A' for Active; 'I' for Inactive)
REMARK    1  A    between atoms: S1_2  and  S2_3
REMARK    2  A    between atoms: S2_3  and  C2_4
REMARK    3  A    between atoms: C6_9  and  O2_10
ROOT
HETATM    1  C2  UNL     1     -21.052  10.683  -4.197  1.00  0.00     0.222 C
HETATM    2  O1  UNL     1     -19.871  11.183  -4.708  1.00  0.00    -0.372 OA
HETATM    3  C3  UNL     1     -18.832  10.427  -4.176  1.00  0.00     0.169 C
HETATM    4  C4  UNL     1     -18.826   9.049  -4.740  1.00  0.00     0.029 C
HETATM    5  C5  UNL     1     -20.188   8.429  -4.834  1.00  0.00     0.037 C
HETATM    6  C6  UNL     1     -21.232   9.222  -4.126  1.00  0.00     0.158 C
ENDROOT
BRANCH   1   7
HETATM    7  S2  UNL     1     -22.541  11.624  -4.563  1.00  0.00    -0.063 SA
BRANCH   7   8
HETATM    8  S1  UNL     1     -22.774  11.979  -6.638  1.00  0.00    -0.099 SA
HETATM    9  C1  UNL     1     -22.902  10.476  -7.636  1.00  0.00     0.103 C
ENDBRANCH   7   8
ENDBRANCH   1   7
BRANCH   6  10
HETATM   10  O2  UNL     1     -22.507   8.886  -4.586  1.00  0.00    -0.392 OA
ATOM     11  H2  UNL     1     -22.482   8.759  -5.528  1.00  0.00     0.210 HD
ENDBRANCH   6  10
TORSDOF 3
ENDMDL