MODEL 1
REMARK VINA RESULT: -4.164215874      0.000      0.000
REMARK  1 active torsions:
REMARK  status: ('A' for Active; 'I' for Inactive)
REMARK    1  A    between atoms: C3_7  and  C4_8
ROOT
HETATM    1  C1  UNL     1     -22.918   6.960  -5.565  1.00  0.00     0.066 C
HETATM    2  C2  UNL     1     -22.152   8.220  -5.335  1.00  0.00     0.020 C
HETATM    3  N1  UNL     1     -20.953   8.251  -4.885  1.00  0.00    -0.299 N
ATOM      4  H1  UNL     1     -20.419   7.416  -4.646  1.00  0.00     0.187 HD
HETATM    5  N2  UNL     1     -20.458   9.542  -4.758  1.00  0.00    -0.247 N
HETATM    6  S1  UNL     1     -18.948   9.962  -3.976  1.00  0.00     0.062 SA
HETATM    7  C3  UNL     1     -21.377  10.438  -5.364  1.00  0.00     0.143 C
HETATM    8  C7  UNL     1     -22.605   9.620  -5.569  1.00  0.00     0.165 C
HETATM    9  C8  UNL     1     -23.032   9.670  -6.988  1.00  0.00     0.072 C
HETATM   10  N3  UNL     1     -23.351   9.696  -8.101  1.00  0.00    -0.196 NA
ENDROOT
BRANCH   7  11
HETATM   11  C4  UNL     1     -21.604  11.674  -4.529  1.00  0.00     0.004 C
HETATM   12  C5  UNL     1     -20.958  12.878  -5.151  1.00  0.00     0.012 C
HETATM   13  C6  UNL     1     -23.042  11.882  -4.171  1.00  0.00     0.012 C
ENDBRANCH   7  11
TORSDOF 1
ENDMDL