MODEL 1
REMARK VINA RESULT: -7.305328816      0.000      0.000
REMARK  4 active torsions:
REMARK  status: ('A' for Active; 'I' for Inactive)
REMARK    1  A    between atoms: C2_2  and  C3_4
REMARK    2  A    between atoms: C10_11  and  N1_12
REMARK    3  A    between atoms: N1_12  and  N2_13
REMARK    4  A    between atoms: C11_16  and  C12_17
ROOT
HETATM    1  C3  UNL     1      44.582  40.754  75.742  1.00  0.00     0.068 C
HETATM    2  C4  UNL     1      44.674  41.612  76.967  1.00  0.00     0.018 C
HETATM    3  C5  UNL     1      46.001  41.799  77.574  1.00  0.00    -0.009 C
HETATM    4  C6  UNL     1      45.923  42.925  78.619  1.00  0.00     0.005 C
HETATM    5  C7  UNL     1      45.486  41.831  79.605  1.00  0.00     0.006 C
HETATM    6  C8  UNL     1      46.252  40.866  78.763  1.00  0.00    -0.004 C
HETATM    7  C9  UNL     1      45.611  39.520  78.519  1.00  0.00     0.076 C
HETATM    8  C10 UNL     1      45.943  39.162  77.120  1.00  0.00     0.094 C
HETATM    9  C11 UNL     1      45.102  39.348  75.936  1.00  0.00     0.092 C
ENDROOT
BRANCH   8  10
HETATM   10  N1  UNL     1      47.074  38.646  76.977  1.00  0.00    -0.341 NA
BRANCH  10  11
HETATM   11  N2  UNL     1      48.085  37.926  76.918  1.00  0.00    -0.280 N
ATOM     12  H22 UNL     1      48.033  37.765  77.924  1.00  0.00     0.191 HD
ATOM     13  H21 UNL     1      48.909  37.379  76.668  1.00  0.00     0.191 HD
ENDBRANCH  10  11
ENDBRANCH   8  10
BRANCH   9  14
HETATM   14  C12 UNL     1      43.989  38.318  75.972  1.00  0.00     0.177 C
HETATM   15  C13 UNL     1      44.359  37.110  75.106  1.00  0.00     0.046 C
HETATM   16  F1  UNL     1      42.803  38.821  75.482  1.00  0.00    -0.249 F
ENDBRANCH   9  14
BRANCH   1  17
HETATM   17  C2  UNL     1      45.101  41.374  74.528  1.00  0.00     0.128 C
HETATM   18  C1  UNL     1      44.416  42.435  73.745  1.00  0.00     0.091 C
HETATM   19  O1  UNL     1      46.181  41.020  74.091  1.00  0.00    -0.298 OA
ENDBRANCH   1  17
TORSDOF 4
ENDMDL