MODEL 1
REMARK VINA RESULT: -6.830003575      0.000      0.000
REMARK  2 active torsions:
REMARK  status: ('A' for Active; 'I' for Inactive)
REMARK    1  A    between atoms: C2_2  and  C3_3
REMARK    2  A    between atoms: C8_8  and  N1_9
ROOT
HETATM    1  C3  UNL     1      46.750  41.050  78.621  1.00  0.00     0.030 C
HETATM    2  C4  UNL     1      46.011  41.374  77.341  1.00  0.00     0.016 C
HETATM    3  C5  UNL     1      44.997  40.409  76.914  1.00  0.00    -0.003 C
HETATM    4  C6  UNL     1      45.088  39.007  77.404  1.00  0.00    -0.002 C
HETATM    5  C7  UNL     1      46.051  38.657  78.444  1.00  0.00     0.031 C
HETATM    6  C8  UNL     1      47.161  39.635  78.726  1.00  0.00     0.086 C
HETATM    7  C11 UNL     1      45.264  38.286  76.077  1.00  0.00     0.014 C
HETATM    8  C12 UNL     1      46.151  39.192  75.248  1.00  0.00     0.014 C
HETATM    9  C13 UNL     1      44.956  40.146  75.406  1.00  0.00     0.014 C
HETATM   10  C14 UNL     1      44.149  38.885  75.237  1.00  0.00     0.041 C
HETATM   11  C15 UNL     1      42.789  38.824  75.772  1.00  0.00     0.033 C
HETATM   12 CL1  UNL     1      44.244  38.280  73.576  1.00  0.00    -0.119 Cl
ENDROOT
BRANCH   6  13
HETATM   13  N1  UNL     1      47.867  39.326  79.896  1.00  0.00    -0.416 N
HETATM   14  C9  UNL     1      49.250  39.274  79.998  1.00  0.00     0.143 C
HETATM   15  C10 UNL     1      47.229  38.458  80.839  1.00  0.00     0.143 C
ENDBRANCH   6  13
BRANCH   1  16
HETATM   16  C2  UNL     1      46.000  41.585  79.767  1.00  0.00    -0.030 C
HETATM   17  C1  UNL     1      45.643  42.857  79.795  1.00  0.00     0.007 C
ENDBRANCH   1  16
TORSDOF 2
ENDMDL