MODEL 1
REMARK VINA RESULT: -6.813708345      0.000      0.000
REMARK  3 active torsions:
REMARK  status: ('A' for Active; 'I' for Inactive)
REMARK    1  A    between atoms: C3_3  and  C4_4
REMARK    2  A    between atoms: C4_4  and  O1_5
REMARK    3  A    between atoms: C9_13  and  C10_14
ROOT
HETATM    1  C1  UNL     1      43.593  39.546  75.344  1.00  0.00     0.049 C
HETATM    2  C2  UNL     1      44.450  39.581  76.572  1.00  0.00    -0.051 A
HETATM    3  C3  UNL     1      45.033  38.547  77.084  1.00  0.00     0.000 A
HETATM    4  C7  UNL     1      45.887  38.666  78.336  1.00  0.00     0.068 A
HETATM    5  C8  UNL     1      46.042  39.957  78.954  1.00  0.00     0.115 A
HETATM    6 CL1  UNL     1      47.814  40.297  79.044  1.00  0.00    -0.120 Cl
HETATM    7  C9  UNL     1      45.351  41.077  78.317  1.00  0.00    -0.057 A
HETATM    8  C13 UNL     1      44.628  40.899  77.234  1.00  0.00     0.012 A
ENDROOT
BRANCH   3   9
HETATM    9  C4  UNL     1      44.975  37.203  76.589  1.00  0.00     0.144 C
HETATM   10  N1  UNL     1      44.237  36.088  76.401  1.00  0.00    -0.370 N
HETATM   11  C5  UNL     1      42.889  35.658  76.654  1.00  0.00     0.151 C
HETATM   12  C6  UNL     1      44.998  34.926  75.736  1.00  0.00     0.151 C
BRANCH   9  13
HETATM   13  O1  UNL     1      46.247  36.963  76.087  1.00  0.00    -0.346 OA
ATOM     14  H1  UNL     1      46.541  37.809  75.771  1.00  0.00     0.219 HD
ENDBRANCH   9  13
ENDBRANCH   3   9
BRANCH   7  15
HETATM   15  C10 UNL     1      45.449  42.435  78.892  1.00  0.00     0.008 C
HETATM   16  C11 UNL     1      44.297  43.282  78.327  1.00  0.00     0.014 C
HETATM   17  C12 UNL     1      45.493  42.497  80.378  1.00  0.00     0.014 C
ENDBRANCH   7  15
TORSDOF 3
ENDMDL