MODEL 1
REMARK VINA RESULT: -7.602088372      0.000      0.000
REMARK  2 active torsions:
REMARK  status: ('A' for Active; 'I' for Inactive)
REMARK    1  A    between atoms: C2_2  and  C3_4
REMARK       I    between atoms: C3_4  and  N1_6
REMARK    2  A    between atoms: N1_6  and  C5_8
ROOT
HETATM    1  C5  UNL     1      45.169  42.490  77.683  1.00  0.00     0.095 A
HETATM    2  C6  UNL     1      45.853  41.972  76.514  1.00  0.00     0.015 A
HETATM    3  C7  UNL     1      45.762  42.377  75.114  1.00  0.00     0.012 C
HETATM    4  C8  UNL     1      45.477  41.237  74.212  1.00  0.00    -0.013 C
HETATM    5  C9  UNL     1      44.056  40.722  74.253  1.00  0.00     0.009 C
HETATM    6  C10 UNL     1      44.478  39.733  75.267  1.00  0.00    -0.013 C
HETATM    7  C11 UNL     1      45.868  39.886  74.703  1.00  0.00     0.009 C
HETATM    8  C12 UNL     1      44.376  40.138  76.710  1.00  0.00     0.012 C
HETATM    9  C13 UNL     1      44.383  41.586  76.895  1.00  0.00     0.015 A
ENDROOT
BRANCH   1  10
HETATM   10  N1  UNL     1      45.722  42.217  79.002  1.00  0.00    -0.350 N
HETATM   11  C3  UNL     1      45.278  42.909  80.159  1.00  0.00     0.237 C
HETATM   12  O1  UNL     1      45.754  42.620  81.302  1.00  0.00    -0.272 OA
HETATM   13  C4  UNL     1      46.746  41.206  79.201  1.00  0.00     0.153 C
BRANCH  11  14
HETATM   14  C2  UNL     1      44.267  43.991  80.159  1.00  0.00     0.170 C
HETATM   15  C1  UNL     1      44.140  44.501  81.579  1.00  0.00     0.036 C
HETATM   16 CL1  UNL     1      42.691  43.457  79.605  1.00  0.00    -0.115 Cl
ENDBRANCH  11  14
ENDBRANCH   1  10
TORSDOF 2
ENDMDL