MODEL 1
REMARK VINA RESULT: -6.210731076      0.000      0.000
REMARK  2 active torsions:
REMARK  status: ('A' for Active; 'I' for Inactive)
REMARK    1  A    between atoms: C2_2  and  C3_3
REMARK    2  A    between atoms: C2_2  and  N2_13
ROOT
HETATM    1  C3  UNL     1      45.960  42.019  78.428  1.00  0.00     0.042 C
HETATM    2  C4  UNL     1      45.664  40.682  79.012  1.00  0.00     0.035 C
HETATM    3  C5  UNL     1      46.470  39.644  78.280  1.00  0.00     0.058 C
HETATM    4  C6  UNL     1      45.964  38.235  78.527  1.00  0.00     0.034 C
HETATM    5 CL1  UNL     1      48.130  39.702  78.972  1.00  0.00    -0.118 Cl
HETATM    6  C7  UNL     1      46.568  39.870  76.812  1.00  0.00     0.261 C
HETATM    7  N1  UNL     1      45.637  40.835  76.292  1.00  0.00    -0.072 N
HETATM    8  C8  UNL     1      44.275  40.343  76.272  1.00  0.00     0.272 C
HETATM    9  C9  UNL     1      46.012  41.033  74.881  1.00  0.00     0.272 C
HETATM   10  C10 UNL     1      45.787  42.097  76.941  1.00  0.00     0.243 C
ENDROOT
BRANCH   1  11
HETATM   11  C2  UNL     1      45.212  43.147  79.087  1.00  0.00     0.157 C
HETATM   12  C1  UNL     1      43.775  43.242  78.664  1.00  0.00     0.039 C
BRANCH  11  13
HETATM   13  N2  UNL     1      45.243  43.050  80.529  1.00  0.00    -0.151 N
HETATM   14  O1  UNL     1      46.246  42.719  81.171  1.00  0.00    -0.536 OA
HETATM   15  O2  UNL     1      44.095  43.343  81.218  1.00  0.00    -0.536 OA
ENDBRANCH  11  13
ENDBRANCH   1  11
TORSDOF 2
ENDMDL