MODEL 4
REMARK VINA RESULT: -7.088508610      1.059      1.620
REMARK  2 active torsions:
REMARK  status: ('A' for Active; 'I' for Inactive)
REMARK    1  A    between atoms: C2_2  and  N1_4
REMARK       I    between atoms: N1_4  and  C5_6
REMARK    2  A    between atoms: C5_6  and  C6_8
ROOT
HETATM    1  C6  UNL     1      44.958  39.775  76.609  1.00  0.00     0.045 C
HETATM    2  C7  UNL     1      45.175  38.361  77.069  1.00  0.00     0.027 C
HETATM    3  C8  UNL     1      44.666  37.605  75.833  1.00  0.00     0.021 C
HETATM    4  C9  UNL     1      43.271  38.238  75.739  1.00  0.00     0.013 C
HETATM    5  C10 UNL     1      43.662  39.700  75.817  1.00  0.00     0.004 C
HETATM    6  C11 UNL     1      44.058  40.089  74.387  1.00  0.00     0.013 C
HETATM    7  C12 UNL     1      45.439  39.460  74.338  1.00  0.00     0.021 C
HETATM    8  C13 UNL     1      46.049  40.081  75.606  1.00  0.00     0.027 C
HETATM    9  C14 UNL     1      45.400  37.974  74.592  1.00  0.00     0.178 C
HETATM   10  F1  UNL     1      44.750  37.377  73.528  1.00  0.00    -0.249 F
ENDROOT
BRANCH   1  11
HETATM   11  C5  UNL     1      44.842  40.765  77.687  1.00  0.00     0.229 C
HETATM   12  N1  UNL     1      45.767  40.973  78.735  1.00  0.00    -0.352 N
HETATM   13  C4  UNL     1      46.986  40.213  78.893  1.00  0.00     0.153 C
HETATM   14  O1  UNL     1      43.809  41.504  77.672  1.00  0.00    -0.272 OA
BRANCH  12  15
HETATM   15  C2  UNL     1      45.493  41.998  79.713  1.00  0.00     0.078 C
HETATM   16  C1  UNL     1      45.968  43.331  79.119  1.00  0.00     0.032 C
HETATM   17  C3  UNL     1      46.245  41.775  81.003  1.00  0.00     0.032 C
ENDBRANCH  12  15
ENDBRANCH   1  11
TORSDOF 2
ENDMDL