MODEL 4
REMARK VINA RESULT: -6.557542367      3.244      4.866
REMARK  2 active torsions:
REMARK  status: ('A' for Active; 'I' for Inactive)
REMARK    1  A    between atoms: C2_3  and  C3_5
REMARK    2  A    between atoms: C3_5  and  C4_6
ROOT
HETATM    1  C1  UNL     1      46.970  35.771  72.624  1.00  0.00     0.263 C
HETATM    2  N1  UNL     1      47.539  36.839  73.282  1.00  0.00    -0.421 NA
HETATM    3  C2  UNL     1      48.101  37.893  73.931  1.00  0.00     0.286 C
HETATM    4  O1  UNL     1      49.066  38.565  73.508  1.00  0.00    -0.258 OA
ENDROOT
BRANCH   3   5
HETATM    5  C3  UNL     1      47.468  38.218  75.257  1.00  0.00     0.128 C
BRANCH   5   6
HETATM    6  C4  UNL     1      46.326  39.144  75.236  1.00  0.00    -0.029 C
HETATM    7  C5  UNL     1      45.008  38.655  74.774  1.00  0.00     0.014 C
HETATM    8  C6  UNL     1      43.920  39.677  75.085  1.00  0.00    -0.012 C
HETATM    9  C7  UNL     1      44.200  40.895  74.218  1.00  0.00     0.009 C
HETATM   10  C11 UNL     1      43.867  40.114  76.499  1.00  0.00     0.030 C
HETATM   11  C8  UNL     1      45.566  41.411  74.570  1.00  0.00    -0.012 C
HETATM   12  C9  UNL     1      45.497  41.916  76.001  1.00  0.00     0.030 C
HETATM   13  C13 UNL     1      46.647  40.395  74.387  1.00  0.00     0.014 C
HETATM   14  C10 UNL     1      45.205  40.706  76.876  1.00  0.00     0.038 C
HETATM   15 CL1  UNL     1      45.225  41.162  78.605  1.00  0.00    -0.119 Cl
HETATM   16  C12 UNL     1      46.278  39.706  76.667  1.00  0.00     0.035 C
ENDBRANCH   5   6
ENDBRANCH   3   5
TORSDOF 1
ENDMDL