MODEL 4
REMARK VINA RESULT: -6.580266256      1.388      2.544
REMARK  4 active torsions:
REMARK  status: ('A' for Active; 'I' for Inactive)
REMARK    1  A    between atoms: C2_2  and  N1_4
REMARK    2  A    between atoms: N1_4  and  C5_6
REMARK    3  A    between atoms: C5_6  and  O1_7
REMARK    4  A    between atoms: C5_6  and  C6_9
ROOT
HETATM    1  C6  UNL     1      45.386  40.503  76.360  1.00  0.00     0.032 C
HETATM    2  C7  UNL     1      46.253  39.308  76.696  1.00  0.00     0.023 C
HETATM    3  C8  UNL     1      45.987  38.412  75.485  1.00  0.00    -0.010 C
HETATM    4  C9  UNL     1      46.167  39.393  74.346  1.00  0.00     0.010 C
HETATM    5  C10 UNL     1      45.333  40.575  74.880  1.00  0.00     0.005 C
HETATM    6  C11 UNL     1      43.908  40.138  74.478  1.00  0.00     0.049 C
HETATM    7  C12 UNL     1      43.637  39.151  75.594  1.00  0.00     0.105 C
HETATM    8  F1  UNL     1      42.320  38.744  75.606  1.00  0.00    -0.243 F
HETATM    9  C13 UNL     1      44.547  37.956  75.580  1.00  0.00     0.048 C
HETATM   10  C14 UNL     1      43.965  40.034  76.776  1.00  0.00     0.061 C
ENDROOT
BRANCH   1  11
HETATM   11  C5  UNL     1      45.769  41.688  77.098  1.00  0.00     0.122 C
BRANCH  11  12
HETATM   12  N1  UNL     1      45.861  42.003  78.440  1.00  0.00    -0.365 N
HETATM   13  C4  UNL     1      46.628  41.091  79.320  1.00  0.00     0.152 C
BRANCH  12  14
HETATM   14  C2  UNL     1      45.265  43.153  79.041  1.00  0.00     0.077 C
HETATM   15  C1  UNL     1      45.296  43.049  80.577  1.00  0.00     0.032 C
HETATM   16  C3  UNL     1      43.755  43.217  78.740  1.00  0.00     0.032 C
ENDBRANCH  12  14
ENDBRANCH  11  12
BRANCH  11  17
HETATM   17  O1  UNL     1      46.102  42.683  76.307  1.00  0.00    -0.349 OA
ATOM     18  H1  UNL     1      46.607  42.408  75.551  1.00  0.00     0.219 HD
ENDBRANCH  11  17
ENDBRANCH   1  11
TORSDOF 4
ENDMDL