MODEL 2
REMARK VINA RESULT: -7.796001971      2.308      3.758
REMARK  1 active torsions:
REMARK  status: ('A' for Active; 'I' for Inactive)
REMARK    1  A    between atoms: C4_4  and  C5_5
ROOT
HETATM    1  C5  UNL     1      44.533  42.472  79.054  1.00  0.00     0.015 C
HETATM    2  C6  UNL     1      44.701  43.014  77.671  1.00  0.00     0.015 C
HETATM    3  C7  UNL     1      45.505  41.759  77.348  1.00  0.00     0.011 C
HETATM    4  C8  UNL     1      44.628  40.551  77.056  1.00  0.00     0.131 C
HETATM    5  N1  UNL     1      45.318  39.584  77.850  1.00  0.00    -0.343 N
HETATM    6  C9  UNL     1      45.853  38.284  77.846  1.00  0.00     0.223 C
HETATM    7  O1  UNL     1      45.816  37.491  76.882  1.00  0.00    -0.273 OA
HETATM    8  C10 UNL     1      46.478  38.015  79.201  1.00  0.00     0.148 C
HETATM    9  C11 UNL     1      46.760  39.435  79.636  1.00  0.00     0.129 C
HETATM   10  C12 UNL     1      48.048  39.976  79.125  1.00  0.00     0.054 C
HETATM   11  F1  UNL     1      46.712  39.456  81.018  1.00  0.00    -0.241 F
HETATM   12  C13 UNL     1      45.542  40.171  79.134  1.00  0.00     0.132 C
HETATM   13  C14 UNL     1      45.797  41.612  78.856  1.00  0.00     0.025 C
ENDROOT
BRANCH   1  14
HETATM   14  C4  UNL     1      44.599  43.422  80.138  1.00  0.00    -0.020 C
HETATM   15  C2  UNL     1      43.647  43.882  80.871  1.00  0.00    -0.091 C
HETATM   16  C1  UNL     1      42.198  43.575  80.826  1.00  0.00     0.042 C
HETATM   17  C3  UNL     1      44.009  44.912  81.967  1.00  0.00     0.042 C
ENDBRANCH   1  14
TORSDOF 1
ENDMDL