MODEL 3
REMARK VINA RESULT: -5.433055172      1.900      6.085
REMARK  4 active torsions:
REMARK  status: ('A' for Active; 'I' for Inactive)
REMARK    1  A    between atoms: C2_2  and  N1_3
REMARK    2  A    between atoms: N2_7  and  C6_8
REMARK    3  A    between atoms: C6_8  and  C7_9
REMARK    4  A    between atoms: C7_9  and  O1_10
ROOT
HETATM    1  C6  UNL     1      52.268  41.221  64.732  1.00  0.00     0.315 C
ENDROOT
BRANCH   1   2
HETATM    2  N2  UNL     1      53.136  40.114  65.127  1.00  0.00     0.093 N
HETATM    3  C5  UNL     1      53.351  39.357  63.882  1.00  0.00     0.274 C
HETATM    4  C4  UNL     1      54.199  40.094  62.886  1.00  0.00     0.060 C
HETATM    5  C3  UNL     1      55.624  39.523  62.890  1.00  0.00     0.274 C
HETATM    6  N1  UNL     1      56.339  40.219  63.979  1.00  0.00     0.089 N
HETATM    7  C13 UNL     1      55.602  39.808  65.192  1.00  0.00     0.302 C
HETATM    8  C12 UNL     1      54.430  40.679  65.511  1.00  0.00     0.302 C
BRANCH   6   9
HETATM    9  C2  UNL     1      57.645  39.558  64.020  1.00  0.00     0.268 C
HETATM   10  C1  UNL     1      57.849  38.809  62.720  1.00  0.00     0.037 C
ENDBRANCH   6   9
ENDBRANCH   1   2
BRANCH   1  11
HETATM   11  C7  UNL     1      50.952  41.245  65.491  1.00  0.00     0.116 C
HETATM   12  C8  UNL     1      51.068  42.300  66.573  1.00  0.00     0.050 C
HETATM   13  C9  UNL     1      51.740  41.693  67.814  1.00  0.00     0.048 C
HETATM   14  C10 UNL     1      50.679  40.733  68.324  1.00  0.00     0.060 C
HETATM   15  N3  UNL     1      50.511  39.703  67.400  1.00  0.00    -0.380 N
HETATM   16  C11 UNL     1      50.707  39.874  66.028  1.00  0.00     0.099 C
ATOM     17  H3  UNL     1      50.234  38.783  67.741  1.00  0.00     0.164 HD
BRANCH  11  18
HETATM   18  O1  UNL     1      49.964  41.649  64.613  1.00  0.00    -0.383 OA
ATOM     19  H1  UNL     1      50.383  42.118  63.900  1.00  0.00     0.211 HD
ENDBRANCH  11  18
ENDBRANCH   1  11
TORSDOF 4
ENDMDL