MODEL 1
REMARK VINA RESULT: -6.474923227      0.000      0.000
REMARK  7 active torsions:
REMARK  status: ('A' for Active; 'I' for Inactive)
REMARK    1  A    between atoms: C2_2  and  C3_3
REMARK    2  A    between atoms: C3_3  and  O1_4
REMARK    3  A    between atoms: C3_3  and  C4_6
REMARK    4  A    between atoms: C3_3  and  C12_19
REMARK    5  A    between atoms: C5_7  and  C6_8
REMARK    6  A    between atoms: C6_8  and  N1_9
REMARK    7  A    between atoms: N2_13  and  N3_14
ROOT
HETATM    1  N1  UNL     1      51.776  40.551  65.661  1.00  0.00    -0.361 N
HETATM    2  C7  UNL     1      50.821  41.509  65.336  1.00  0.00     0.065 C
HETATM    3  C8  UNL     1      50.718  42.545  66.431  1.00  0.00     0.066 C
HETATM    4  C9  UNL     1      50.317  41.990  67.754  1.00  0.00     0.147 C
HETATM    5  N2  UNL     1      50.984  40.818  68.186  1.00  0.00    -0.332 N
HETATM    6  C10 UNL     1      50.594  39.593  67.584  1.00  0.00     0.162 C
HETATM    7  C11 UNL     1      51.279  39.334  66.256  1.00  0.00     0.149 C
ENDROOT
BRANCH   1   8
HETATM    8  C6  UNL     1      53.084  40.915  66.007  1.00  0.00     0.155 C
BRANCH   8   9
HETATM    9  C5  UNL     1      54.080  40.341  65.074  1.00  0.00    -0.058 C
HETATM   10  C4  UNL     1      54.878  39.870  64.297  1.00  0.00    -0.062 C
BRANCH  10  11
HETATM   11  C3  UNL     1      55.831  39.275  63.344  1.00  0.00     0.120 C
BRANCH  11  12
HETATM   12  C2  UNL     1      55.569  37.801  63.230  1.00  0.00     0.047 C
HETATM   13  C1  UNL     1      54.167  37.465  62.881  1.00  0.00     0.009 C
ENDBRANCH  11  12
BRANCH  11  14
HETATM   14  O1  UNL     1      55.705  39.839  62.094  1.00  0.00    -0.378 OA
ATOM     15  H1  UNL     1      55.852  40.775  62.170  1.00  0.00     0.211 HD
ENDBRANCH  11  14
BRANCH  11  16
HETATM   16  C12 UNL     1      57.210  39.569  63.891  1.00  0.00     0.047 C
HETATM   17  C13 UNL     1      57.219  39.557  65.404  1.00  0.00     0.009 C
ENDBRANCH  11  16
ENDBRANCH  10  11
ENDBRANCH   8   9
ENDBRANCH   1   8
BRANCH   5  18
HETATM   18  N3  UNL     1      51.457  40.775  69.458  1.00  0.00    -0.347 N
ATOM     19  H32 UNL     1      52.400  40.416  69.602  1.00  0.00     0.176 HD
ATOM     20  H31 UNL     1      50.790  40.647  70.220  1.00  0.00     0.176 HD
ENDBRANCH   5  18
TORSDOF 7
ENDMDL