MODEL 2
REMARK VINA RESULT: -7.051565321      1.874      4.493
REMARK  4 active torsions:
REMARK  status: ('A' for Active; 'I' for Inactive)
REMARK    1  A    between atoms: C5_6  and  C6_7
REMARK    2  A    between atoms: C6_7  and  O2_8
REMARK    3  A    between atoms: C11_14  and  C12_15
REMARK    4  A    between atoms: C12_15  and  O3_16
ROOT
HETATM    1  C1  UNL     1      53.259  36.861  65.300  1.00  0.00     0.020 C
HETATM    2  C2  UNL     1      53.618  38.148  64.653  1.00  0.00     0.005 C
HETATM    3  C3  UNL     1      53.527  38.062  63.118  1.00  0.00     0.179 C
HETATM    4  O1  UNL     1      54.470  38.853  62.514  1.00  0.00    -0.389 OA
HETATM    5  C4  UNL     1      54.679  40.079  63.100  1.00  0.00     0.179 C
HETATM    6  C5  UNL     1      54.998  40.014  64.569  1.00  0.00     0.009 C
HETATM    7  C7  UNL     1      55.098  38.507  64.893  1.00  0.00     0.028 C
HETATM    8  C8  UNL     1      53.878  40.370  65.450  1.00  0.00     0.028 C
HETATM    9  C9  UNL     1      53.203  41.668  65.254  1.00  0.00     0.011 C
HETATM   10  C10 UNL     1      52.068  41.640  66.291  1.00  0.00     0.034 C
HETATM   11  C11 UNL     1      51.293  40.383  66.284  1.00  0.00     0.145 C
HETATM   12  O4  UNL     1      52.034  39.217  66.161  1.00  0.00    -0.377 OA
HETATM   13  C13 UNL     1      52.823  39.323  65.057  1.00  0.00     0.137 C
ENDROOT
BRANCH   6  14
HETATM   14  C6  UNL     1      56.291  40.648  64.947  1.00  0.00     0.176 C
BRANCH  14  15
HETATM   15  O2  UNL     1      56.376  40.678  66.339  1.00  0.00    -0.400 OA
ATOM     16  H2  UNL     1      56.835  41.470  66.594  1.00  0.00     0.209 HD
ENDBRANCH  14  15
ENDBRANCH   6  14
BRANCH  11  17
HETATM   17  C12 UNL     1      50.539  40.299  67.617  1.00  0.00     0.196 C
BRANCH  17  18
HETATM   18  O3  UNL     1      51.360  40.683  68.676  1.00  0.00    -0.398 OA
ATOM     19  H3  UNL     1      52.222  40.291  68.595  1.00  0.00     0.209 HD
ENDBRANCH  17  18
ENDBRANCH  11  17
TORSDOF 4
ENDMDL