MODEL 3
REMARK VINA RESULT: -6.720953847      1.726      5.810
REMARK  5 active torsions:
REMARK  status: ('A' for Active; 'I' for Inactive)
REMARK    1  A    between atoms: O1_1  and  C1_3
REMARK    2  A    between atoms: C1_3  and  C2_4
REMARK    3  A    between atoms: N1_6  and  C4_7
REMARK    4  A    between atoms: C4_7  and  C5_8
REMARK    5  A    between atoms: C12_16  and  O3_17
ROOT
HETATM    1  C2  UNL     1      55.468  38.064  63.717  1.00  0.00     0.056 C
HETATM    2  C3  UNL     1      55.001  38.595  65.059  1.00  0.00     0.131 C
HETATM    3  N1  UNL     1      54.966  40.014  65.085  1.00  0.00    -0.392 N
HETATM    4  C10 UNL     1      56.201  40.626  65.079  1.00  0.00     0.124 C
HETATM    5  C11 UNL     1      57.191  39.823  64.225  1.00  0.00     0.052 C
HETATM    6  C12 UNL     1      56.493  39.018  63.171  1.00  0.00     0.127 C
ENDROOT
BRANCH   3   7
HETATM    7  C4  UNL     1      53.794  40.543  65.577  1.00  0.00     0.063 C
BRANCH   7   8
HETATM    8  C5  UNL     1      52.593  40.626  64.689  1.00  0.00     0.028 C
HETATM    9  C6  UNL     1      52.147  42.000  64.321  1.00  0.00     0.036 C
HETATM   10  C7  UNL     1      50.645  42.158  64.633  1.00  0.00     0.168 C
HETATM   11  O2  UNL     1      50.567  42.082  66.033  1.00  0.00    -0.391 OA
HETATM   12  C8  UNL     1      50.809  40.797  66.443  1.00  0.00     0.168 C
HETATM   13  C9  UNL     1      51.439  39.924  65.394  1.00  0.00     0.036 C
ENDBRANCH   7   8
ENDBRANCH   3   7
BRANCH   1  14
HETATM   14  C1  UNL     1      54.274  37.920  62.787  1.00  0.00     0.172 C
BRANCH  14  15
HETATM   15  O1  UNL     1      54.025  36.586  62.492  1.00  0.00    -0.400 OA
ATOM     16  H1  UNL     1      53.108  36.444  62.287  1.00  0.00     0.209 HD
ENDBRANCH  14  15
ENDBRANCH   1  14
BRANCH   6  17
HETATM   17  O3  UNL     1      57.456  38.251  62.519  1.00  0.00    -0.395 OA
ATOM     18  H3  UNL     1      58.062  38.856  62.110  1.00  0.00     0.210 HD
ENDBRANCH   6  17
TORSDOF 5
ENDMDL