MODEL 3
REMARK VINA RESULT: -6.494905695      1.208      1.897
REMARK  3 active torsions:
REMARK  status: ('A' for Active; 'I' for Inactive)
REMARK    1  A    between atoms: O1_1  and  C1_3
REMARK    2  A    between atoms: C1_3  and  C2_4
REMARK    3  A    between atoms: C2_4  and  N1_5
ROOT
HETATM    1  C1  UNL     1      52.899  39.691  65.551  1.00  0.00     0.090 C
HETATM    2  C7  UNL     1      51.900  39.762  64.399  1.00  0.00     0.072 C
HETATM    3  C8  UNL     1      50.954  40.922  64.597  1.00  0.00     0.124 C
HETATM    4  C9  UNL     1      51.716  42.179  64.265  1.00  0.00     0.032 C
HETATM    5  C10 UNL     1      53.004  42.162  65.017  1.00  0.00     0.010 C
HETATM    6  C11 UNL     1      53.123  41.086  66.053  1.00  0.00     0.024 C
HETATM    7  C12 UNL     1      52.223  41.320  67.229  1.00  0.00     0.034 C
HETATM    8  C13 UNL     1      50.874  41.755  66.752  1.00  0.00     0.168 C
HETATM    9  O2  UNL     1      50.332  40.932  65.806  1.00  0.00    -0.386 OA
ENDROOT
BRANCH   1  10
HETATM   10  O1  UNL     1      52.301  38.871  66.506  1.00  0.00    -0.388 OA
ATOM     11  H1  UNL     1      51.411  38.687  66.231  1.00  0.00     0.210 HD
ENDBRANCH   1  10
BRANCH   1  12
HETATM   12  C2  UNL     1      54.183  39.037  65.093  1.00  0.00     0.310 C
BRANCH  12  13
HETATM   13  N1  UNL     1      55.162  39.935  64.577  1.00  0.00     0.094 N
HETATM   14  C3  UNL     1      56.452  39.882  65.150  1.00  0.00     0.300 C
HETATM   15  C4  UNL     1      57.530  39.822  64.056  1.00  0.00     0.262 C
HETATM   16  N2  UNL     1      57.243  38.575  63.333  1.00  0.00    -0.072 N
HETATM   17  C5  UNL     1      56.020  38.805  62.588  1.00  0.00     0.262 C
ATOM     18  H22 UNL     1      58.018  38.257  62.751  1.00  0.00     0.277 HD
ATOM     19  H21 UNL     1      57.199  37.757  63.941  1.00  0.00     0.277 HD
HETATM   20  C6  UNL     1      55.163  39.902  63.141  1.00  0.00     0.300 C
ENDBRANCH  12  13
ENDBRANCH   1  12
TORSDOF 3
ENDMDL