MODEL 1
REMARK VINA RESULT: -7.353954231      0.000      0.000
REMARK  3 active torsions:
REMARK  status: ('A' for Active; 'I' for Inactive)
REMARK    1  A    between atoms: C3_5  and  N2_6
REMARK    2  A    between atoms: C4_8  and  C5_9
REMARK    3  A    between atoms: C5_9  and  N3_10
ROOT
HETATM    1  C1  UNL     1      50.924  40.679  68.688  1.00  0.00     0.089 C
HETATM    2  C2  UNL     1      51.367  40.972  67.291  1.00  0.00     0.080 A
HETATM    3  N1  UNL     1      52.559  40.619  66.821  1.00  0.00    -0.332 N
ATOM      4  H1  UNL     1      53.202  40.127  67.441  1.00  0.00     0.168 HD
HETATM    5  C3  UNL     1      52.965  40.888  65.525  1.00  0.00     0.116 A
HETATM    6  C8  UNL     1      52.064  41.552  64.727  1.00  0.00     0.030 A
HETATM    7  C9  UNL     1      50.825  41.914  65.239  1.00  0.00     0.112 A
HETATM    8  N4  UNL     1      50.484  41.621  66.516  1.00  0.00    -0.332 N
ATOM      9  H4  UNL     1      49.570  41.890  66.883  1.00  0.00     0.168 HD
HETATM   10  N5  UNL     1      49.899  42.594  64.447  1.00  0.00    -0.376 N
ATOM     11  H5  UNL     1      48.948  42.722  64.793  1.00  0.00     0.161 HD
HETATM   12  C10 UNL     1      50.248  43.115  63.170  1.00  0.00     0.121 C
HETATM   13  C11 UNL     1      51.312  42.339  62.464  1.00  0.00     0.024 C
HETATM   14  C12 UNL     1      52.426  41.860  63.351  1.00  0.00     0.048 C
ENDROOT
BRANCH   5  15
HETATM   15  N2  UNL     1      54.071  40.531  65.192  1.00  0.00    -0.354 N
HETATM   16  C4  UNL     1      55.415  40.435  65.365  1.00  0.00     0.092 C
ATOM     17  H2  UNL     1      53.908  40.040  64.313  1.00  0.00     0.166 HD
BRANCH  16  18
HETATM   18  C5  UNL     1      56.043  39.129  64.875  1.00  0.00     0.315 C
BRANCH  18  19
HETATM   19  N3  UNL     1      55.998  39.059  63.453  1.00  0.00     0.084 N
HETATM   20  C6  UNL     1      57.264  38.984  62.789  1.00  0.00     0.309 C
HETATM   21  C7  UNL     1      55.189  37.943  62.989  1.00  0.00     0.309 C
ENDBRANCH  18  19
ENDBRANCH  16  18
ENDBRANCH   5  15
TORSDOF 3
ENDMDL