MODEL 1
REMARK VINA RESULT: -6.521231270      0.000      0.000
REMARK  5 active torsions:
REMARK  status: ('A' for Active; 'I' for Inactive)
REMARK    1  A    between atoms: N2_4  and  C3_5
REMARK    2  A    between atoms: C3_5  and  C4_6
REMARK    3  A    between atoms: C6_8  and  O1_9
REMARK    4  A    between atoms: C7_11  and  C8_12
REMARK    5  A    between atoms: C8_12  and  O2_13
ROOT
HETATM    1  C4  UNL     1      54.469  39.339  63.848  1.00  0.00     0.153 C
HETATM    2  C5  UNL     1      55.220  39.820  65.063  1.00  0.00     0.068 C
HETATM    3  C6  UNL     1      56.562  39.161  64.959  1.00  0.00     0.151 C
HETATM    4  C7  UNL     1      56.467  38.485  63.608  1.00  0.00     0.174 C
HETATM    5  O3  UNL     1      55.126  38.204  63.446  1.00  0.00    -0.374 OA
ENDROOT
BRANCH   1   6
HETATM    6  C3  UNL     1      53.036  39.052  64.271  1.00  0.00     0.306 C
BRANCH   6   7
HETATM    7  N2  UNL     1      52.073  39.958  63.747  1.00  0.00     0.121 N
HETATM    8  C2  UNL     1      52.592  41.058  63.004  1.00  0.00     0.543 C
HETATM    9  N1  UNL     1      51.944  42.258  63.499  1.00  0.00     0.123 N
HETATM   10  C1  UNL     1      50.905  42.739  62.651  1.00  0.00     0.313 C
HETATM   11  C10 UNL     1      51.554  41.930  64.826  1.00  0.00     0.180 C
HETATM   12  C9  UNL     1      51.179  40.461  64.760  1.00  0.00     0.315 C
HETATM   13  C11 UNL     1      52.741  42.169  65.737  1.00  0.00     0.051 C
HETATM   14  C12 UNL     1      50.379  42.674  65.377  1.00  0.00     0.051 C
ENDBRANCH   6   7
ENDBRANCH   1   6
BRANCH   3  15
HETATM   15  O1  UNL     1      57.600  40.059  64.943  1.00  0.00    -0.393 OA
ATOM     16  H1  UNL     1      58.384  39.727  65.366  1.00  0.00     0.210 HD
ENDBRANCH   3  15
BRANCH   4  17
HETATM   17  C8  UNL     1      56.952  39.428  62.529  1.00  0.00     0.198 C
BRANCH  17  18
HETATM   18  O2  UNL     1      58.363  39.393  62.447  1.00  0.00    -0.398 OA
ATOM     19  H2  UNL     1      58.640  39.350  61.540  1.00  0.00     0.209 HD
ENDBRANCH  17  18
ENDBRANCH   4  17
TORSDOF 5
ENDMDL