MODEL 1
REMARK VINA RESULT: -6.496248122      0.000      0.000
REMARK  4 active torsions:
REMARK  status: ('A' for Active; 'I' for Inactive)
REMARK    1  A    between atoms: C2_2  and  C6_12
REMARK    2  A    between atoms: N1_3  and  N2_5
REMARK    3  A    between atoms: N2_5  and  C3_7
REMARK    4  A    between atoms: C3_7  and  N3_9
ROOT
HETATM    1  C1  UNL     1      52.835  38.215  66.197  1.00  0.00     0.070 C
HETATM    2  C2  UNL     1      53.507  39.154  65.257  1.00  0.00     0.036 C
HETATM    3  N1  UNL     1      52.766  40.193  64.923  1.00  0.00    -0.302 N
ATOM      4  H1  UNL     1      53.172  40.874  64.281  1.00  0.00     0.186 HD
ENDROOT
BRANCH   2   5
HETATM    5  C6  UNL     1      54.829  38.986  64.738  1.00  0.00     0.035 A
HETATM    6  C7  UNL     1      55.227  38.005  63.855  1.00  0.00     0.036 A
HETATM    7  C8  UNL     1      54.388  36.957  63.284  1.00  0.00     0.070 C
HETATM    8  N4  UNL     1      56.537  38.176  63.604  1.00  0.00    -0.302 N
HETATM    9  N5  UNL     1      56.981  39.219  64.288  1.00  0.00    -0.300 N
ATOM     10  H4  UNL     1      57.100  37.593  62.985  1.00  0.00     0.186 HD
HETATM   11  C9  UNL     1      58.333  39.738  64.295  1.00  0.00     0.177 C
HETATM   12  C10 UNL     1      55.933  39.742  65.004  1.00  0.00     0.038 A
HETATM   13  C11 UNL     1      56.059  40.903  65.873  1.00  0.00     0.071 C
ENDBRANCH   2   5
BRANCH   3  14
HETATM   14  N2  UNL     1      51.497  40.427  65.372  1.00  0.00    -0.276 N
ATOM     15  H2  UNL     1      50.713  39.868  65.035  1.00  0.00     0.189 HD
BRANCH  14  16
HETATM   16  C3  UNL     1      51.292  41.481  66.332  1.00  0.00     0.188 C
HETATM   17  S1  UNL     1      50.929  43.001  65.832  1.00  0.00    -0.039 SA
BRANCH  16  18
HETATM   18  N3  UNL     1      51.393  41.256  67.716  1.00  0.00    -0.366 N
HETATM   19  C4  UNL     1      52.672  41.168  68.348  1.00  0.00     0.151 C
HETATM   20  C5  UNL     1      50.195  41.113  68.498  1.00  0.00     0.151 C
ENDBRANCH  16  18
ENDBRANCH  14  16
ENDBRANCH   3  14
TORSDOF 4
ENDMDL