MODEL 3
REMARK VINA RESULT: -6.639243068      3.196      5.966
REMARK  3 active torsions:
REMARK  status: ('A' for Active; 'I' for Inactive)
REMARK    1  A    between atoms: N1_2  and  C2_4
REMARK    2  A    between atoms: C2_4  and  C3_6
REMARK    3  A    between atoms: C3_6  and  C4_7
ROOT
HETATM    1  C4  UNL     1      54.004  39.946  64.817  1.00  0.00     0.232 C
HETATM    2  C5  UNL     1      53.773  41.337  64.327  1.00  0.00     0.079 C
HETATM    3  C6  UNL     1      52.459  41.754  64.964  1.00  0.00     0.127 C
HETATM    4  C7  UNL     1      52.156  40.628  65.905  1.00  0.00     0.313 C
HETATM    5  N2  UNL     1      53.449  39.966  66.141  1.00  0.00     0.092 N
HETATM    6  C8  UNL     1      54.191  40.789  67.065  1.00  0.00     0.310 C
HETATM    7  C9  UNL     1      52.571  43.093  65.648  1.00  0.00     0.083 C
HETATM    8  C10 UNL     1      51.739  43.976  64.742  1.00  0.00     0.092 C
HETATM    9  C11 UNL     1      50.438  44.383  65.399  1.00  0.00     0.049 C
HETATM   10  C12 UNL     1      52.514  45.229  64.455  1.00  0.00     0.049 C
HETATM   11  O1  UNL     1      51.545  43.195  63.625  1.00  0.00    -0.230 OA
HETATM   12  O2  UNL     1      51.455  41.943  64.017  1.00  0.00    -0.227 OA
ENDROOT
BRANCH   1  13
HETATM   13  C3  UNL     1      55.454  39.548  64.778  1.00  0.00     0.105 C
BRANCH  13  14
HETATM   14  C2  UNL     1      55.726  38.422  63.891  1.00  0.00     0.075 C
HETATM   15  S1  UNL     1      54.560  37.311  63.650  1.00  0.00    -0.066 SA
BRANCH  14  16
HETATM   16  N1  UNL     1      56.956  38.255  63.235  1.00  0.00    -0.389 N
HETATM   17  C1  UNL     1      57.984  39.251  63.329  1.00  0.00     0.147 C
ATOM     18  H1  UNL     1      57.122  37.413  62.684  1.00  0.00     0.159 HD
ENDBRANCH  14  16
ENDBRANCH  13  14
ENDBRANCH   1  13
TORSDOF 3
ENDMDL