MODEL 2
REMARK VINA RESULT: -6.797831593      1.563      3.406
REMARK  4 active torsions:
REMARK  status: ('A' for Active; 'I' for Inactive)
REMARK    1  A    between atoms: C2_2  and  N1_3
REMARK    2  A    between atoms: C8_12  and  N3_13
REMARK       I    between atoms: N3_13  and  C10_15
REMARK    3  A    between atoms: C10_15  and  O2_17
REMARK    4  A    between atoms: O2_17  and  C11_18
ROOT
HETATM    1  N1  UNL     1      52.417  42.178  65.989  1.00  0.00     0.112 N
HETATM    2  C3  UNL     1      51.877  42.414  67.297  1.00  0.00     0.281 C
HETATM    3  C4  UNL     1      52.488  41.398  68.222  1.00  0.00     0.049 C
HETATM    4  C5  UNL     1      51.465  40.994  69.236  1.00  0.00     0.239 C
HETATM    5  N2  UNL     1      51.210  39.590  68.994  1.00  0.00    -0.074 N
ATOM      6  H21 UNL     1      50.263  39.303  69.241  1.00  0.00     0.277 HD
ATOM      7  H22 UNL     1      51.702  38.972  69.639  1.00  0.00     0.277 HD
HETATM    8  C6  UNL     1      51.538  39.347  67.604  1.00  0.00     0.241 C
HETATM    9  C7  UNL     1      52.706  40.221  67.297  1.00  0.00     0.072 C
HETATM   10  C8  UNL     1      52.755  40.772  65.915  1.00  0.00     0.334 C
ENDROOT
BRANCH  10  11
HETATM   11  N3  UNL     1      54.128  40.727  65.448  1.00  0.00    -0.301 N
HETATM   12  C9  UNL     1      55.158  41.039  66.416  1.00  0.00     0.157 C
HETATM   13  C10 UNL     1      54.448  40.388  64.098  1.00  0.00     0.364 C
HETATM   14  O1  UNL     1      53.555  40.113  63.262  1.00  0.00    -0.238 OA
BRANCH  13  15
HETATM   15  O2  UNL     1      55.764  40.354  63.672  1.00  0.00    -0.294 OA
BRANCH  15  16
HETATM   16  C11 UNL     1      56.676  39.326  63.914  1.00  0.00     0.061 C
HETATM   17  C12 UNL     1      57.637  39.293  62.722  1.00  0.00     0.046 C
HETATM   18  C13 UNL     1      56.006  37.966  64.005  1.00  0.00     0.046 C
HETATM   19  C14 UNL     1      57.496  39.526  65.161  1.00  0.00     0.046 C
ENDBRANCH  15  16
ENDBRANCH  13  15
ENDBRANCH  10  11
BRANCH   1  20
HETATM   20  C2  UNL     1      51.547  42.605  64.927  1.00  0.00     0.270 C
HETATM   21  C1  UNL     1      52.106  43.700  64.075  1.00  0.00     0.037 C
ENDBRANCH   1  20
TORSDOF 4
ENDMDL