MODEL 1
REMARK VINA RESULT: -6.708094801      0.000      0.000
REMARK  4 active torsions:
REMARK  status: ('A' for Active; 'I' for Inactive)
REMARK    1  A    between atoms: N1_2  and  C3_4
REMARK    2  A    between atoms: C3_4  and  C4_5
REMARK    3  A    between atoms: C5_6  and  C6_7
REMARK    4  A    between atoms: C6_7  and  C7_8
ROOT
HETATM    1  C7  UNL     1      53.264  42.847  65.677  1.00  0.00     0.168 C
HETATM    2  O1  UNL     1      52.777  42.277  66.881  1.00  0.00    -0.264 OA
HETATM    3  S1  UNL     1      51.139  42.062  66.580  1.00  0.00     0.310 S
HETATM    4  O2  UNL     1      50.748  40.673  66.289  1.00  0.00    -0.192 OA
HETATM    5  O3  UNL     1      50.316  42.659  67.712  1.00  0.00    -0.192 OA
HETATM    6  C8  UNL     1      51.015  43.134  65.169  1.00  0.00     0.137 C
HETATM    7  N2  UNL     1      50.144  43.206  64.271  1.00  0.00    -0.391 N
ATOM      8  H21 UNL     1      50.072  43.821  63.461  1.00  0.00     0.156 HD
ATOM      9  H22 UNL     1      49.290  42.664  64.131  1.00  0.00     0.156 HD
HETATM   10  C9  UNL     1      52.282  43.939  65.377  1.00  0.00     0.036 C
HETATM   11  C10 UNL     1      52.612  44.828  64.252  1.00  0.00     0.025 C
HETATM   12  C11 UNL     1      52.135  44.726  66.682  1.00  0.00     0.025 C
ENDROOT
BRANCH   1  13
HETATM   13  C6  UNL     1      53.346  41.745  64.688  1.00  0.00     0.128 C
BRANCH  13  14
HETATM   14  C5  UNL     1      54.492  40.877  64.930  1.00  0.00    -0.102 C
HETATM   15  C4  UNL     1      55.440  40.120  65.129  1.00  0.00    -0.076 C
BRANCH  15  16
HETATM   16  C3  UNL     1      56.561  39.210  65.373  1.00  0.00     0.364 C
BRANCH  16  17
HETATM   17  N1  UNL     1      56.750  38.392  64.191  1.00  0.00     0.090 N
HETATM   18  C1  UNL     1      57.373  39.199  63.139  1.00  0.00     0.310 C
HETATM   19  C2  UNL     1      55.456  37.952  63.708  1.00  0.00     0.310 C
ENDBRANCH  16  17
ENDBRANCH  15  16
ENDBRANCH  13  14
ENDBRANCH   1  13
TORSDOF 4
ENDMDL