MODEL 1
REMARK VINA RESULT: -7.381624658      0.000      0.000
REMARK  3 active torsions:
REMARK  status: ('A' for Active; 'I' for Inactive)
REMARK    1  A    between atoms: C3_3  and  C4_4
REMARK    2  A    between atoms: C9_12  and  C10_13
REMARK    3  A    between atoms: C10_13  and  O4_15
ROOT
HETATM    1  C1  UNL     1      52.068  43.393  66.529  1.00  0.00     0.015 C
HETATM    2  C2  UNL     1      52.539  42.183  66.791  1.00  0.00    -0.068 C
HETATM    3  C3  UNL     1      51.875  40.945  67.290  1.00  0.00     0.130 C
HETATM    4  C5  UNL     1      53.149  40.176  67.102  1.00  0.00     0.075 C
HETATM    5  S1  UNL     1      53.166  39.223  65.541  1.00  0.00    -0.152 SA
HETATM    6  C6  UNL     1      53.865  40.566  64.499  1.00  0.00     0.014 C
HETATM    7  C7  UNL     1      52.704  41.306  63.857  1.00  0.00     0.027 C
HETATM    8  C8  UNL     1      54.698  39.953  63.415  1.00  0.00     0.027 C
HETATM    9  C9  UNL     1      54.587  41.357  65.503  1.00  0.00     0.112 C
HETATM   10  C12 UNL     1      53.798  41.476  66.757  1.00  0.00     0.045 C
ENDROOT
BRANCH   9  11
HETATM   11  C10 UNL     1      55.877  40.743  65.862  1.00  0.00     0.264 C
HETATM   12  O3  UNL     1      56.338  40.879  67.001  1.00  0.00    -0.265 OA
BRANCH  11  13
HETATM   13  O4  UNL     1      56.574  40.012  64.917  1.00  0.00    -0.326 OA
HETATM   14  C11 UNL     1      57.988  39.985  64.832  1.00  0.00     0.213 C
ENDBRANCH  11  13
ENDBRANCH   9  11
BRANCH   3  15
HETATM   15  C4  UNL     1      51.397  41.034  68.693  1.00  0.00     0.182 C
HETATM   16  O1  UNL     1      52.083  40.606  69.675  1.00  0.00    -0.647 OA
HETATM   17  O2  UNL     1      50.171  41.591  68.991  1.00  0.00    -0.647 OA
ENDBRANCH   3  15
TORSDOF 3
ENDMDL