MODEL 3
REMARK VINA RESULT: -5.817829201      2.293      4.255
REMARK  3 active torsions:
REMARK  status: ('A' for Active; 'I' for Inactive)
REMARK    1  A    between atoms: O1_2  and  C2_3
REMARK    2  A    between atoms: C13_16  and  C14_17
REMARK    3  A    between atoms: C14_17  and  O3_18
ROOT
HETATM    1  C2  UNL     1      55.708  40.548  64.472  1.00  0.00     0.133 C
HETATM    2  C3  UNL     1      54.880  40.249  63.262  1.00  0.00     0.041 C
HETATM    3  C4  UNL     1      53.696  39.374  63.486  1.00  0.00     0.037 C
HETATM    4  C5  UNL     1      54.184  38.158  64.258  1.00  0.00     0.017 C
HETATM    5  C6  UNL     1      54.541  38.630  65.629  1.00  0.00     0.030 C
HETATM    6  C7  UNL     1      53.378  39.360  66.259  1.00  0.00     0.137 C
HETATM    7  O2  UNL     1      52.321  39.564  65.457  1.00  0.00    -0.360 OA
HETATM    8  C8  UNL     1      52.538  39.992  64.171  1.00  0.00     0.226 C
HETATM    9  N1  UNL     1      52.598  41.459  64.174  1.00  0.00    -0.368 N
HETATM   10  C9  UNL     1      52.083  42.162  63.022  1.00  0.00     0.151 C
HETATM   11  C10 UNL     1      53.117  42.276  65.213  1.00  0.00     0.084 C
HETATM   12  C11 UNL     1      53.834  41.828  66.234  1.00  0.00    -0.002 C
HETATM   13  C12 UNL     1      54.279  40.472  66.589  1.00  0.00     0.052 C
HETATM   14  C13 UNL     1      55.344  39.857  65.712  1.00  0.00     0.022 C
ENDROOT
BRANCH  14  15
HETATM   15  C14 UNL     1      56.597  39.607  66.569  1.00  0.00     0.177 C
BRANCH  15  16
HETATM   16  O3  UNL     1      57.159  40.869  66.875  1.00  0.00    -0.400 OA
ATOM     17  H3  UNL     1      57.460  40.836  67.776  1.00  0.00     0.209 HD
ENDBRANCH  15  16
ENDBRANCH  14  15
BRANCH   1  18
HETATM   18  O1  UNL     1      57.043  40.322  64.136  1.00  0.00    -0.390 OA
HETATM   19  C1  UNL     1      57.203  39.380  63.130  1.00  0.00     0.202 C
ENDBRANCH   1  18
TORSDOF 3
ENDMDL