MODEL 3
REMARK VINA RESULT: -6.910309162      2.304      5.441
REMARK  3 active torsions:
REMARK  status: ('A' for Active; 'I' for Inactive)
REMARK    1  A    between atoms: C2_2  and  C3_4
REMARK    2  A    between atoms: C9_11  and  O3_12
REMARK    3  A    between atoms: C12_16  and  N1_17
ROOT
HETATM    1  C3  UNL     1      54.570  38.921  65.065  1.00  0.00     0.086 C
HETATM    2  C4  UNL     1      53.270  38.548  65.717  1.00  0.00     0.047 C
HETATM    3  C5  UNL     1      52.489  39.842  65.926  1.00  0.00     0.128 C
HETATM    4  O2  UNL     1      51.971  40.189  64.674  1.00  0.00    -0.372 OA
HETATM    5  C6  UNL     1      52.401  41.517  64.452  1.00  0.00     0.095 C
HETATM    6  C7  UNL     1      52.201  42.008  63.096  1.00  0.00     0.048 C
HETATM    7  C8  UNL     1      53.875  41.317  64.839  1.00  0.00     0.058 C
HETATM    8  C9  UNL     1      54.448  40.106  64.160  1.00  0.00     0.137 C
HETATM    9  C10 UNL     1      53.516  40.900  66.276  1.00  0.00     0.026 C
HETATM   10  C11 UNL     1      52.819  42.180  66.708  1.00  0.00     0.046 C
HETATM   11  C12 UNL     1      51.818  42.329  65.563  1.00  0.00     0.256 C
ENDROOT
BRANCH   1  12
HETATM   12  C2  UNL     1      55.021  37.762  64.245  1.00  0.00     0.129 C
HETATM   13  C1  UNL     1      54.116  36.604  64.062  1.00  0.00     0.091 C
HETATM   14  O1  UNL     1      56.121  37.731  63.714  1.00  0.00    -0.298 OA
ENDBRANCH   1  12
BRANCH   8  15
HETATM   15  O3  UNL     1      55.747  40.413  63.699  1.00  0.00    -0.394 OA
ATOM     16  H3  UNL     1      55.652  41.037  62.989  1.00  0.00     0.210 HD
ENDBRANCH   8  15
BRANCH  11  17
HETATM   17  N1  UNL     1      51.505  43.672  65.255  1.00  0.00     0.087 N
HETATM   18  C13 UNL     1      50.267  44.026  65.972  1.00  0.00     0.310 C
HETATM   19  C14 UNL     1      52.459  44.672  65.588  1.00  0.00     0.310 C
ENDBRANCH  11  17
TORSDOF 3
ENDMDL