MODEL 4
REMARK VINA RESULT: -5.970792547      1.914      5.573
REMARK  4 active torsions:
REMARK  status: ('A' for Active; 'I' for Inactive)
REMARK    1  A    between atoms: C3_3  and  C4_4
REMARK    2  A    between atoms: C7_10  and  C9_12
REMARK    3  A    between atoms: C9_12  and  O2_14
REMARK    4  A    between atoms: O2_14  and  C10_15
REMARK       I    between atoms: N2_17  and  C12_18
ROOT
HETATM    1  C1  UNL     1      52.339  44.981  63.268  1.00  0.00     0.112 C
HETATM    2  C2  UNL     1      52.133  43.646  63.880  1.00  0.00    -0.107 C
HETATM    3  C3  UNL     1      51.970  42.570  64.398  1.00  0.00    -0.053 C
ENDROOT
BRANCH   3   4
HETATM    4  C4  UNL     1      51.765  41.278  65.045  1.00  0.00     0.371 C
HETATM    5  N1  UNL     1      50.735  41.362  66.011  1.00  0.00    -0.036 N
HETATM    6  C5  UNL     1      51.313  41.415  67.312  1.00  0.00     0.223 C
ATOM      7  H12 UNL     1      50.104  42.145  65.836  1.00  0.00     0.281 HD
ATOM      8  H11 UNL     1      50.056  40.607  65.919  1.00  0.00     0.281 HD
HETATM    9  C6  UNL     1      50.418  40.854  68.394  1.00  0.00     0.043 C
HETATM   10  C7  UNL     1      52.580  40.606  67.161  1.00  0.00     0.150 C
HETATM   11  C8  UNL     1      53.576  41.122  68.172  1.00  0.00     0.052 C
HETATM   12  N2  UNL     1      52.951  40.855  65.794  1.00  0.00    -0.293 N
HETATM   13  C12 UNL     1      54.221  40.741  65.172  1.00  0.00     0.219 C
HETATM   14  C13 UNL     1      55.434  40.307  65.928  1.00  0.00     0.117 C
HETATM   15  O3  UNL     1      54.371  40.999  63.968  1.00  0.00    -0.274 OA
BRANCH  10  16
HETATM   16  C9  UNL     1      52.334  39.152  67.319  1.00  0.00     0.289 C
HETATM   17  O1  UNL     1      52.246  38.626  68.447  1.00  0.00    -0.262 OA
BRANCH  16  18
HETATM   18  O2  UNL     1      52.198  38.360  66.205  1.00  0.00    -0.320 OA
BRANCH  18  19
HETATM   19  C10 UNL     1      53.077  37.284  65.896  1.00  0.00     0.174 C
HETATM   20  C11 UNL     1      52.318  36.005  66.237  1.00  0.00     0.034 C
ENDBRANCH  18  19
ENDBRANCH  16  18
ENDBRANCH  10  16
ENDBRANCH   3   4
TORSDOF 4
ENDMDL