MODEL 4
REMARK VINA RESULT: -6.900074655      2.462      4.599
REMARK  4 active torsions:
REMARK  status: ('A' for Active; 'I' for Inactive)
REMARK    1  A    between atoms: C2_2  and  O2_4
REMARK    2  A    between atoms: O2_4  and  C3_5
REMARK    3  A    between atoms: C12_15  and  O3_16
REMARK    4  A    between atoms: C13_19  and  O5_20
ROOT
HETATM    1  C3  UNL     1      40.444 -21.298  -2.462  1.00  0.00     0.188 C
HETATM    2  C4  UNL     1      41.811 -21.030  -2.103  1.00  0.00     0.051 C
HETATM    3  C5  UNL     1      42.633 -19.969  -2.694  1.00  0.00     0.007 C
HETATM    4  C6  UNL     1      43.519 -20.487  -3.827  1.00  0.00    -0.018 C
HETATM    5  C7  UNL     1      44.705 -21.161  -3.178  1.00  0.00     0.010 C
HETATM    6  C8  UNL     1      43.966 -19.364  -4.696  1.00  0.00     0.008 C
HETATM    7  C9  UNL     1      42.898 -18.754  -5.544  1.00  0.00     0.029 C
HETATM    8  C10 UNL     1      42.420 -19.617  -6.643  1.00  0.00     0.002 C
HETATM    9  C11 UNL     1      41.178 -20.062  -6.798  1.00  0.00     0.088 C
HETATM   10 CL1  UNL     1      40.788 -21.098  -8.201  1.00  0.00    -0.080 Cl
HETATM   11  C12 UNL     1      40.058 -19.780  -5.904  1.00  0.00     0.204 C
HETATM   12  O4  UNL     1      40.033 -20.034  -4.539  1.00  0.00    -0.264 OA
HETATM   13  C13 UNL     1      39.963 -21.234  -3.866  1.00  0.00     0.324 C
HETATM   14  O6  UNL     1      38.566 -21.424  -3.603  1.00  0.00    -0.318 OA
HETATM   15  C14 UNL     1      38.294 -20.315  -2.805  1.00  0.00     0.199 C
HETATM   16  C15 UNL     1      37.442 -20.682  -1.641  1.00  0.00     0.084 C
HETATM   17  C16 UNL     1      36.704 -22.000  -1.756  1.00  0.00     0.048 C
HETATM   18  C17 UNL     1      36.496 -19.610  -1.149  1.00  0.00     0.048 C
HETATM   19  O7  UNL     1      38.615 -20.742  -0.874  1.00  0.00    -0.361 OA
HETATM   20  C18 UNL     1      39.466 -20.255  -1.870  1.00  0.00     0.127 C
HETATM   21  C19 UNL     1      40.005 -18.940  -1.513  1.00  0.00     0.052 C
ENDROOT
BRANCH   1  22
HETATM   22  O2  UNL     1      39.991 -22.481  -1.887  1.00  0.00    -0.299 OA
BRANCH  22  23
HETATM   23  C2  UNL     1      40.574 -23.637  -1.579  1.00  0.00     0.255 C
HETATM   24  C1  UNL     1      40.826 -24.108  -0.202  1.00  0.00     0.126 C
HETATM   25  O1  UNL     1      40.921 -24.349  -2.528  1.00  0.00    -0.266 OA
ENDBRANCH  22  23
ENDBRANCH   1  22
BRANCH  13  26
HETATM   26  O5  UNL     1      40.297 -22.255  -4.704  1.00  0.00    -0.340 OA
ATOM     27  H5  UNL     1      40.298 -22.083  -5.639  1.00  0.00     0.215 HD
ENDBRANCH  13  26
BRANCH  11  28
HETATM   28  O3  UNL     1      39.037 -19.245  -6.512  1.00  0.00    -0.340 OA
ATOM     29  H3  UNL     1      38.771 -18.413  -6.138  1.00  0.00     0.220 HD
ENDBRANCH  11  28
TORSDOF 4
ENDMDL