MODEL 1
REMARK VINA RESULT: -9.476306728      0.000      0.000
REMARK  1 active torsions:
REMARK  status: ('A' for Active; 'I' for Inactive)
REMARK    1  A    between atoms: C18_23  and  O5_24
ROOT
HETATM    1  C1  UNL     1      42.969 -18.065  -7.169  1.00  0.00     0.017 C
HETATM    2  C2  UNL     1      42.498 -19.502  -6.912  1.00  0.00     0.071 C
HETATM    3  C3  UNL     1      40.965 -19.363  -6.695  1.00  0.00     0.306 C
HETATM    4  O1  UNL     1      40.318 -20.554  -6.902  1.00  0.00    -0.204 OA
HETATM    5  O2  UNL     1      39.521 -20.842  -5.951  1.00  0.00    -0.197 OA
HETATM    6  C4  UNL     1      39.616 -19.839  -4.951  1.00  0.00     0.212 C
HETATM    7  C5  UNL     1      38.417 -18.971  -5.272  1.00  0.00     0.075 C
HETATM    8  C6  UNL     1      37.903 -18.135  -4.172  1.00  0.00     0.042 C
HETATM    9  C7  UNL     1      37.495 -19.102  -3.048  1.00  0.00     0.171 C
HETATM   10  F1  UNL     1      36.832 -18.417  -2.055  1.00  0.00    -0.249 F
HETATM   11  C8  UNL     1      38.859 -19.597  -2.544  1.00  0.00     0.057 C
HETATM   12  C9  UNL     1      39.457 -20.449  -3.655  1.00  0.00     0.077 C
HETATM   13  C10 UNL     1      38.446 -21.600  -3.843  1.00  0.00     0.027 C
HETATM   14  C11 UNL     1      40.665 -21.119  -2.983  1.00  0.00     0.203 C
HETATM   15  O3  UNL     1      40.090 -21.642  -1.834  1.00  0.00    -0.352 OA
HETATM   16  C12 UNL     1      40.024 -22.923  -1.566  1.00  0.00     0.171 C
HETATM   17  C13 UNL     1      41.118 -23.854  -1.933  1.00  0.00     0.029 C
HETATM   18  C14 UNL     1      42.473 -23.164  -2.119  1.00  0.00     0.034 C
HETATM   19  C15 UNL     1      42.409 -22.572  -3.464  1.00  0.00     0.132 C
HETATM   20  O4  UNL     1      41.154 -22.102  -3.777  1.00  0.00    -0.346 OA
HETATM   21  C16 UNL     1      43.440 -21.473  -3.712  1.00  0.00     0.049 C
HETATM   22  C17 UNL     1      43.098 -20.363  -2.821  1.00  0.00     0.047 C
HETATM   23  C18 UNL     1      41.671 -20.122  -2.485  1.00  0.00     0.182 C
HETATM   24  C19 UNL     1      43.560 -21.176  -5.212  1.00  0.00     0.158 A
HETATM   25  O6  UNL     1      42.315 -21.360  -5.714  1.00  0.00    -0.374 OA
HETATM   26  C20 UNL     1      43.016 -20.024  -5.626  1.00  0.00     0.160 A
HETATM   27  O7  UNL     1      40.715 -19.167  -5.313  1.00  0.00    -0.318 OA
ENDROOT
BRANCH  23  28
HETATM   28  O5  UNL     1      41.532 -19.854  -1.093  1.00  0.00    -0.390 OA
ATOM     29  H5  UNL     1      42.350 -19.950  -0.619  1.00  0.00     0.210 HD
ENDBRANCH  23  28
TORSDOF 1
ENDMDL