MODEL 4
REMARK VINA RESULT: -8.465414696      1.058      1.553
REMARK  2 active torsions:
REMARK  status: ('A' for Active; 'I' for Inactive)
REMARK    1  A    between atoms: C2_5  and  N2_6
REMARK    2  A    between atoms: N2_6  and  C3_8
ROOT
HETATM    1  C3  UNL     1      44.094 -20.911  -3.332  1.00  0.00     0.083 C
HETATM    2  C4  UNL     1      43.819 -20.083  -4.540  1.00  0.00     0.030 C
HETATM    3  C5  UNL     1      42.781 -20.703  -5.459  1.00  0.00     0.073 C
HETATM    4  C6  UNL     1      41.607 -21.084  -4.546  1.00  0.00     0.200 C
HETATM    5  C7  UNL     1      42.047 -22.296  -3.785  1.00  0.00     0.073 C
HETATM    6  C8  UNL     1      43.466 -22.270  -3.347  1.00  0.00     0.030 C
HETATM    7  O1  UNL     1      41.349 -20.073  -3.625  1.00  0.00    -0.197 OA
HETATM    8  O2  UNL     1      40.092 -20.306  -3.314  1.00  0.00    -0.197 OA
HETATM    9  C9  UNL     1      39.515 -20.547  -4.555  1.00  0.00     0.204 C
HETATM   10  C10 UNL     1      39.308 -19.255  -5.321  1.00  0.00     0.072 C
HETATM   11  C11 UNL     1      38.495 -19.597  -6.551  1.00  0.00     0.010 C
HETATM   12  C12 UNL     1      37.374 -20.523  -6.203  1.00  0.00    -0.013 C
HETATM   13  C13 UNL     1      37.997 -21.893  -5.900  1.00  0.00     0.014 C
HETATM   14  C14 UNL     1      38.254 -21.345  -4.489  1.00  0.00     0.052 C
HETATM   15  C15 UNL     1      37.022 -20.460  -4.714  1.00  0.00     0.014 C
HETATM   16  O3  UNL     1      40.464 -21.311  -5.265  1.00  0.00    -0.313 OA
ENDROOT
BRANCH   1  17
HETATM   17  N2  UNL     1      45.504 -21.039  -3.133  1.00  0.00    -0.369 N
ATOM     18  H2  UNL     1      45.821 -21.904  -2.697  1.00  0.00     0.161 HD
BRANCH  17  19
HETATM   19  C2  UNL     1      46.404 -20.200  -3.439  1.00  0.00     0.142 A
HETATM   20  N1  UNL     1      46.809 -19.915  -4.692  1.00  0.00    -0.317 N
HETATM   21  C1  UNL     1      47.764 -19.022  -4.982  1.00  0.00     0.182 A
ATOM     22  H1  UNL     1      46.362 -20.409  -5.465  1.00  0.00     0.170 HD
HETATM   23 CL1  UNL     1      48.251 -18.691  -6.643  1.00  0.00    -0.045 Cl
HETATM   24  N3  UNL     1      48.350 -18.375  -3.958  1.00  0.00    -0.311 N
HETATM   25  C17 UNL     1      48.029 -18.576  -2.676  1.00  0.00     0.184 A
ATOM     26  H3  UNL     1      49.078 -17.694  -4.172  1.00  0.00     0.170 HD
HETATM   27  C16 UNL     1      47.033 -19.512  -2.421  1.00  0.00     0.166 A
HETATM   28  O4  UNL     1      48.430 -18.089  -1.444  1.00  0.00    -0.307 OA
HETATM   29  O5  UNL     1      46.859 -19.564  -1.046  1.00  0.00    -0.318 OA
HETATM   30  C18 UNL     1      47.410 -18.369  -0.480  1.00  0.00     0.354 C
ENDBRANCH  17  19
ENDBRANCH   1  17
TORSDOF 2
ENDMDL