MODEL 1
REMARK VINA RESULT: -8.163564271      0.000      0.000
REMARK  1 active torsions:
REMARK  status: ('A' for Active; 'I' for Inactive)
REMARK    1  A    between atoms: C5_5  and  O1_6
ROOT
HETATM    1  C1  UNL     1      39.739 -23.621  -0.204  1.00  0.00     0.049 C
HETATM    2  C2  UNL     1      38.830 -22.500   0.175  1.00  0.00     0.085 C
HETATM    3  C3  UNL     1      37.700 -23.015   1.058  1.00  0.00     0.043 C
HETATM    4  C4  UNL     1      37.049 -21.820   1.673  1.00  0.00     0.044 C
HETATM    5  C5  UNL     1      37.300 -20.577   0.815  1.00  0.00     0.089 C
HETATM    6  C6  UNL     1      38.813 -20.350   0.989  1.00  0.00     0.207 C
HETATM    7  O2  UNL     1      39.488 -21.584   1.044  1.00  0.00    -0.375 OA
HETATM    8  C7  UNL     1      37.116 -20.954  -0.630  1.00  0.00     0.019 C
HETATM    9  C8  UNL     1      35.894 -21.812  -0.857  1.00  0.00     0.021 C
HETATM   10  C9  UNL     1      36.863 -19.712  -1.523  1.00  0.00     0.016 C
HETATM   11  C10 UNL     1      37.121 -20.018  -2.918  1.00  0.00     0.024 C
HETATM   12  C11 UNL     1      37.693 -20.781  -4.007  1.00  0.00     0.081 C
HETATM   13  C12 UNL     1      36.695 -20.944  -5.145  1.00  0.00     0.192 C
HETATM   14  O3  UNL     1      37.001 -19.917  -6.029  1.00  0.00    -0.359 OA
HETATM   15  C13 UNL     1      38.354 -20.190  -6.219  1.00  0.00     0.278 C
HETATM   16  O4  UNL     1      39.023 -19.292  -7.041  1.00  0.00    -0.289 OA
HETATM   17  C14 UNL     1      40.365 -19.336  -7.365  1.00  0.00     0.261 C
HETATM   18  O5  UNL     1      40.698 -18.670  -8.371  1.00  0.00    -0.265 OA
HETATM   19  C15 UNL     1      41.459 -20.057  -6.689  1.00  0.00     0.111 C
HETATM   20  C16 UNL     1      40.877 -21.138  -5.828  1.00  0.00     0.011 C
HETATM   21  C17 UNL     1      40.164 -20.648  -4.612  1.00  0.00     0.016 C
HETATM   22  C18 UNL     1      38.826 -20.088  -4.780  1.00  0.00     0.025 C
HETATM   23  C19 UNL     1      38.787 -18.651  -4.302  1.00  0.00     0.022 C
HETATM   24  C20 UNL     1      38.137 -22.144  -3.527  1.00  0.00     0.271 C
HETATM   25  O6  UNL     1      38.409 -23.008  -4.356  1.00  0.00    -0.264 OA
HETATM   26  O7  UNL     1      38.259 -22.496  -2.194  1.00  0.00    -0.311 OA
HETATM   27  C21 UNL     1      38.353 -21.704  -1.018  1.00  0.00     0.177 C
ENDROOT
BRANCH   5  28
HETATM   28  O1  UNL     1      36.584 -19.488   1.222  1.00  0.00    -0.387 OA
ATOM     29  H1  UNL     1      36.545 -19.397   2.166  1.00  0.00     0.210 HD
ENDBRANCH   5  28
TORSDOF 1
ENDMDL