MODEL 5
REMARK VINA RESULT: -8.014929462      3.243      5.187
REMARK  2 active torsions:
REMARK  status: ('A' for Active; 'I' for Inactive)
REMARK    1  A    between atoms: C2_2  and  C4_4
REMARK    2  A    between atoms: C18_22  and  O4_23
ROOT
HETATM    1  C4  UNL     1      41.292 -20.733   2.137  1.00  0.00    -0.017 C
HETATM    2  C5  UNL     1      42.604 -21.406   2.493  1.00  0.00     0.052 C
HETATM    3  C6  UNL     1      40.902 -20.571   0.876  1.00  0.00     0.158 C
HETATM    4  O1  UNL     1      39.656 -19.979   0.698  1.00  0.00    -0.193 OA
HETATM    5  O2  UNL     1      38.749 -20.164  -0.203  1.00  0.00    -0.224 OA
HETATM    6  C7  UNL     1      38.772 -19.193  -1.168  1.00  0.00     0.226 C
HETATM    7  C8  UNL     1      40.136 -19.015  -1.809  1.00  0.00     0.085 C
HETATM    8  C9  UNL     1      40.564 -20.003  -2.738  1.00  0.00     0.124 A
HETATM    9  F1  UNL     1      41.428 -19.531  -3.701  1.00  0.00    -0.241 F
HETATM   10  C10 UNL     1      39.508 -20.964  -2.842  1.00  0.00     0.101 A
HETATM   11  C11 UNL     1      38.444 -20.650  -3.642  1.00  0.00     0.182 C
HETATM   12  O3  UNL     1      38.273 -21.575  -4.667  1.00  0.00    -0.343 OA
HETATM   13  C12 UNL     1      38.271 -20.634  -5.738  1.00  0.00     0.066 C
HETATM   14  C13 UNL     1      37.104 -21.147  -6.623  1.00  0.00     0.046 C
HETATM   15  C14 UNL     1      39.424 -20.489  -6.608  1.00  0.00     0.046 C
HETATM   16  C15 UNL     1      37.979 -19.717  -4.656  1.00  0.00     0.083 C
HETATM   17  C16 UNL     1      38.269 -18.311  -4.463  1.00  0.00     0.018 C
HETATM   18  C17 UNL     1      37.676 -18.045  -3.066  1.00  0.00     0.072 C
HETATM   19  C18 UNL     1      37.638 -19.201  -2.143  1.00  0.00     0.194 C
HETATM   20  O5  UNL     1      37.349 -20.441  -2.723  1.00  0.00    -0.315 OA
HETATM   21  C19 UNL     1      40.896 -21.348  -2.628  1.00  0.00     0.011 A
HETATM   22  C20 UNL     1      41.354 -22.253  -3.764  1.00  0.00     0.020 C
HETATM   23  C21 UNL     1      41.439 -21.891  -1.342  1.00  0.00     0.099 C
HETATM   24  C22 UNL     1      41.737 -20.985  -0.251  1.00  0.00     0.186 C
HETATM   25  O6  UNL     1      42.915 -20.443  -0.251  1.00  0.00    -0.290 OA
ENDROOT
BRANCH   1  26
HETATM   26  C2  UNL     1      40.530 -20.343   3.313  1.00  0.00    -0.062 C
HETATM   27  C1  UNL     1      40.789 -19.210   3.946  1.00  0.00     0.019 C
HETATM   28  C3  UNL     1      39.436 -21.233   3.847  1.00  0.00     0.048 C
ENDBRANCH   1  26
BRANCH  19  29
HETATM   29  O4  UNL     1      36.496 -19.003  -1.301  1.00  0.00    -0.363 OA
ATOM     30  H4  UNL     1      36.175 -19.887  -1.171  1.00  0.00     0.213 HD
ENDBRANCH  19  29
TORSDOF 2
ENDMDL