MODEL 3
REMARK VINA RESULT: -7.004516137      3.395      6.818
REMARK  0 active torsions:
REMARK  status: ('A' for Active; 'I' for Inactive)
ROOT
HETATM    1 CL1  UNL     1      48.063 -21.831  -2.781  1.00  0.00    -0.095 Cl
HETATM    2  C1  UNL     1      47.812 -20.289  -1.963  1.00  0.00     0.281 C
HETATM    3  C2  UNL     1      47.737 -19.121  -2.893  1.00  0.00     0.051 C
HETATM    4  C3  UNL     1      47.788 -19.484  -4.340  1.00  0.00     0.029 C
HETATM    5  C4  UNL     1      46.737 -18.758  -5.169  1.00  0.00     0.167 C
HETATM    6  O1  UNL     1      45.519 -19.432  -5.166  1.00  0.00    -0.389 OA
HETATM    7  C5  UNL     1      44.793 -18.989  -6.273  1.00  0.00     0.193 C
HETATM    8  C6  UNL     1      43.312 -18.930  -6.005  1.00  0.00     0.193 C
HETATM    9  O2  UNL     1      42.613 -19.375  -7.138  1.00  0.00    -0.387 OA
HETATM   10  C7  UNL     1      41.619 -20.290  -6.809  1.00  0.00     0.193 C
HETATM   11  C8  UNL     1      40.340 -19.598  -6.374  1.00  0.00     0.193 C
HETATM   12  O3  UNL     1      39.859 -20.276  -5.269  1.00  0.00    -0.387 OA
HETATM   13  C9  UNL     1      39.822 -19.506  -4.118  1.00  0.00     0.193 C
HETATM   14  C10 UNL     1      38.874 -20.160  -3.154  1.00  0.00     0.193 C
HETATM   15  O4  UNL     1      39.472 -20.439  -1.918  1.00  0.00    -0.388 OA
HETATM   16  C11 UNL     1      38.734 -21.453  -1.331  1.00  0.00     0.178 C
HETATM   17  C12 UNL     1      38.657 -21.309   0.165  1.00  0.00     0.100 C
HETATM   18  S1  UNL     1      40.198 -21.881   0.956  1.00  0.00    -0.166 SA
HETATM   19  C13 UNL     1      41.126 -20.433   1.463  1.00  0.00     0.084 C
HETATM   20  C14 UNL     1      42.355 -20.753   2.244  1.00  0.00     0.084 C
HETATM   21  S2  UNL     1      43.637 -21.476   1.191  1.00  0.00    -0.168 SA
HETATM   22  C15 UNL     1      45.237 -21.203   2.001  1.00  0.00     0.075 C
HETATM   23  C16 UNL     1      46.046 -20.194   1.211  1.00  0.00     0.038 C
HETATM   24  C17 UNL     1      46.853 -20.930   0.152  1.00  0.00     0.235 C
HETATM   25  N1  UNL     1      46.595 -20.307  -1.137  1.00  0.00    -0.058 N
ATOM     26  H11 UNL     1      45.816 -20.753  -1.622  1.00  0.00     0.278 HD
ATOM     27  H12 UNL     1      46.197 -19.374  -1.031  1.00  0.00     0.278 HD
ENDROOT
TORSDOF 0
ENDMDL