MODEL 3
REMARK VINA RESULT: -7.668231278      2.490      4.726
REMARK  1 active torsions:
REMARK  status: ('A' for Active; 'I' for Inactive)
REMARK    1  A    between atoms: C17_22  and  O5_23
ROOT
HETATM    1  O1  UNL     1      37.369 -22.831   1.111  1.00  0.00    -0.298 OA
HETATM    2  C1  UNL     1      37.938 -22.915   0.037  1.00  0.00     0.130 C
HETATM    3  C2  UNL     1      36.998 -22.759  -1.081  1.00  0.00     0.083 C
HETATM    4  C3  UNL     1      36.373 -21.387  -0.992  1.00  0.00     0.069 C
HETATM    5  C4  UNL     1      37.387 -20.296  -1.253  1.00  0.00     0.269 C
HETATM    6  O2  UNL     1      37.846 -20.416  -2.561  1.00  0.00    -0.359 OA
HETATM    7  C5  UNL     1      36.828 -20.024  -3.433  1.00  0.00     0.191 C
HETATM    8  C6  UNL     1      37.414 -19.068  -4.470  1.00  0.00     0.106 C
HETATM    9 CL1  UNL     1      38.624 -18.079  -3.650  1.00  0.00    -0.123 Cl
HETATM   10  C7  UNL     1      37.999 -19.921  -5.566  1.00  0.00     0.026 C
HETATM   11  C8  UNL     1      39.123 -19.219  -6.307  1.00  0.00     0.028 C
HETATM   12  C9  UNL     1      39.976 -20.259  -6.946  1.00  0.00    -0.031 C
HETATM   13  C10 UNL     1      41.253 -20.452  -6.631  1.00  0.00    -0.029 C
HETATM   14  C11 UNL     1      41.970 -19.648  -5.603  1.00  0.00     0.053 C
HETATM   15  C12 UNL     1      43.126 -20.466  -5.032  1.00  0.00     0.182 C
HETATM   16  O3  UNL     1      42.730 -21.810  -4.806  1.00  0.00    -0.321 OA
HETATM   17  C13 UNL     1      42.767 -22.417  -3.566  1.00  0.00     0.258 C
HETATM   18  O4  UNL     1      42.976 -23.636  -3.355  1.00  0.00    -0.265 OA
HETATM   19  C14 UNL     1      42.543 -21.565  -2.372  1.00  0.00     0.111 C
HETATM   20  C15 UNL     1      41.500 -22.301  -1.519  1.00  0.00     0.013 C
HETATM   21  C16 UNL     1      41.549 -21.880  -0.088  1.00  0.00     0.049 C
HETATM   22  C17 UNL     1      40.182 -21.957   0.547  1.00  0.00     0.151 C
HETATM   23  C18 UNL     1      39.392 -23.147   0.145  1.00  0.00     0.126 C
HETATM   24  C19 UNL     1      39.482 -20.665   0.316  1.00  0.00     0.296 C
HETATM   25  O6  UNL     1      40.152 -19.756   0.880  1.00  0.00    -0.262 OA
HETATM   26  O7  UNL     1      38.377 -20.191  -0.300  1.00  0.00    -0.287 OA
ENDROOT
BRANCH  22  27
HETATM   27  O5  UNL     1      40.403 -22.028   1.942  1.00  0.00    -0.379 OA
ATOM     28  H5  UNL     1      40.640 -21.149   2.215  1.00  0.00     0.211 HD
ENDBRANCH  22  27
TORSDOF 1
ENDMDL