MODEL 4
REMARK VINA RESULT: -8.701471979      2.580      4.507
REMARK  1 active torsions:
REMARK  status: ('A' for Active; 'I' for Inactive)
REMARK    1  A    between atoms: C4_4  and  O1_5
ROOT
HETATM    1  C1  UNL     1      38.978 -22.078  -7.244  1.00  0.00     0.047 C
HETATM    2  C2  UNL     1      39.521 -21.027  -6.279  1.00  0.00     0.068 A
HETATM    3  C3  UNL     1      40.836 -20.528  -6.762  1.00  0.00     0.073 C
HETATM    4  C4  UNL     1      41.511 -19.554  -5.852  1.00  0.00     0.156 C
HETATM    5  C5  UNL     1      42.290 -20.138  -4.747  1.00  0.00     0.103 C
HETATM    6  C6  UNL     1      42.974 -21.397  -5.235  1.00  0.00     0.050 C
HETATM    7  O2  UNL     1      43.348 -19.219  -4.421  1.00  0.00    -0.319 OA
HETATM    8  C7  UNL     1      43.721 -19.525  -3.115  1.00  0.00     0.174 A
HETATM    9  N1  UNL     1      44.714 -19.372  -2.229  1.00  0.00    -0.237 N
ATOM     10  H1  UNL     1      45.591 -18.883  -2.405  1.00  0.00     0.197 HD
HETATM   11  O3  UNL     1      44.386 -19.946  -1.114  1.00  0.00    -0.223 OA
HETATM   12  C8  UNL     1      43.198 -20.487  -1.207  1.00  0.00     0.179 A
HETATM   13 CL1  UNL     1      42.278 -21.375  -0.017  1.00  0.00    -0.054 Cl
HETATM   14  C9  UNL     1      42.736 -20.233  -2.490  1.00  0.00     0.053 A
HETATM   15  C10 UNL     1      41.627 -20.405  -3.469  1.00  0.00     0.086 C
HETATM   16  C11 UNL     1      40.512 -19.501  -3.112  1.00  0.00    -0.015 C
HETATM   17  C12 UNL     1      39.279 -19.589  -3.537  1.00  0.00     0.011 C
HETATM   18  C13 UNL     1      38.688 -20.576  -4.454  1.00  0.00     0.119 A
HETATM   19  O4  UNL     1      39.531 -21.499  -4.991  1.00  0.00    -0.361 OA
HETATM   20  C14 UNL     1      38.504 -20.004  -5.867  1.00  0.00     0.062 A
HETATM   21  C15 UNL     1      37.095 -20.328  -6.266  1.00  0.00     0.014 C
HETATM   22  C16 UNL     1      36.356 -20.365  -4.946  1.00  0.00     0.044 C
HETATM   23  C17 UNL     1      37.322 -21.050  -4.024  1.00  0.00     0.117 C
HETATM   24  C18 UNL     1      37.065 -20.558  -2.616  1.00  0.00     0.209 C
HETATM   25  O5  UNL     1      36.040 -21.262  -1.988  1.00  0.00    -0.386 OA
HETATM   26  C19 UNL     1      36.328 -22.605  -1.855  1.00  0.00     0.194 C
HETATM   27  C20 UNL     1      37.409 -23.033  -2.835  1.00  0.00     0.195 C
HETATM   28  O6  UNL     1      37.222 -22.441  -4.082  1.00  0.00    -0.372 OA
ENDROOT
BRANCH   4  29
HETATM   29  O1  UNL     1      42.458 -18.881  -6.675  1.00  0.00    -0.392 OA
ATOM     30  H1  UNL     1      42.000 -18.721  -7.491  1.00  0.00     0.210 HD
ENDBRANCH   4  29
TORSDOF 1
ENDMDL