MODEL 1
REMARK VINA RESULT: -6.929935508      0.000      0.000
REMARK  1 active torsions:
REMARK  status: ('A' for Active; 'I' for Inactive)
REMARK    1  A    between atoms: C6_9  and  O2_10
ROOT
HETATM    1  O1  UNL     1      40.916 -24.428  -2.294  1.00  0.00    -0.272 OA
HETATM    2  C1  UNL     1      41.269 -23.411  -1.624  1.00  0.00     0.239 C
HETATM    3  C2  UNL     1      41.969 -23.783  -0.381  1.00  0.00     0.115 C
HETATM    4  C3  UNL     1      41.465 -23.110   0.856  1.00  0.00     0.083 C
HETATM    5  S1  UNL     1      42.248 -21.513   1.170  1.00  0.00    -0.167 SA
HETATM    6  C4  UNL     1      42.774 -20.804  -0.402  1.00  0.00     0.095 C
HETATM    7  C5  UNL     1      41.583 -20.132  -1.014  1.00  0.00     0.161 C
HETATM    8  N1  UNL     1      41.287 -20.871  -2.275  1.00  0.00    -0.264 N
HETATM    9  C6  UNL     1      41.585 -19.970  -3.310  1.00  0.00     0.188 C
HETATM   10  C7  UNL     1      41.146 -19.831  -4.698  1.00  0.00     0.129 A
HETATM   11  C8  UNL     1      41.685 -19.924  -5.971  1.00  0.00     0.123 A
HETATM   12 CL1  UNL     1      43.244 -20.263  -6.767  1.00  0.00    -0.072 Cl
HETATM   13  S2  UNL     1      40.324 -19.558  -6.842  1.00  0.00     0.009 SA
HETATM   14  N2  UNL     1      39.981 -19.525  -5.204  1.00  0.00    -0.270 N
HETATM   15  C9  UNL     1      38.745 -19.237  -4.508  1.00  0.00     0.192 C
HETATM   16  N3  UNL     1      38.890 -18.794  -3.156  1.00  0.00    -0.385 N
ATOM     17  H3  UNL     1      39.734 -18.864  -2.589  1.00  0.00     0.160 HD
HETATM   18  C10 UNL     1      37.624 -18.229  -2.737  1.00  0.00     0.121 C
HETATM   19  C11 UNL     1      36.933 -19.020  -1.667  1.00  0.00     0.030 C
HETATM   20  C12 UNL     1      36.707 -20.471  -2.001  1.00  0.00     0.075 C
HETATM   21  S3  UNL     1      38.188 -21.381  -1.501  1.00  0.00    -0.167 SA
HETATM   22  C13 UNL     1      38.473 -22.880  -2.452  1.00  0.00     0.095 C
HETATM   23  C14 UNL     1      39.811 -22.768  -3.149  1.00  0.00     0.162 C
HETATM   24  N4  UNL     1      40.851 -22.196  -2.330  1.00  0.00    -0.256 N
ENDROOT
BRANCH   9  25
HETATM   25  O2  UNL     1      42.459 -19.062  -2.912  1.00  0.00    -0.343 OA
ATOM     26  H2  UNL     1      42.148 -18.184  -3.099  1.00  0.00     0.219 HD
ENDBRANCH   9  25
TORSDOF 1
ENDMDL