MODEL 2
REMARK VINA RESULT: -6.138166733      1.238      1.514
REMARK  7 active torsions:
REMARK  status: ('A' for Active; 'I' for Inactive)
REMARK    1  A    between atoms: N1_4  and  O1_6
REMARK    2  A    between atoms: O1_6  and  C4_7
REMARK    3  A    between atoms: C7_10  and  O2_11
REMARK    4  A    between atoms: C7_10  and  C8_13
REMARK    5  A    between atoms: C8_13  and  O4_15
REMARK    6  A    between atoms: O4_15  and  C9_16
REMARK    7  A    between atoms: C17_25  and  C18_26
ROOT
HETATM    1  C4  UNL     1       4.464  40.363  17.172  1.00  0.00     0.165 C
HETATM    2  C5  UNL     1       3.706  39.084  16.836  1.00  0.00     0.026 C
HETATM    3  C6  UNL     1       2.306  39.518  16.455  1.00  0.00     0.056 C
HETATM    4  C7  UNL     1       1.404  38.347  16.153  1.00  0.00     0.149 C
HETATM    5  C10 UNL     1       1.863  37.152  16.916  1.00  0.00     0.026 C
HETATM    6  C11 UNL     1       0.747  36.134  16.956  1.00  0.00     0.014 C
HETATM    7  C12 UNL     1       2.354  37.527  18.276  1.00  0.00     0.013 C
HETATM    8  C13 UNL     1       3.650  38.266  18.143  1.00  0.00    -0.003 C
HETATM    9  C14 UNL     1       3.765  39.366  19.111  1.00  0.00     0.001 C
HETATM   10  C15 UNL     1       4.194  39.144  20.482  1.00  0.00     0.006 C
HETATM   11  C16 UNL     1       4.800  40.520  20.815  1.00  0.00     0.006 C
HETATM   12  C17 UNL     1       5.177  41.152  19.493  1.00  0.00     0.001 C
HETATM   13  C21 UNL     1       5.012  40.061  18.529  1.00  0.00    -0.007 C
HETATM   14  C22 UNL     1       6.161  39.135  18.384  1.00  0.00     0.019 C
ENDROOT
BRANCH   4  15
HETATM   15  O2  UNL     1       1.516  38.040  14.785  1.00  0.00    -0.379 OA
ATOM     16  H2  UNL     1       1.678  37.109  14.697  1.00  0.00     0.211 HD
ENDBRANCH   4  15
BRANCH   4  17
HETATM   17  C8  UNL     1       0.001  38.738  16.441  1.00  0.00     0.301 C
HETATM   18  O3  UNL     1      -0.306  39.301  17.524  1.00  0.00    -0.261 OA
BRANCH  17  19
HETATM   19  O4  UNL     1      -1.037  38.508  15.546  1.00  0.00    -0.250 OA
BRANCH  19  20
HETATM   20  C9  UNL     1      -1.427  39.460  14.596  1.00  0.00     0.406 C
HETATM   21  O5  UNL     1      -0.627  39.831  13.705  1.00  0.00    -0.276 OA
ENDBRANCH  19  20
ENDBRANCH  17  19
ENDBRANCH   4  17
BRANCH   1  22
HETATM   22  O1  UNL     1       3.658  41.489  17.204  1.00  0.00    -0.274 OA
BRANCH  22  23
HETATM   23  N1  UNL     1       3.463  42.459  16.312  1.00  0.00    -0.275 N
HETATM   24  C2  UNL     1       3.711  43.688  16.314  1.00  0.00     0.002 C
HETATM   25  C1  UNL     1       3.349  44.497  15.113  1.00  0.00     0.065 C
HETATM   26  C3  UNL     1       4.349  44.385  17.450  1.00  0.00     0.065 C
ATOM     27  H1  UNL     1       3.021  42.136  15.451  1.00  0.00     0.193 HD
ENDBRANCH  22  23
ENDBRANCH   1  22
BRANCH  12  28
HETATM   28  C18 UNL     1       6.538  41.750  19.452  1.00  0.00    -0.010 A
HETATM   29  C19 UNL     1       6.664  43.148  19.939  1.00  0.00     0.005 A
HETATM   30  C20 UNL     1       7.391  42.038  20.599  1.00  0.00     0.005 A
ENDBRANCH  12  28
TORSDOF 7
ENDMDL