MODEL 3
REMARK VINA RESULT: -6.921309790      1.124      1.349
REMARK  4 active torsions:
REMARK  status: ('A' for Active; 'I' for Inactive)
REMARK    1  A    between atoms: C2_2  and  C3_3
REMARK    2  A    between atoms: C2_2  and  C19_24
REMARK    3  A    between atoms: C3_3  and  N1_4
REMARK    4  A    between atoms: C19_24  and  C21_26
ROOT
HETATM    1  N1  UNL     1       4.727  46.407  17.908  1.00  0.00     0.112 N
HETATM    2  C4  UNL     1       5.079  47.583  18.642  1.00  0.00     0.280 C
HETATM    3  C5  UNL     1       6.273  47.245  19.514  1.00  0.00     0.104 C
HETATM    4  C6  UNL     1       5.804  46.296  20.570  1.00  0.00     0.222 C
HETATM    5  C7  UNL     1       6.915  45.353  21.024  1.00  0.00     0.243 C
HETATM    6  O1  UNL     1       6.306  44.559  22.021  1.00  0.00    -0.347 OA
HETATM    7  C8  UNL     1       6.028  45.443  23.075  1.00  0.00     0.202 C
HETATM    8  C9  UNL     1       6.991  45.083  24.186  1.00  0.00     0.076 C
HETATM    9  C10 UNL     1       6.409  44.104  25.174  1.00  0.00    -0.009 C
HETATM   10  C11 UNL     1       5.689  44.778  26.300  1.00  0.00     0.009 C
HETATM   11  C12 UNL     1       4.347  45.331  25.926  1.00  0.00    -0.013 C
HETATM   12  C13 UNL     1       3.500  44.214  25.329  1.00  0.00     0.010 C
HETATM   13  C14 UNL     1       4.268  43.939  24.043  1.00  0.00    -0.004 C
HETATM   14  C15 UNL     1       5.497  43.130  24.470  1.00  0.00     0.010 C
HETATM   15  C16 UNL     1       4.626  45.312  23.581  1.00  0.00     0.055 C
HETATM   16  C17 UNL     1       4.461  46.261  24.744  1.00  0.00     0.015 C
HETATM   17  O2  UNL     1       6.221  46.777  22.720  1.00  0.00    -0.197 OA
HETATM   18  O3  UNL     1       5.445  47.027  21.690  1.00  0.00    -0.195 OA
HETATM   19  O4  UNL     1       4.747  45.557  20.072  1.00  0.00    -0.321 OA
HETATM   20  C18 UNL     1       4.966  45.242  18.737  1.00  0.00     0.443 C
ENDROOT
BRANCH   1  21
HETATM   21  C3  UNL     1       3.494  46.414  17.235  1.00  0.00     0.280 C
BRANCH  21  22
HETATM   22  C2  UNL     1       2.791  47.740  17.287  1.00  0.00     0.024 C
HETATM   23  C1  UNL     1       1.720  47.544  18.388  1.00  0.00     0.012 C
BRANCH  22  24
HETATM   24  C19 UNL     1       2.088  48.055  16.002  1.00  0.00     0.088 C
HETATM   25  C20 UNL     1       2.251  47.013  14.941  1.00  0.00     0.021 C
BRANCH  24  26
HETATM   26  C21 UNL     1       2.474  49.407  15.496  1.00  0.00     0.177 C
HETATM   27  O5  UNL     1       3.142  50.192  16.246  1.00  0.00    -0.648 OA
HETATM   28  O6  UNL     1       2.091  49.767  14.221  1.00  0.00    -0.648 OA
ENDBRANCH  24  26
ENDBRANCH  22  24
ENDBRANCH  21  22
ENDBRANCH   1  21
TORSDOF 4
ENDMDL