MODEL 5
REMARK VINA RESULT: -5.501461652      2.602      4.747
REMARK  4 active torsions:
REMARK  status: ('A' for Active; 'I' for Inactive)
REMARK    1  A    between atoms: C2_2  and  C4_4
REMARK    2  A    between atoms: N1_9  and  C8_10
REMARK    3  A    between atoms: C8_10  and  C9_11
REMARK    4  A    between atoms: C14_19  and  N3_20
ROOT
HETATM    1  C4  UNL     1       4.367  43.491  22.992  1.00  0.00     0.088 C
HETATM    2  C5  UNL     1       4.611  44.932  22.826  1.00  0.00     0.041 C
HETATM    3  C6  UNL     1       5.887  45.276  22.105  1.00  0.00     0.078 C
HETATM    4  C7  UNL     1       6.341  46.592  22.564  1.00  0.00     0.239 C
HETATM    5  O1  UNL     1       5.551  47.550  22.618  1.00  0.00    -0.272 OA
HETATM    6  N1  UNL     1       7.710  46.826  22.966  1.00  0.00    -0.307 N
HETATM    7  C11 UNL     1       8.661  45.925  22.419  1.00  0.00     0.080 C
HETATM    8  N2  UNL     1       9.912  46.093  22.660  1.00  0.00    -0.389 N
ATOM      9  H21 UNL     1      10.595  45.445  22.267  1.00  0.00     0.157 HD
ATOM     10  H22 UNL     1      10.224  46.869  23.243  1.00  0.00     0.157 HD
HETATM   11  C12 UNL     1       8.203  44.781  21.560  1.00  0.00     0.086 C
HETATM   12  C13 UNL     1       6.954  44.217  22.203  1.00  0.00     0.062 C
HETATM   13  C14 UNL     1       6.323  43.142  21.345  1.00  0.00     0.190 C
HETATM   14  C15 UNL     1       5.162  42.620  22.101  1.00  0.00     0.174 C
HETATM   15  O4  UNL     1       4.868  41.451  21.977  1.00  0.00    -0.294 OA
HETATM   16  C16 UNL     1       5.865  43.991  20.174  1.00  0.00    -0.001 A
HETATM   17  C17 UNL     1       5.669  43.744  18.840  1.00  0.00     0.060 A
HETATM   18  S1  UNL     1       5.157  45.248  18.233  1.00  0.00    -0.113 SA
HETATM   19  C18 UNL     1       5.197  46.157  19.671  1.00  0.00     0.058 A
HETATM   20  C19 UNL     1       5.619  45.246  20.605  1.00  0.00    -0.023 A
ENDROOT
BRANCH   1  21
HETATM   21  C2  UNL     1       4.491  43.084  24.409  1.00  0.00    -0.082 C
HETATM   22  C1  UNL     1       5.516  43.376  25.179  1.00  0.00     0.015 C
HETATM   23  C3  UNL     1       3.381  42.286  25.066  1.00  0.00     0.043 C
ENDBRANCH   1  21
BRANCH  13  24
HETATM   24  N3  UNL     1       7.247  42.124  20.971  1.00  0.00    -0.132 N
HETATM   25  O2  UNL     1       7.371  41.831  19.774  1.00  0.00    -0.535 OA
HETATM   26  O3  UNL     1       8.019  41.444  21.874  1.00  0.00    -0.535 OA
ENDBRANCH  13  24
BRANCH   6  27
HETATM   27  C8  UNL     1       8.076  47.901  23.860  1.00  0.00     0.133 C
BRANCH  27  28
HETATM   28  C9  UNL     1       7.808  47.554  25.308  1.00  0.00     0.016 C
HETATM   29  C10 UNL     1       8.068  48.792  26.137  1.00  0.00     0.006 C
ENDBRANCH  27  28
ENDBRANCH   6  27
TORSDOF 4
ENDMDL