MODEL 4
REMARK VINA RESULT: -5.342483531      0.841      1.002
REMARK  5 active torsions:
REMARK  status: ('A' for Active; 'I' for Inactive)
REMARK    1  A    between atoms: C2_2  and  C4_4
REMARK    2  A    between atoms: C9_12  and  C10_13
REMARK    3  A    between atoms: C12_15  and  C13_16
REMARK    4  A    between atoms: C18_23  and  O6_24
REMARK    5  A    between atoms: O6_24  and  C19_25
ROOT
HETATM    1  C4  UNL     1       6.225  45.114  22.853  1.00  0.00    -0.047 C
HETATM    2  C5  UNL     1       7.608  45.471  23.298  1.00  0.00     0.120 C
HETATM    3  C6  UNL     1       8.546  45.720  22.221  1.00  0.00     0.161 C
HETATM    4  O1  UNL     1       8.479  46.803  21.617  1.00  0.00    -0.295 OA
HETATM    5  C7  UNL     1       9.618  44.799  21.741  1.00  0.00     0.210 C
HETATM    6  O2  UNL     1      10.806  45.396  22.230  1.00  0.00    -0.307 OA
HETATM    7  C8  UNL     1      12.005  44.873  21.790  1.00  0.00     0.264 C
HETATM    8  O3  UNL     1      13.021  45.582  21.593  1.00  0.00    -0.265 OA
HETATM    9  C9  UNL     1      11.979  43.401  21.574  1.00  0.00     0.100 C
HETATM   10  C12 UNL     1      10.927  42.849  22.471  1.00  0.00     0.111 C
HETATM   11  C14 UNL     1       9.526  43.414  22.222  1.00  0.00     0.060 C
HETATM   12  C15 UNL     1       8.808  42.480  21.305  1.00  0.00    -0.013 C
HETATM   13  C16 UNL     1       7.684  42.601  20.688  1.00  0.00    -0.054 C
HETATM   14  C17 UNL     1       7.228  41.445  19.817  1.00  0.00     0.046 C
HETATM   15  C18 UNL     1       6.726  43.779  20.713  1.00  0.00     0.183 C
HETATM   16  C21 UNL     1       6.043  43.936  22.001  1.00  0.00     0.018 C
ENDROOT
BRANCH  15  17
HETATM   17  O6  UNL     1       5.689  43.507  19.732  1.00  0.00    -0.308 OA
BRANCH  17  18
HETATM   18  C19 UNL     1       5.372  44.450  18.781  1.00  0.00     0.255 C
HETATM   19  C20 UNL     1       5.786  45.867  18.910  1.00  0.00     0.126 C
HETATM   20  O7  UNL     1       4.715  44.113  17.771  1.00  0.00    -0.266 OA
ENDBRANCH  17  18
ENDBRANCH  15  17
BRANCH   1  21
HETATM   21  C2  UNL     1       5.383  46.300  22.572  1.00  0.00    -0.065 C
HETATM   22  C1  UNL     1       5.765  47.539  22.714  1.00  0.00     0.019 C
HETATM   23  C3  UNL     1       3.998  46.033  22.088  1.00  0.00     0.048 C
ENDBRANCH   1  21
BRANCH  10  24
HETATM   24  C13 UNL     1      11.321  42.872  23.884  1.00  0.00     0.178 C
HETATM   25  O4  UNL     1      12.125  42.016  24.402  1.00  0.00    -0.648 OA
HETATM   26  O5  UNL     1      10.854  43.822  24.780  1.00  0.00    -0.648 OA
ENDBRANCH  10  24
BRANCH   9  27
HETATM   27  C10 UNL     1      13.286  42.771  21.910  1.00  0.00     0.011 C
HETATM   28  C11 UNL     1      14.122  42.663  20.662  1.00  0.00     0.006 C
ENDBRANCH   9  27
TORSDOF 5
ENDMDL