MODEL 4
REMARK VINA RESULT: -5.987409166      2.785      5.089
REMARK  4 active torsions:
REMARK  status: ('A' for Active; 'I' for Inactive)
REMARK    1  A    between atoms: O1_2  and  C2_3
REMARK    2  A    between atoms: C14_17  and  O4_18
REMARK    3  A    between atoms: N1_25  and  C19_26
REMARK    4  A    between atoms: C19_26  and  C20_27
ROOT
HETATM    1  C2  UNL     1       8.107  44.918  23.964  1.00  0.00     0.282 C
HETATM    2  O2  UNL     1       8.860  46.104  24.136  1.00  0.00    -0.358 OA
HETATM    3  C3  UNL     1       8.258  47.197  23.597  1.00  0.00     0.181 C
HETATM    4  C4  UNL     1       8.077  47.144  22.079  1.00  0.00     0.049 C
HETATM    5  C5  UNL     1       6.661  46.920  21.794  1.00  0.00     0.019 C
HETATM    6  C6  UNL     1       6.196  45.808  20.943  1.00  0.00     0.021 C
HETATM    7  C7  UNL     1       4.704  46.119  20.683  1.00  0.00     0.013 C
HETATM    8  C8  UNL     1       4.628  46.881  19.409  1.00  0.00    -0.005 A
HETATM    9  C9  UNL     1       3.610  46.751  18.386  1.00  0.00     0.015 A
HETATM   10  C10 UNL     1       5.022  46.081  18.282  1.00  0.00     0.031 A
HETATM   11  C11 UNL     1       4.935  44.642  18.282  1.00  0.00     0.040 A
HETATM   12  C12 UNL     1       5.238  43.625  19.152  1.00  0.00     0.103 A
HETATM   13  C13 UNL     1       4.900  42.468  18.500  1.00  0.00     0.182 A
HETATM   14  O3  UNL     1       4.414  42.783  17.292  1.00  0.00    -0.297 OA
HETATM   15  C14 UNL     1       4.413  44.072  17.110  1.00  0.00     0.192 A
HETATM   16  O5  UNL     1       5.751  43.579  20.390  1.00  0.00    -0.338 OA
HETATM   17  C15 UNL     1       6.240  44.442  21.453  1.00  0.00     0.070 C
HETATM   18  C16 UNL     1       5.184  44.223  22.542  1.00  0.00     0.047 C
HETATM   19  C17 UNL     1       7.536  43.802  21.748  1.00  0.00     0.069 C
HETATM   20  C18 UNL     1       8.512  44.305  22.683  1.00  0.00     0.146 C
HETATM   21  N1  UNL     1       9.486  45.114  22.009  1.00  0.00    -0.364 N
HETATM   22  C23 UNL     1       9.077  46.289  21.397  1.00  0.00     0.070 C
ENDROOT
BRANCH  21  23
HETATM   23  C19 UNL     1      10.826  44.924  22.372  1.00  0.00     0.068 C
BRANCH  23  24
HETATM   24  C20 UNL     1      11.430  43.593  21.987  1.00  0.00     0.024 A
HETATM   25  C21 UNL     1      12.691  43.519  21.233  1.00  0.00     0.010 A
HETATM   26  C22 UNL     1      12.705  43.147  22.684  1.00  0.00     0.010 A
ENDBRANCH  23  24
ENDBRANCH  21  23
BRANCH   1  27
HETATM   27  O1  UNL     1       8.451  44.149  25.107  1.00  0.00    -0.364 OA
HETATM   28  C1  UNL     1       7.340  43.573  25.696  1.00  0.00     0.204 C
ENDBRANCH   1  27
BRANCH  15  29
HETATM   29  O4  UNL     1       3.970  44.704  15.960  1.00  0.00    -0.340 OA
ATOM     30  H4  UNL     1       3.330  45.400  15.872  1.00  0.00     0.220 HD
ENDBRANCH  15  29
TORSDOF 4
ENDMDL