MODEL 2
REMARK VINA RESULT: -5.069470346      3.935      6.588
REMARK  6 active torsions:
REMARK  status: ('A' for Active; 'I' for Inactive)
REMARK    1  A    between atoms: O1_2  and  C2_3
REMARK    2  A    between atoms: C2_3  and  C3_5
REMARK    3  A    between atoms: C3_5  and  C5_7
REMARK    4  A    between atoms: C3_5  and  O6_28
REMARK    5  A    between atoms: C5_7  and  C6_8
REMARK    6  A    between atoms: C16_19  and  O4_20
ROOT
HETATM    1  C6  UNL     1       4.984  44.145  18.754  1.00  0.00     0.195 C
HETATM    2  O3  UNL     1       5.746  43.191  19.360  1.00  0.00    -0.368 OA
HETATM    3  C7  UNL     1       6.200  43.467  20.626  1.00  0.00     0.059 C
HETATM    4  C8  UNL     1       7.644  43.831  20.539  1.00  0.00     0.046 C
HETATM    5  C9  UNL     1       6.121  42.150  21.413  1.00  0.00     0.046 C
HETATM    6  C10 UNL     1       5.359  44.455  21.382  1.00  0.00     0.031 C
HETATM    7  C11 UNL     1       5.790  44.541  22.794  1.00  0.00     0.018 C
HETATM    8  C12 UNL     1       5.664  45.938  23.383  1.00  0.00    -0.040 C
HETATM    9  C13 UNL     1       4.182  46.331  23.403  1.00  0.00     0.015 C
HETATM   10  C14 UNL     1       6.101  45.847  24.807  1.00  0.00     0.012 C
HETATM   11  C15 UNL     1       7.064  46.943  25.212  1.00  0.00     0.032 C
HETATM   12  C16 UNL     1       8.259  46.749  24.268  1.00  0.00     0.118 C
HETATM   13  C17 UNL     1       7.827  47.152  22.914  1.00  0.00     0.037 C
HETATM   14  C18 UNL     1       6.386  46.976  22.592  1.00  0.00    -0.003 C
HETATM   15  C19 UNL     1       6.260  46.788  21.107  1.00  0.00     0.018 C
HETATM   16  C20 UNL     1       5.263  45.780  20.676  1.00  0.00     0.065 C
HETATM   17  C21 UNL     1       5.476  45.480  19.230  1.00  0.00     0.160 C
HETATM   18  O5  UNL     1       6.014  46.299  18.528  1.00  0.00    -0.295 OA
ENDROOT
BRANCH   1  19
HETATM   19  C5  UNL     1       5.062  44.166  17.277  1.00  0.00     0.088 C
BRANCH  19  20
HETATM   20  C3  UNL     1       3.800  43.785  16.532  1.00  0.00     0.146 C
HETATM   21  C4  UNL     1       3.992  44.205  15.066  1.00  0.00     0.057 C
BRANCH  20  22
HETATM   22  C2  UNL     1       3.464  42.375  16.647  1.00  0.00     0.293 C
HETATM   23  O2  UNL     1       2.442  41.845  16.084  1.00  0.00    -0.262 OA
BRANCH  22  24
HETATM   24  O1  UNL     1       4.226  41.487  17.373  1.00  0.00    -0.324 OA
HETATM   25  C1  UNL     1       3.862  40.111  17.538  1.00  0.00     0.213 C
ENDBRANCH  22  24
ENDBRANCH  20  22
BRANCH  20  26
HETATM   26  O6  UNL     1       2.817  44.570  17.084  1.00  0.00    -0.375 OA
HETATM   27  C22 UNL     1       2.496  45.743  16.502  1.00  0.00     0.203 C
ENDBRANCH  20  26
ENDBRANCH  19  20
ENDBRANCH   1  19
BRANCH  12  28
HETATM   28  O4  UNL     1       9.380  47.411  24.706  1.00  0.00    -0.396 OA
ATOM     29  H4  UNL     1      10.181  46.990  24.418  1.00  0.00     0.210 HD
ENDBRANCH  12  28
TORSDOF 6
ENDMDL