MODEL 3
REMARK VINA RESULT: -6.923519826      1.274      2.027
REMARK  7 active torsions:
REMARK  status: ('A' for Active; 'I' for Inactive)
REMARK    1  A    between atoms: C3_3  and  C4_4
REMARK    2  A    between atoms: C4_4  and  O2_6
REMARK    3  A    between atoms: O2_6  and  C5_7
REMARK    4  A    between atoms: C16_20  and  O5_21
REMARK    5  A    between atoms: C16_20  and  C17_23
REMARK    6  A    between atoms: C17_23  and  O6_24
REMARK    7  A    between atoms: O6_24  and  C18_25
ROOT
HETATM    1  C5  UNL     1       5.717  45.056  21.851  1.00  0.00     0.161 C
HETATM    2  C6  UNL     1       5.482  46.459  22.236  1.00  0.00     0.211 C
HETATM    3  O3  UNL     1       5.845  47.439  21.291  1.00  0.00    -0.315 OA
HETATM    4  C7  UNL     1       6.091  47.235  19.940  1.00  0.00     0.289 C
HETATM    5  O4  UNL     1       7.083  47.941  19.531  1.00  0.00    -0.260 OA
HETATM    6  C8  UNL     1       5.423  46.388  18.998  1.00  0.00     0.048 C
HETATM    7  C9  UNL     1       5.429  44.910  19.335  1.00  0.00     0.034 C
HETATM    8  C10 UNL     1       5.820  43.982  18.237  1.00  0.00     0.037 C
HETATM    9  C11 UNL     1       4.753  43.421  17.364  1.00  0.00    -0.023 C
HETATM   10  C12 UNL     1       3.605  43.787  16.732  1.00  0.00    -0.077 C
HETATM   11  C13 UNL     1       2.928  42.762  15.966  1.00  0.00     0.044 C
HETATM   12  C14 UNL     1       2.892  45.167  16.715  1.00  0.00     0.117 C
HETATM   13  C15 UNL     1       3.602  45.977  17.588  1.00  0.00    -0.134 C
HETATM   14  C16 UNL     1       4.091  46.942  18.516  1.00  0.00     0.162 C
HETATM   15  C20 UNL     1       6.429  44.843  20.514  1.00  0.00     0.022 C
HETATM   16  C21 UNL     1       7.045  43.465  20.635  1.00  0.00     0.013 C
ENDROOT
BRANCH  14  17
HETATM   17  O5  UNL     1       3.269  47.183  19.613  1.00  0.00    -0.372 OA
ATOM     18  H5  UNL     1       3.048  46.358  20.028  1.00  0.00     0.212 HD
ENDBRANCH  14  17
BRANCH  14  19
HETATM   19  C17 UNL     1       4.325  48.237  17.790  1.00  0.00     0.234 C
BRANCH  19  20
HETATM   20  O6  UNL     1       3.271  49.031  17.438  1.00  0.00    -0.317 OA
BRANCH  20  21
HETATM   21  C18 UNL     1       2.718  49.319  16.227  1.00  0.00     0.254 C
HETATM   22  C19 UNL     1       2.895  50.719  15.713  1.00  0.00     0.126 C
HETATM   23  O7  UNL     1       2.107  48.453  15.602  1.00  0.00    -0.266 OA
ENDBRANCH  20  21
ENDBRANCH  19  20
ENDBRANCH  14  19
BRANCH   1  24
HETATM   24  O2  UNL     1       6.292  44.328  22.893  1.00  0.00    -0.310 OA
BRANCH  24  25
HETATM   25  C4  UNL     1       7.075  44.907  23.853  1.00  0.00     0.283 C
HETATM   26  O1  UNL     1       6.589  44.980  25.015  1.00  0.00    -0.260 OA
BRANCH  25  27
HETATM   27  C3  UNL     1       8.403  45.409  23.536  1.00  0.00     0.077 C
HETATM   28  C2  UNL     1       9.452  44.609  23.461  1.00  0.00    -0.025 C
HETATM   29  C1  UNL     1       9.368  43.145  23.691  1.00  0.00     0.036 C
ENDBRANCH  25  27
ENDBRANCH  24  25
ENDBRANCH   1  24
TORSDOF 7
ENDMDL