MODEL 5
REMARK VINA RESULT: -5.474248456      1.640      2.414
REMARK  7 active torsions:
REMARK  status: ('A' for Active; 'I' for Inactive)
REMARK    1  A    between atoms: C3_3  and  C4_4
REMARK    2  A    between atoms: C3_3  and  O1_6
REMARK    3  A    between atoms: O1_6  and  C6_7
REMARK    4  A    between atoms: C10_11  and  O2_12
REMARK    5  A    between atoms: C13_16  and  C15_18
REMARK    6  A    between atoms: C15_18  and  O4_20
REMARK    7  A    between atoms: C18_24  and  O6_25
ROOT
HETATM    1  C6  UNL     1       5.780  45.475  20.165  1.00  0.00     0.136 C
HETATM    2  C7  UNL     1       6.469  46.580  20.909  1.00  0.00     0.048 C
HETATM    3  C8  UNL     1       6.091  46.269  22.339  1.00  0.00     0.017 C
HETATM    4  C9  UNL     1       4.701  46.782  22.522  1.00  0.00     0.021 C
HETATM    5  C10 UNL     1       7.056  46.772  23.361  1.00  0.00     0.129 C
HETATM    6  C11 UNL     1       6.489  46.428  24.709  1.00  0.00     0.034 C
HETATM    7  C12 UNL     1       5.765  45.161  24.843  1.00  0.00     0.025 C
HETATM    8  C13 UNL     1       5.759  44.199  23.684  1.00  0.00     0.077 C
HETATM    9  C14 UNL     1       4.333  43.639  23.631  1.00  0.00     0.029 C
HETATM   10  C17 UNL     1       6.231  44.743  22.387  1.00  0.00     0.096 C
HETATM   11  O5  UNL     1       7.576  44.508  22.315  1.00  0.00    -0.348 OA
HETATM   12  C18 UNL     1       8.097  43.822  21.289  1.00  0.00     0.260 C
HETATM   13  C20 UNL     1       7.267  42.773  20.639  1.00  0.00     0.061 C
HETATM   14  C21 UNL     1       5.821  43.077  20.518  1.00  0.00     0.015 C
HETATM   15  C22 UNL     1       5.483  44.366  21.173  1.00  0.00     0.052 C
ENDROOT
BRANCH   1  16
HETATM   16  O1  UNL     1       4.577  45.920  19.547  1.00  0.00    -0.350 OA
BRANCH  16  17
HETATM   17  C3  UNL     1       4.349  45.615  18.237  1.00  0.00     0.042 C
HETATM   18  C2  UNL     1       3.557  46.361  17.454  1.00  0.00     0.001 C
HETATM   19  C1  UNL     1       2.887  47.567  17.987  1.00  0.00     0.038 C
BRANCH  17  20
HETATM   20  C4  UNL     1       5.000  44.414  17.660  1.00  0.00     0.060 C
HETATM   21  C5  UNL     1       4.017  43.543  16.932  1.00  0.00     0.012 C
ENDBRANCH  17  20
ENDBRANCH  16  17
ENDBRANCH   1  16
BRANCH   5  22
HETATM   22  O2  UNL     1       7.192  48.150  23.266  1.00  0.00    -0.395 OA
ATOM     23  H2  UNL     1       8.084  48.412  23.466  1.00  0.00     0.210 HD
ENDBRANCH   5  22
BRANCH   8  24
HETATM   24  C15 UNL     1       6.571  43.029  24.135  1.00  0.00     0.270 C
HETATM   25  O3  UNL     1       7.548  43.114  24.927  1.00  0.00    -0.264 OA
BRANCH  24  26
HETATM   26  O4  UNL     1       6.331  41.722  23.724  1.00  0.00    -0.326 OA
HETATM   27  C16 UNL     1       7.311  40.720  23.659  1.00  0.00     0.213 C
ENDBRANCH  24  26
ENDBRANCH   8  24
BRANCH  12  28
HETATM   28  O6  UNL     1       9.301  43.241  21.687  1.00  0.00    -0.366 OA
HETATM   29  C19 UNL     1      10.048  43.995  22.550  1.00  0.00     0.204 C
ENDBRANCH  12  28
TORSDOF 7
ENDMDL