MODEL 5
REMARK VINA RESULT: -5.625738779      3.419      5.530
REMARK  6 active torsions:
REMARK  status: ('A' for Active; 'I' for Inactive)
REMARK    1  A    between atoms: C2_2  and  C3_3
REMARK    2  A    between atoms: C11_12  and  O2_13
REMARK    3  A    between atoms: O2_13  and  C12_14
REMARK    4  A    between atoms: C15_19  and  C16_20
REMARK    5  A    between atoms: C19_24  and  O5_25
REMARK    6  A    between atoms: O5_25  and  C20_26
ROOT
HETATM    1  C3  UNL     1       3.009  43.927  24.292  1.00  0.00    -0.026 C
HETATM    2  C4  UNL     1       2.919  44.764  25.560  1.00  0.00     0.019 C
HETATM    3  C5  UNL     1       2.950  44.886  23.125  1.00  0.00     0.018 C
HETATM    4  C6  UNL     1       4.296  44.932  22.502  1.00  0.00    -0.003 C
HETATM    5  C7  UNL     1       4.772  46.325  22.180  1.00  0.00     0.028 C
HETATM    6  C8  UNL     1       6.202  46.317  21.719  1.00  0.00     0.081 C
HETATM    7  C9  UNL     1       6.891  45.030  21.980  1.00  0.00     0.171 C
HETATM    8  O1  UNL     1       7.897  44.734  21.267  1.00  0.00    -0.292 OA
HETATM    9  C10 UNL     1       6.467  44.096  23.012  1.00  0.00     0.016 C
HETATM   10  C11 UNL     1       7.140  43.022  23.364  1.00  0.00     0.158 C
HETATM   11  C13 UNL     1       5.184  44.449  23.660  1.00  0.00     0.029 C
HETATM   12  C14 UNL     1       4.405  43.299  24.172  1.00  0.00     0.023 C
HETATM   13  C15 UNL     1       6.900  47.497  22.336  1.00  0.00     0.030 C
HETATM   14  C18 UNL     1       6.990  48.454  21.173  1.00  0.00     0.177 C
HETATM   15  O4  UNL     1       7.291  47.605  20.115  1.00  0.00    -0.359 OA
HETATM   16  C19 UNL     1       6.333  46.607  20.241  1.00  0.00     0.286 C
ENDROOT
BRANCH  13  17
HETATM   17  C16 UNL     1       8.260  47.142  22.884  1.00  0.00     0.004 C
HETATM   18  C17 UNL     1       8.294  47.554  24.341  1.00  0.00     0.005 C
ENDBRANCH  13  17
BRANCH  16  19
HETATM   19  O5  UNL     1       5.132  47.006  19.648  1.00  0.00    -0.289 OA
BRANCH  19  20
HETATM   20  C20 UNL     1       4.566  46.278  18.603  1.00  0.00     0.257 C
HETATM   21  C21 UNL     1       5.084  44.947  18.180  1.00  0.00     0.126 C
HETATM   22  O6  UNL     1       3.567  46.822  18.022  1.00  0.00    -0.266 OA
ENDBRANCH  19  20
ENDBRANCH  16  19
BRANCH  10  23
HETATM   23  O2  UNL     1       8.342  42.656  22.785  1.00  0.00    -0.275 OA
BRANCH  23  24
HETATM   24  C12 UNL     1       8.501  41.461  22.065  1.00  0.00     0.377 C
HETATM   25  N1  UNL     1       9.374  40.425  22.503  1.00  0.00    -0.032 NA
HETATM   26  O3  UNL     1       7.814  41.373  21.003  1.00  0.00    -0.242 OA
ENDBRANCH  23  24
ENDBRANCH  10  23
BRANCH   1  27
HETATM   27  C2  UNL     1       1.943  42.926  24.279  1.00  0.00    -0.028 C
HETATM   28  C1  UNL     1       2.112  41.806  23.592  1.00  0.00     0.007 C
ENDBRANCH   1  27
TORSDOF 6
ENDMDL