MODEL 3
REMARK VINA RESULT: -7.867842268      3.947      9.206
REMARK  6 active torsions:
REMARK  status: ('A' for Active; 'I' for Inactive)
REMARK    1  A    between atoms: C2_2  and  C3_3
REMARK    2  A    between atoms: C2_2  and  C5_7
REMARK    3  A    between atoms: C3_3  and  C4_4
REMARK    4  A    between atoms: C4_4  and  O1_5
REMARK    5  A    between atoms: C9_11  and  O2_12
REMARK    6  A    between atoms: C11_15  and  C12_16
ROOT
HETATM    1  C5  UNL     1      22.802  13.123 -13.690  1.00  0.00    -0.034 C
HETATM    2  C6  UNL     1      21.955  14.251 -14.332  1.00  0.00     0.016 C
HETATM    3  C7  UNL     1      23.398  13.839 -12.457  1.00  0.00     0.013 C
HETATM    4  C8  UNL     1      22.354  13.510 -11.363  1.00  0.00     0.044 C
HETATM    5  C9  UNL     1      22.242  12.074 -11.631  1.00  0.00     0.086 C
HETATM    6  C10 UNL     1      21.088  11.318 -11.233  1.00  0.00    -0.046 C
HETATM    7  C11 UNL     1      20.342  11.499 -10.172  1.00  0.00     0.006 C
HETATM    8  C25 UNL     1      20.921  10.284 -12.284  1.00  0.00     0.038 C
HETATM    9  C26 UNL     1      21.936  10.703 -13.388  1.00  0.00     0.013 C
HETATM   10  C27 UNL     1      21.939  12.142 -13.151  1.00  0.00     0.033 C
ENDROOT
BRANCH   5  11
HETATM   11  O2  UNL     1      23.382  11.334 -11.389  1.00  0.00    -0.385 OA
ATOM     12  H2  UNL     1      23.242  10.409 -11.228  1.00  0.00     0.211 HD
ENDBRANCH   5  11
BRANCH   7  13
HETATM   13  C12 UNL     1      19.188  10.675  -9.856  1.00  0.00     0.004 C
HETATM   14  C13 UNL     1      17.992  10.955 -10.321  1.00  0.00    -0.068 C
HETATM   15  C14 UNL     1      17.643  12.082 -11.191  1.00  0.00     0.036 C
HETATM   16  C18 UNL     1      16.773  10.178 -10.038  1.00  0.00     0.095 C
HETATM   17  C15 UNL     1      16.495  11.498 -12.028  1.00  0.00     0.017 C
HETATM   18  C16 UNL     1      15.737  10.638 -11.006  1.00  0.00     0.002 C
HETATM   19  C17 UNL     1      14.746  11.544 -10.306  1.00  0.00     0.019 C
HETATM   20  C24 UNL     1      15.079   9.538 -11.767  1.00  0.00     0.187 C
HETATM   21  C21 UNL     1      14.699   8.335 -10.958  1.00  0.00    -0.009 C
HETATM   22  F1  UNL     1      13.898  10.066 -12.308  1.00  0.00    -0.248 F
HETATM   23  C20 UNL     1      15.745   7.867 -10.005  1.00  0.00     0.090 C
HETATM   24  C22 UNL     1      14.428   7.206 -11.958  1.00  0.00     0.018 C
HETATM   25  C23 UNL     1      13.407   8.534 -10.199  1.00  0.00     0.018 C
HETATM   26  C19 UNL     1      16.964   8.707 -10.193  1.00  0.00     0.136 C
HETATM   27  O3  UNL     1      18.008   8.160 -10.454  1.00  0.00    -0.297 OA
ENDBRANCH   7  13
BRANCH   1  28
HETATM   28  C2  UNL     1      23.813  12.839 -14.718  1.00  0.00    -0.008 C
HETATM   29  C1  UNL     1      23.865  13.704 -15.923  1.00  0.00     0.011 C
BRANCH  28  30
HETATM   30  C3  UNL     1      25.194  12.777 -14.107  1.00  0.00     0.031 C
BRANCH  30  31
HETATM   31  C4  UNL     1      25.726  11.352 -14.095  1.00  0.00     0.164 C
BRANCH  31  32
HETATM   32  O1  UNL     1      25.806  10.873 -12.803  1.00  0.00    -0.401 OA
ATOM     33  H1  UNL     1      25.529   9.964 -12.764  1.00  0.00     0.209 HD
ENDBRANCH  31  32
ENDBRANCH  30  31
ENDBRANCH  28  30
ENDBRANCH   1  28
TORSDOF 6
ENDMDL