MODEL 5
REMARK VINA RESULT: -7.031787686      3.577      6.805
REMARK  6 active torsions:
REMARK  status: ('A' for Active; 'I' for Inactive)
REMARK    1  A    between atoms: C2_2  and  C3_4
REMARK    2  A    between atoms: C8_9  and  C9_10
REMARK    3  A    between atoms: C9_10  and  C10_11
REMARK    4  A    between atoms: C23_25  and  O2_26
REMARK    5  A    between atoms: C24_28  and  C26_30
REMARK    6  A    between atoms: C26_30  and  O3_31
ROOT
HETATM    1  C3  UNL     1      18.877  12.338 -13.275  1.00  0.00    -0.042 C
HETATM    2  C4  UNL     1      17.681  13.091 -12.694  1.00  0.00     0.043 C
HETATM    3  C5  UNL     1      16.905  12.147 -11.811  1.00  0.00    -0.001 C
HETATM    4  C6  UNL     1      15.712  11.563 -12.566  1.00  0.00    -0.001 C
HETATM    5  C7  UNL     1      14.482  12.446 -12.505  1.00  0.00     0.011 C
HETATM    6  C8  UNL     1      13.759  11.289 -11.828  1.00  0.00    -0.001 C
HETATM    7  C14 UNL     1      15.050  10.580 -11.631  1.00  0.00    -0.036 C
HETATM    8  C15 UNL     1      15.018   9.160 -12.196  1.00  0.00     0.016 C
HETATM    9  C16 UNL     1      15.646  10.575 -10.269  1.00  0.00     0.010 C
HETATM   10  C17 UNL     1      17.118  10.264 -10.261  1.00  0.00     0.007 C
HETATM   11  C18 UNL     1      17.774  10.979 -11.423  1.00  0.00     0.003 C
HETATM   12  C19 UNL     1      19.179  11.470 -11.022  1.00  0.00    -0.015 C
HETATM   13  C20 UNL     1      18.984  12.533 -10.039  1.00  0.00     0.020 C
HETATM   14  C21 UNL     1      19.823  10.238 -10.407  1.00  0.00     0.016 C
HETATM   15  C22 UNL     1      21.241  10.160 -10.890  1.00  0.00     0.034 C
HETATM   16  C23 UNL     1      21.882  11.493 -11.057  1.00  0.00     0.132 C
HETATM   17  C24 UNL     1      21.235  12.330 -12.188  1.00  0.00     0.028 C
HETATM   18  C25 UNL     1      22.064  11.945 -13.435  1.00  0.00     0.025 C
HETATM   19  C27 UNL     1      19.866  11.849 -12.344  1.00  0.00    -0.053 C
ENDROOT
BRANCH   6  20
HETATM   20  C9  UNL     1      12.988  11.740 -10.635  1.00  0.00     0.046 C
BRANCH  20  21
HETATM   21  C10 UNL     1      11.523  11.598 -10.935  1.00  0.00    -0.034 A
HETATM   22  C11 UNL     1      10.666  10.625 -10.487  1.00  0.00     0.033 A
HETATM   23  C12 UNL     1       9.419  10.922 -11.031  1.00  0.00     0.142 A
HETATM   24  O1  UNL     1       9.546  11.998 -11.748  1.00  0.00    -0.334 OA
HETATM   25  C13 UNL     1      10.768  12.448 -11.732  1.00  0.00     0.148 A
ENDBRANCH  20  21
ENDBRANCH   6  20
BRANCH   1  26
HETATM   26  C2  UNL     1      19.197  12.931 -14.599  1.00  0.00     0.195 C
HETATM   27  C1  UNL     1      17.908  13.183 -15.418  1.00  0.00     0.050 C
HETATM   28  F1  UNL     1      19.765  14.188 -14.528  1.00  0.00    -0.245 F
ENDBRANCH   1  26
BRANCH  17  29
HETATM   29  C26 UNL     1      21.563  13.723 -11.822  1.00  0.00     0.180 C
BRANCH  29  30
HETATM   30  O3  UNL     1      22.853  14.090 -12.323  1.00  0.00    -0.400 OA
ATOM     31  H3  UNL     1      23.045  13.631 -13.132  1.00  0.00     0.209 HD
ENDBRANCH  29  30
ENDBRANCH  17  29
BRANCH  16  32
HETATM   32  O2  UNL     1      23.235  11.321 -11.303  1.00  0.00    -0.394 OA
ATOM     33  H2  UNL     1      23.728  11.962 -10.803  1.00  0.00     0.210 HD
ENDBRANCH  16  32
TORSDOF 6
ENDMDL