MODEL 4
REMARK VINA RESULT: -6.599405851      3.397      5.393
REMARK  6 active torsions:
REMARK  status: ('A' for Active; 'I' for Inactive)
REMARK    1  A    between atoms: C2_2  and  C5_5
REMARK    2  A    between atoms: C11_11  and  C12_12
REMARK    3  A    between atoms: C17_19  and  C18_20
REMARK    4  A    between atoms: C20_23  and  O1_24
REMARK    5  A    between atoms: C20_23  and  C21_26
REMARK    6  A    between atoms: C21_26  and  C22_27
ROOT
HETATM    1  C5  UNL     1      20.747  14.036 -10.984  1.00  0.00     0.029 C
HETATM    2  C6  UNL     1      21.717  14.363 -12.198  1.00  0.00     0.009 C
HETATM    3  C7  UNL     1      22.341  12.980 -12.200  1.00  0.00     0.014 C
HETATM    4  C8  UNL     1      21.061  12.126 -12.247  1.00  0.00    -0.001 C
HETATM    5  C9  UNL     1      20.739  11.967 -13.732  1.00  0.00     0.014 C
HETATM    6  C10 UNL     1      21.936  11.610 -14.581  1.00  0.00     0.011 C
HETATM    7  C11 UNL     1      22.667  10.446 -13.968  1.00  0.00     0.036 C
HETATM    8  C16 UNL     1      22.802  10.514 -12.506  1.00  0.00     0.020 C
HETATM    9  C17 UNL     1      21.461  10.788 -11.760  1.00  0.00     0.021 C
HETATM   10  C20 UNL     1      19.964  12.918 -11.653  1.00  0.00     0.080 C
ENDROOT
BRANCH   9  11
HETATM   11  C18 UNL     1      21.950  10.716 -10.363  1.00  0.00    -0.014 C
HETATM   12  C19 UNL     1      21.822   9.596  -9.686  1.00  0.00     0.052 C
HETATM   13 BR1  UNL     1      21.050   7.979 -10.334  1.00  0.00    -0.064 Br
ENDBRANCH   9  11
BRANCH  10  14
HETATM   14  O1  UNL     1      19.218  13.584 -12.645  1.00  0.00    -0.388 OA
ATOM     15  H1  UNL     1      19.881  13.906 -13.244  1.00  0.00     0.210 HD
ENDBRANCH  10  14
BRANCH  10  16
HETATM   16  C21 UNL     1      19.010  12.364 -10.718  1.00  0.00     0.152 C
BRANCH  16  17
HETATM   17  C22 UNL     1      17.893  11.532 -11.151  1.00  0.00     0.175 C
HETATM   18  O2  UNL     1      17.880  10.358 -10.617  1.00  0.00    -0.648 OA
HETATM   19  O3  UNL     1      16.890  11.794 -12.002  1.00  0.00    -0.648 OA
ENDBRANCH  16  17
ENDBRANCH  10  16
BRANCH   1  20
HETATM   20  C2  UNL     1      20.190  15.265 -10.530  1.00  0.00    -0.045 C
HETATM   21  C1  UNL     1      19.225  15.180  -9.389  1.00  0.00     0.015 C
HETATM   22  C3  UNL     1      21.374  16.103  -9.986  1.00  0.00     0.015 C
HETATM   23  C4  UNL     1      19.552  16.193 -11.541  1.00  0.00     0.015 C
ENDBRANCH   1  20
BRANCH   7  24
HETATM   24  C12 UNL     1      24.010  10.265 -14.573  1.00  0.00     0.013 A
HETATM   25  C13 UNL     1      25.096   9.574 -14.018  1.00  0.00     0.026 A
HETATM   26  C14 UNL     1      26.163   9.631 -14.882  1.00  0.00     0.019 A
HETATM   27  C15 UNL     1      25.741  10.351 -15.961  1.00  0.00     0.088 A
HETATM   28  N1  UNL     1      24.467  10.715 -15.758  1.00  0.00    -0.369 N
ATOM     29  H1  UNL     1      23.914  11.264 -16.416  1.00  0.00     0.165 HD
ENDBRANCH   7  24
TORSDOF 6
ENDMDL