MODEL 3
REMARK VINA RESULT: -8.509591501      2.137      4.193
REMARK  5 active torsions:
REMARK  status: ('A' for Active; 'I' for Inactive)
REMARK    1  A    between atoms: C2_2  and  C4_4
REMARK    2  A    between atoms: C6_6  and  C7_7
REMARK    3  A    between atoms: N1_10  and  C10_11
REMARK    4  A    between atoms: C10_11  and  C11_12
REMARK    5  A    between atoms: C20_28  and  C21_29
ROOT
HETATM    1  C7  UNL     1      17.904  10.619  -9.911  1.00  0.00     0.022 C
HETATM    2  C8  UNL     1      17.143  11.701 -10.576  1.00  0.00     0.039 C
HETATM    3  C9  UNL     1      16.208  11.102 -11.610  1.00  0.00     0.273 C
HETATM    4  N1  UNL     1      15.208  10.342 -10.949  1.00  0.00     0.089 N
HETATM    5  C17 UNL     1      15.767   9.351 -10.097  1.00  0.00     0.273 C
HETATM    6  C18 UNL     1      17.283   9.266 -10.241  1.00  0.00     0.039 C
ENDROOT
BRANCH   4   7
HETATM    7  C10 UNL     1      14.156  11.041 -10.321  1.00  0.00     0.282 C
BRANCH   7   8
HETATM    8  C11 UNL     1      12.801  10.810 -10.934  1.00  0.00     0.055 C
HETATM    9  C12 UNL     1      12.037   9.764 -10.215  1.00  0.00     0.031 C
HETATM   10  C13 UNL     1      11.149  10.236  -9.111  1.00  0.00     0.122 C
HETATM   11  N2  UNL     1      10.845  11.632  -9.120  1.00  0.00    -0.375 N
HETATM   12  C14 UNL     1      11.155  12.493 -10.205  1.00  0.00     0.125 A
ATOM     13  H2  UNL     1      10.381  12.031  -8.304  1.00  0.00     0.161 HD
HETATM   14  N3  UNL     1      10.682  13.704 -10.585  1.00  0.00    -0.284 N
HETATM   15  C16 UNL     1      12.111  12.108 -11.093  1.00  0.00     0.033 A
HETATM   16  N4  UNL     1      11.327  14.060 -11.681  1.00  0.00    -0.288 N
ATOM     17  H3  UNL     1       9.958  14.245 -10.109  1.00  0.00     0.188 HD
HETATM   18  C15 UNL     1      12.211  13.121 -12.035  1.00  0.00     0.128 A
ATOM     19  H4  UNL     1      11.173  14.931 -12.188  1.00  0.00     0.188 HD
HETATM   20 CL1  UNL     1      13.301  13.108 -13.400  1.00  0.00    -0.062 Cl
ENDBRANCH   7   8
ENDBRANCH   4   7
BRANCH   1  21
HETATM   21  C6  UNL     1      19.335  10.564 -10.228  1.00  0.00    -0.053 A
HETATM   22  C5  UNL     1      20.036   9.416  -9.964  1.00  0.00     0.015 A
HETATM   23  C4  UNL     1      21.395   9.404 -10.271  1.00  0.00    -0.054 A
HETATM   24  C25 UNL     1      21.987  10.528 -10.822  1.00  0.00     0.015 A
HETATM   25  C20 UNL     1      21.291  11.684 -11.089  1.00  0.00    -0.050 A
HETATM   26  C19 UNL     1      19.951  11.686 -10.783  1.00  0.00     0.015 A
BRANCH  23  27
HETATM   27  C2  UNL     1      22.241   8.223 -10.029  1.00  0.00     0.010 C
HETATM   28  C1  UNL     1      22.090   7.107 -10.995  1.00  0.00     0.015 C
HETATM   29  C3  UNL     1      21.815   7.693  -8.648  1.00  0.00     0.015 C
ENDBRANCH  23  27
BRANCH  25  30
HETATM   30  C21 UNL     1      21.894  12.908 -11.671  1.00  0.00    -0.024 C
HETATM   31  C22 UNL     1      23.405  12.853 -11.704  1.00  0.00     0.019 C
HETATM   32  C23 UNL     1      21.475  14.163 -10.970  1.00  0.00     0.019 C
HETATM   33  C24 UNL     1      21.441  13.008 -13.130  1.00  0.00     0.019 C
ENDBRANCH  25  30
ENDBRANCH   1  21
TORSDOF 5
ENDMDL