MODEL 5
REMARK VINA RESULT: -8.434095538      3.793      6.235
REMARK  6 active torsions:
REMARK  status: ('A' for Active; 'I' for Inactive)
REMARK    1  A    between atoms: C5_5  and  C6_6
REMARK    2  A    between atoms: N1_7  and  C7_9
REMARK    3  A    between atoms: C7_9  and  C8_10
REMARK    4  A    between atoms: C18_20  and  C19_21
REMARK    5  A    between atoms: C19_21  and  O1_22
REMARK    6  A    between atoms: C27_31  and  O2_32
ROOT
HETATM    1  C8  UNL     1      19.626   9.399  -9.209  1.00  0.00    -0.021 C
HETATM    2  C9  UNL     1      18.913   9.760  -7.875  1.00  0.00     0.018 C
HETATM    3  C10 UNL     1      20.914   8.784  -8.797  1.00  0.00     0.011 C
HETATM    4  C11 UNL     1      22.136   9.099  -9.564  1.00  0.00     0.002 C
HETATM    5  C12 UNL     1      22.199  10.431 -10.240  1.00  0.00     0.010 C
HETATM    6  C13 UNL     1      20.928  10.651 -10.974  1.00  0.00    -0.032 C
HETATM    7  C14 UNL     1      20.775   9.560 -11.978  1.00  0.00     0.016 C
HETATM    8  C15 UNL     1      20.744  11.912 -11.708  1.00  0.00    -0.001 C
HETATM    9  C16 UNL     1      21.238  12.277 -13.019  1.00  0.00     0.007 C
HETATM   10  C17 UNL     1      20.353  13.488 -13.374  1.00  0.00     0.012 C
HETATM   11  C18 UNL     1      19.778  14.255 -12.251  1.00  0.00    -0.012 C
HETATM   12  C20 UNL     1      20.961  15.213 -11.905  1.00  0.00     0.012 C
HETATM   13  C21 UNL     1      21.853  14.163 -11.251  1.00  0.00     0.006 C
HETATM   14  C22 UNL     1      20.963  13.035 -10.788  1.00  0.00    -0.001 C
HETATM   15  C23 UNL     1      19.588  13.709 -10.895  1.00  0.00     0.023 C
HETATM   16  C24 UNL     1      18.481  12.796 -10.580  1.00  0.00    -0.024 C
HETATM   17  C25 UNL     1      18.592  11.398 -10.240  1.00  0.00    -0.024 C
HETATM   18  C26 UNL     1      19.854  10.701  -9.894  1.00  0.00     0.026 C
ENDROOT
BRANCH   1  19
HETATM   19  C7  UNL     1      18.652   8.459  -9.844  1.00  0.00     0.128 C
BRANCH  19  20
HETATM   20  N1  UNL     1      17.327   9.057  -9.777  1.00  0.00    -0.397 N
HETATM   21  C6  UNL     1      16.356   8.755 -10.574  1.00  0.00     0.097 C
ATOM     22  H1  UNL     1      17.154   9.757  -9.055  1.00  0.00     0.158 HD
BRANCH  21  23
HETATM   23  C5  UNL     1      15.092   9.444 -10.373  1.00  0.00     0.015 A
HETATM   24  C4  UNL     1      14.845  10.638 -11.041  1.00  0.00     0.016 A
HETATM   25  C3  UNL     1      13.678  11.360 -10.912  1.00  0.00     0.011 A
HETATM   26  C2  UNL     1      12.686  10.892 -10.083  1.00  0.00    -0.021 A
HETATM   27  C1  UNL     1      11.405  11.648  -9.920  1.00  0.00     0.051 C
HETATM   28  C28 UNL     1      12.914   9.716  -9.420  1.00  0.00     0.156 A
HETATM   29  C27 UNL     1      14.100   8.980  -9.546  1.00  0.00     0.116 A
HETATM   30  F1  UNL     1      11.959   9.231  -8.598  1.00  0.00    -0.203 F
BRANCH  29  31
HETATM   31  O2  UNL     1      14.268   7.800  -8.848  1.00  0.00    -0.357 OA
ATOM     32  H2  UNL     1      13.845   7.003  -9.144  1.00  0.00     0.218 HD
ENDBRANCH  29  31
ENDBRANCH  21  23
ENDBRANCH  19  20
ENDBRANCH   1  19
BRANCH  11  33
HETATM   33  C19 UNL     1      18.666  15.101 -12.765  1.00  0.00     0.174 C
BRANCH  33  34
HETATM   34  O1  UNL     1      17.780  14.488 -13.609  1.00  0.00    -0.400 OA
ATOM     35  H1  UNL     1      18.141  13.830 -14.192  1.00  0.00     0.209 HD
ENDBRANCH  33  34
ENDBRANCH  11  33
TORSDOF 6
ENDMDL