MODEL 4
REMARK VINA RESULT: -8.133881921      2.397      7.392
REMARK  5 active torsions:
REMARK  status: ('A' for Active; 'I' for Inactive)
REMARK    1  A    between atoms: C4_4  and  C5_5
REMARK    2  A    between atoms: C5_5  and  C6_6
REMARK    3  A    between atoms: C13_17  and  C14_18
REMARK    4  A    between atoms: C18_22  and  C19_23
REMARK    5  A    between atoms: C19_23  and  O3_24
ROOT
HETATM    1  C1  UNL     1      22.045  13.355 -12.453  1.00  0.00     0.048 C
HETATM    2  C2  UNL     1      21.329  12.318 -11.621  1.00  0.00    -0.060 A
HETATM    3  C3  UNL     1      22.138  11.467 -10.902  1.00  0.00     0.016 A
HETATM    4  C4  UNL     1      21.545  10.500 -10.174  1.00  0.00    -0.022 A
HETATM    5  C9  UNL     1      20.155  10.409 -10.185  1.00  0.00     0.097 A
HETATM    6  O1  UNL     1      19.610   9.465  -9.413  1.00  0.00    -0.272 OA
HETATM    7  C10 UNL     1      18.323   9.313  -9.336  1.00  0.00     0.316 A
HETATM    8  O2  UNL     1      17.841   8.416  -8.587  1.00  0.00    -0.257 OA
HETATM    9  C11 UNL     1      17.443  10.094 -10.035  1.00  0.00     0.121 A
HETATM   10  N1  UNL     1      16.130  10.065 -10.188  1.00  0.00    -0.349 N
ATOM     11  H1  UNL     1      15.492   9.444  -9.692  1.00  0.00     0.166 HD
HETATM   12  C12 UNL     1      15.766  10.995 -11.111  1.00  0.00     0.058 A
HETATM   13  C13 UNL     1      14.510  11.146 -11.649  1.00  0.00     0.033 A
HETATM   14  C20 UNL     1      14.432  12.017 -12.720  1.00  0.00     0.129 A
HETATM   15  F1  UNL     1      13.217  12.207 -13.277  1.00  0.00    -0.205 F
HETATM   16  C21 UNL     1      15.539  12.653 -13.183  1.00  0.00     0.050 A
HETATM   17  C22 UNL     1      16.826  12.495 -12.634  1.00  0.00    -0.046 A
HETATM   18  C23 UNL     1      17.893  13.035 -13.510  1.00  0.00     0.049 C
HETATM   19  C24 UNL     1      16.928  11.649 -11.562  1.00  0.00     0.011 A
HETATM   20  C25 UNL     1      17.982  11.101 -10.869  1.00  0.00     0.023 A
HETATM   21  C26 UNL     1      19.336  11.244 -10.911  1.00  0.00     0.013 A
HETATM   22  C27 UNL     1      19.967  12.199 -11.609  1.00  0.00     0.022 A
ENDROOT
BRANCH  13  23
HETATM   23  C14 UNL     1      13.276  10.535 -11.117  1.00  0.00    -0.058 A
HETATM   24  C15 UNL     1      13.333   9.010 -11.264  1.00  0.00     0.036 A
HETATM   25  C16 UNL     1      12.570   8.508 -10.087  1.00  0.00     0.005 A
HETATM   26  C17 UNL     1      12.078   9.656  -9.284  1.00  0.00     0.011 A
HETATM   27  C18 UNL     1      12.501  10.951  -9.995  1.00  0.00     0.039 A
BRANCH  27  28
HETATM   28  C19 UNL     1      11.145  11.582 -10.414  1.00  0.00     0.173 C
BRANCH  28  29
HETATM   29  O3  UNL     1      10.725  11.179 -11.649  1.00  0.00    -0.400 OA
ATOM     30  H3  UNL     1      10.226  11.844 -12.108  1.00  0.00     0.209 HD
ENDBRANCH  28  29
ENDBRANCH  27  28
ENDBRANCH  13  23
BRANCH   4  31
HETATM   31  C5  UNL     1      22.249   9.467  -9.409  1.00  0.00     0.045 C
BRANCH  31  32
HETATM   32  C6  UNL     1      21.853   8.059  -9.559  1.00  0.00    -0.018 C
HETATM   33  C7  UNL     1      22.210   7.125  -8.457  1.00  0.00     0.010 C
HETATM   34  C8  UNL     1      22.275   7.481 -10.927  1.00  0.00     0.010 C
ENDBRANCH  31  32
ENDBRANCH   4  31
TORSDOF 5
ENDMDL