MODEL 5
REMARK VINA RESULT: -6.682443391      3.189      5.238
REMARK  5 active torsions:
REMARK  status: ('A' for Active; 'I' for Inactive)
REMARK    1  A    between atoms: C2_2  and  O1_3
REMARK    2  A    between atoms: O1_3  and  C3_4
REMARK    3  A    between atoms: C13_15  and  O2_16
REMARK    4  A    between atoms: C18_22  and  C19_23
REMARK    5  A    between atoms: C24_28  and  O3_29
ROOT
HETATM    1  C3  UNL     1      23.653  11.813 -15.376  1.00  0.00     0.076 C
HETATM    2  C4  UNL     1      24.430  12.693 -16.245  1.00  0.00     0.041 C
HETATM    3  C5  UNL     1      25.760  13.042 -15.581  1.00  0.00     0.024 C
HETATM    4  C6  UNL     1      25.892  12.099 -14.421  1.00  0.00     0.093 C
HETATM    5 CL1  UNL     1      27.468  11.220 -14.485  1.00  0.00    -0.124 Cl
HETATM    6  C7  UNL     1      24.849  11.096 -14.726  1.00  0.00     0.004 C
HETATM    7  C8  UNL     1      25.458  10.232 -15.852  1.00  0.00     0.020 C
HETATM    8  C9  UNL     1      24.421  10.203 -13.672  1.00  0.00     0.014 C
HETATM    9  C10 UNL     1      23.412  10.729 -12.680  1.00  0.00     0.007 C
HETATM   10  C11 UNL     1      22.259  11.429 -13.350  1.00  0.00     0.004 C
HETATM   11  C12 UNL     1      22.717  12.442 -14.391  1.00  0.00     0.054 C
HETATM   12  C13 UNL     1      23.068  13.764 -13.837  1.00  0.00     0.126 C
HETATM   13  C14 UNL     1      21.852  14.295 -13.088  1.00  0.00     0.037 C
HETATM   14  C15 UNL     1      21.613  13.375 -11.981  1.00  0.00    -0.003 C
HETATM   15  C16 UNL     1      20.513  13.785 -11.077  1.00  0.00     0.006 C
HETATM   16  C17 UNL     1      20.264  12.491 -10.344  1.00  0.00     0.006 C
HETATM   17  C18 UNL     1      21.034  11.421 -11.101  1.00  0.00     0.001 C
HETATM   18  C25 UNL     1      21.211  11.953 -12.423  1.00  0.00    -0.032 C
HETATM   19  C26 UNL     1      19.952  12.178 -13.236  1.00  0.00     0.016 C
ENDROOT
BRANCH  17  20
HETATM   20  C19 UNL     1      20.484  10.122 -10.690  1.00  0.00     0.019 C
HETATM   21  C20 UNL     1      19.207  10.046  -9.957  1.00  0.00     0.007 C
HETATM   22  C21 UNL     1      19.230   9.722  -8.509  1.00  0.00     0.001 C
HETATM   23  C22 UNL     1      20.246   8.692  -8.172  1.00  0.00     0.002 C
HETATM   24  C23 UNL     1      21.619   9.076  -8.676  1.00  0.00     0.032 C
HETATM   25  C24 UNL     1      21.597   9.237 -10.160  1.00  0.00     0.122 C
BRANCH  25  26
HETATM   26  O3  UNL     1      21.586   7.944 -10.697  1.00  0.00    -0.395 OA
ATOM     27  H3  UNL     1      21.018   7.343 -10.229  1.00  0.00     0.210 HD
ENDBRANCH  25  26
ENDBRANCH  17  20
BRANCH   1  28
HETATM   28  O1  UNL     1      23.025  10.797 -16.024  1.00  0.00    -0.379 OA
BRANCH  28  29
HETATM   29  C2  UNL     1      22.151  10.932 -17.003  1.00  0.00     0.164 C
HETATM   30  C1  UNL     1      20.693  11.069 -16.734  1.00  0.00     0.033 C
ENDBRANCH  28  29
ENDBRANCH   1  28
BRANCH  12  31
HETATM   31  O2  UNL     1      23.153  14.770 -14.803  1.00  0.00    -0.395 OA
ATOM     32  H2  UNL     1      22.487  14.708 -15.477  1.00  0.00     0.210 HD
ENDBRANCH  12  31
TORSDOF 5
ENDMDL