MODEL 4
REMARK VINA RESULT: -6.757125440      2.432      6.156
REMARK  5 active torsions:
REMARK  status: ('A' for Active; 'I' for Inactive)
REMARK    1  A    between atoms: O1_2  and  C2_3
REMARK    2  A    between atoms: C14_16  and  C15_17
REMARK    3  A    between atoms: C15_17  and  C16_18
REMARK    4  A    between atoms: C22_24  and  C23_25
REMARK    5  A    between atoms: C24_28  and  O4_30
ROOT
HETATM    1  C2  UNL     1      23.462  16.423 -13.272  1.00  0.00     0.155 C
HETATM    2  C3  UNL     1      24.607  16.292 -12.289  1.00  0.00     0.035 C
HETATM    3  C4  UNL     1      24.053  15.251 -11.320  1.00  0.00     0.004 C
HETATM    4  C5  UNL     1      24.003  14.002 -12.067  1.00  0.00     0.018 C
HETATM    5  C6  UNL     1      22.878  13.931 -13.157  1.00  0.00     0.029 C
HETATM    6  C7  UNL     1      23.374  12.765 -13.964  1.00  0.00    -0.009 C
HETATM    7  C8  UNL     1      22.840  11.903 -14.782  1.00  0.00    -0.068 C
HETATM    8  C9  UNL     1      23.739  10.852 -15.397  1.00  0.00     0.044 C
HETATM    9  C10 UNL     1      21.474  11.800 -15.209  1.00  0.00     0.111 C
HETATM   10 CL1  UNL     1      21.077  10.067 -15.511  1.00  0.00    -0.120 Cl
HETATM   11  C11 UNL     1      20.426  12.350 -14.329  1.00  0.00     0.035 C
HETATM   12  C12 UNL     1      20.926  12.343 -12.985  1.00  0.00     0.036 C
HETATM   13  C13 UNL     1      19.847  12.191 -11.976  1.00  0.00    -0.078 C
HETATM   14  C14 UNL     1      18.565  11.990 -12.084  1.00  0.00    -0.020 C
HETATM   15  C20 UNL     1      20.557  12.332 -10.680  1.00  0.00     0.036 C
HETATM   16  C21 UNL     1      21.914  12.872 -11.088  1.00  0.00     0.027 C
HETATM   17  C22 UNL     1      21.661  13.575 -12.452  1.00  0.00     0.070 C
HETATM   18  C24 UNL     1      23.092  15.146 -13.951  1.00  0.00     0.092 C
HETATM   19  C25 UNL     1      22.223  15.575 -15.054  1.00  0.00     0.050 C
ENDROOT
BRANCH  17  20
HETATM   20  C23 UNL     1      20.609  14.543 -12.165  1.00  0.00     0.183 C
HETATM   21  O2  UNL     1      20.436  15.122 -11.031  1.00  0.00    -0.647 OA
HETATM   22  O3  UNL     1      19.647  14.978 -13.070  1.00  0.00    -0.647 OA
ENDBRANCH  17  20
BRANCH  18  23
HETATM   23  O4  UNL     1      24.350  14.863 -14.648  1.00  0.00    -0.386 OA
ATOM     24  H4  UNL     1      24.956  14.927 -13.919  1.00  0.00     0.210 HD
ENDBRANCH  18  23
BRANCH   1  25
HETATM   25  O1  UNL     1      22.454  17.086 -12.600  1.00  0.00    -0.388 OA
HETATM   26  C1  UNL     1      22.373  18.430 -12.842  1.00  0.00     0.202 C
ENDBRANCH   1  25
BRANCH  14  27
HETATM   27  C15 UNL     1      17.652  11.866 -10.907  1.00  0.00     0.054 C
BRANCH  27  28
HETATM   28  C16 UNL     1      16.926  10.577 -10.905  1.00  0.00    -0.021 C
HETATM   29  C17 UNL     1      17.301   9.526 -10.198  1.00  0.00    -0.091 C
HETATM   30  C18 UNL     1      16.542   8.249 -10.226  1.00  0.00     0.042 C
HETATM   31  C19 UNL     1      18.515   9.604  -9.346  1.00  0.00     0.042 C
ENDBRANCH  27  28
ENDBRANCH  14  27
TORSDOF 5
ENDMDL