MODEL 3
REMARK VINA RESULT: -8.509832046      2.647      5.045
REMARK  7 active torsions:
REMARK  status: ('A' for Active; 'I' for Inactive)
REMARK    1  A    between atoms: C2_2  and  C3_3
REMARK    2  A    between atoms: C3_3  and  C5_5
REMARK    3  A    between atoms: C6_6  and  O1_7
REMARK    4  A    between atoms: C14_16  and  C15_17
REMARK    5  A    between atoms: C15_17  and  C16_18
REMARK    6  A    between atoms: C18_20  and  O2_21
REMARK    7  A    between atoms: C19_23  and  O3_24
ROOT
HETATM    1  C5  UNL     1      24.975  11.763 -14.615  1.00  0.00     0.023 C
HETATM    2  C6  UNL     1      25.227  13.099 -15.279  1.00  0.00     0.123 C
HETATM    3  C7  UNL     1      25.224  14.001 -14.032  1.00  0.00     0.041 C
HETATM    4  C8  UNL     1      23.972  13.543 -13.361  1.00  0.00    -0.037 C
HETATM    5  C9  UNL     1      22.886  14.481 -13.817  1.00  0.00     0.015 C
HETATM    6  C10 UNL     1      24.010  13.605 -11.858  1.00  0.00     0.010 C
HETATM    7  C11 UNL     1      22.635  13.205 -11.342  1.00  0.00     0.006 C
HETATM    8  C12 UNL     1      22.058  12.118 -12.187  1.00  0.00    -0.009 C
HETATM    9  C13 UNL     1      21.246  11.114 -11.389  1.00  0.00     0.014 C
HETATM   10  C14 UNL     1      22.072   9.857 -11.558  1.00  0.00     0.013 C
HETATM   11  C23 UNL     1      22.562  10.001 -12.947  1.00  0.00    -0.006 C
HETATM   12  C24 UNL     1      21.550  10.130 -14.035  1.00  0.00     0.011 C
HETATM   13  C25 UNL     1      23.255  11.323 -12.766  1.00  0.00    -0.001 C
HETATM   14  C26 UNL     1      23.771  12.093 -13.853  1.00  0.00     0.005 C
ENDROOT
BRANCH  10  15
HETATM   15  C15 UNL     1      21.542   8.645 -11.005  1.00  0.00    -0.010 C
BRANCH  15  16
HETATM   16  C16 UNL     1      21.426   8.392  -9.591  1.00  0.00    -0.035 A
HETATM   17  C17 UNL     1      22.232   7.472  -8.935  1.00  0.00     0.050 A
HETATM   18  C18 UNL     1      22.127   7.200  -7.587  1.00  0.00     0.101 A
HETATM   19  C19 UNL     1      21.192   7.850  -6.830  1.00  0.00     0.123 A
HETATM   20  C21 UNL     1      20.374   8.769  -7.445  1.00  0.00     0.070 A
HETATM   21 CL1  UNL     1      19.175   9.613  -6.509  1.00  0.00    -0.081 Cl
HETATM   22  C22 UNL     1      20.502   9.018  -8.780  1.00  0.00     0.038 A
BRANCH  18  23
HETATM   23  O2  UNL     1      22.966   6.261  -6.975  1.00  0.00    -0.358 OA
ATOM     24  H2  UNL     1      23.908   6.383  -6.962  1.00  0.00     0.217 HD
ENDBRANCH  18  23
BRANCH  19  25
HETATM   25  O3  UNL     1      21.064   7.588  -5.445  1.00  0.00    -0.351 OA
HETATM   26  C20 UNL     1      20.205   6.537  -5.067  1.00  0.00     0.210 C
ENDBRANCH  19  25
ENDBRANCH  15  16
ENDBRANCH  10  15
BRANCH   1  27
HETATM   27  C3  UNL     1      26.197  11.256 -14.068  1.00  0.00    -0.012 C
HETATM   28  C4  UNL     1      26.285   9.825 -13.621  1.00  0.00     0.010 C
BRANCH  27  29
HETATM   29  C2  UNL     1      27.327  11.429 -15.064  1.00  0.00     0.000 C
HETATM   30  C1  UNL     1      28.196  10.190 -15.149  1.00  0.00     0.005 C
ENDBRANCH  27  29
ENDBRANCH   1  27
BRANCH   2  31
HETATM   31  O1  UNL     1      24.118  13.516 -16.020  1.00  0.00    -0.395 OA
ATOM     32  H1  UNL     1      24.016  12.997 -16.810  1.00  0.00     0.210 HD
ENDBRANCH   2  31
TORSDOF 7
ENDMDL