MODEL 4
REMARK VINA RESULT: -8.227635691      2.120      6.071
REMARK  4 active torsions:
REMARK  status: ('A' for Active; 'I' for Inactive)
REMARK    1  A    between atoms: C5_9  and  C6_10
REMARK    2  A    between atoms: C12_18  and  C13_19
REMARK    3  A    between atoms: C20_27  and  N4_28
REMARK    4  A    between atoms: N4_28  and  C21_30
ROOT
HETATM    1  C1  UNL     1      16.957  13.435 -12.907  1.00  0.00     0.089 C
HETATM    2  C2  UNL     1      17.249  12.236 -12.079  1.00  0.00     0.079 A
HETATM    3  N1  UNL     1      18.456  11.799 -11.873  1.00  0.00    -0.343 N
ATOM      4  H1  UNL     1      19.213  12.317 -12.318  1.00  0.00     0.167 HD
HETATM    5  C3  UNL     1      18.816  10.706 -11.114  1.00  0.00     0.084 A
HETATM    6  C4  UNL     1      20.167  10.252 -11.200  1.00  0.00     0.089 A
HETATM    7  N2  UNL     1      21.033  10.814 -12.144  1.00  0.00    -0.338 N
ATOM      8  H2  UNL     1      20.742  11.472 -12.867  1.00  0.00     0.167 HD
HETATM    9  C5  UNL     1      22.270  10.388 -11.987  1.00  0.00     0.116 A
HETATM   10  N3  UNL     1      22.243   9.567 -10.959  1.00  0.00    -0.339 N
ATOM     11  H3  UNL     1      23.055   9.069 -10.593  1.00  0.00     0.167 HD
HETATM   12  C12 UNL     1      20.953   9.471 -10.442  1.00  0.00     0.069 A
HETATM   13  C19 UNL     1      17.747  10.081 -10.580  1.00  0.00     0.083 A
HETATM   14 BR1  UNL     1      17.777   8.271  -9.894  1.00  0.00    -0.044 Br
HETATM   15  C20 UNL     1      16.401  10.505 -10.756  1.00  0.00     0.122 A
HETATM   16  N5  UNL     1      16.204  11.590 -11.516  1.00  0.00    -0.331 N
ATOM     17  H5  UNL     1      15.256  11.932 -11.672  1.00  0.00     0.168 HD
ENDROOT
BRANCH  12  18
HETATM   18  C13 UNL     1      20.824   8.979  -9.044  1.00  0.00    -0.033 C
HETATM   19  C14 UNL     1      21.576   7.965  -8.662  1.00  0.00    -0.017 C
HETATM   20  C15 UNL     1      21.576   7.356  -7.321  1.00  0.00     0.028 C
HETATM   21  C16 UNL     1      21.097   8.326  -6.258  1.00  0.00     0.004 C
HETATM   22  C17 UNL     1      19.803   8.890  -6.797  1.00  0.00     0.005 C
HETATM   23  C18 UNL     1      20.093   9.733  -7.988  1.00  0.00     0.040 C
ENDBRANCH  12  18
BRANCH   9  24
HETATM   24  C6  UNL     1      23.464  10.748 -12.794  1.00  0.00     0.008 A
HETATM   25  C7  UNL     1      23.909  12.065 -12.805  1.00  0.00     0.015 A
HETATM   26  C8  UNL     1      25.006  12.424 -13.541  1.00  0.00     0.001 A
HETATM   27  C9  UNL     1      25.646  11.429 -14.265  1.00  0.00     0.000 A
HETATM   28  C10 UNL     1      25.201  10.125 -14.250  1.00  0.00     0.001 A
HETATM   29  C11 UNL     1      24.105   9.763 -13.518  1.00  0.00     0.015 A
ENDBRANCH   9  24
BRANCH  15  30
HETATM   30  N4  UNL     1      15.428   9.874 -10.208  1.00  0.00    -0.371 N
ATOM     31  H4  UNL     1      15.502   9.609  -9.226  1.00  0.00     0.161 HD
BRANCH  30  32
HETATM   32  C21 UNL     1      14.249   9.533 -10.928  1.00  0.00     0.075 C
HETATM   33  C22 UNL     1      13.151   8.978 -10.079  1.00  0.00     0.031 C
HETATM   34  C23 UNL     1      14.626   8.455 -11.960  1.00  0.00     0.031 C
ENDBRANCH  30  32
ENDBRANCH  15  30
TORSDOF 4
ENDMDL