MODEL 4
REMARK VINA RESULT: -7.473953025      5.813      7.932
REMARK  6 active torsions:
REMARK  status: ('A' for Active; 'I' for Inactive)
REMARK    1  A    between atoms: C9_9  and  C10_10
REMARK    2  A    between atoms: C15_15  and  N1_16
REMARK       I    between atoms: N1_16  and  C16_18
REMARK    3  A    between atoms: C16_18  and  O2_20
REMARK    4  A    between atoms: O2_20  and  C17_21
REMARK    5  A    between atoms: C17_21  and  C18_22
REMARK    6  A    between atoms: C21_26  and  O3_27
ROOT
HETATM    1  C1  UNL     1     -30.341  -4.051  53.490  1.00  0.00     0.044 C
HETATM    2  C2  UNL     1     -29.131  -3.305  53.957  1.00  0.00    -0.079 C
HETATM    3  C3  UNL     1     -29.127  -2.605  55.080  1.00  0.00    -0.024 C
HETATM    4  C4  UNL     1     -27.938  -1.859  55.559  1.00  0.00     0.028 C
HETATM    5  C5  UNL     1     -26.652  -2.552  55.214  1.00  0.00     0.010 C
HETATM    6  C6  UNL     1     -26.738  -3.520  54.097  1.00  0.00     0.002 C
HETATM    7  C7  UNL     1     -25.404  -3.635  53.328  1.00  0.00     0.042 C
HETATM    8  C8  UNL     1     -24.813  -2.337  53.075  1.00  0.00    -0.051 C
HETATM    9  C9  UNL     1     -23.704  -1.840  53.535  1.00  0.00     0.012 C
HETATM   10  C21 UNL     1     -25.516  -1.304  52.177  1.00  0.00     0.147 C
HETATM   11  C22 UNL     1     -26.662  -1.917  51.423  1.00  0.00     0.037 C
HETATM   12  C23 UNL     1     -27.840  -2.131  52.299  1.00  0.00     0.017 C
HETATM   13  C24 UNL     1     -27.882  -3.328  53.153  1.00  0.00    -0.017 C
HETATM   14  C25 UNL     1     -27.914  -4.569  52.247  1.00  0.00     0.020 C
ENDROOT
BRANCH   9  15
HETATM   15  C10 UNL     1     -22.695  -2.353  54.425  1.00  0.00    -0.059 C
HETATM   16  C11 UNL     1     -22.478  -1.964  55.836  1.00  0.00     0.048 C
HETATM   17  C12 UNL     1     -21.790  -3.234  53.957  1.00  0.00    -0.074 C
HETATM   18  C13 UNL     1     -20.714  -3.852  54.736  1.00  0.00     0.037 C
HETATM   19  C20 UNL     1     -21.842  -3.582  52.507  1.00  0.00     0.037 C
HETATM   20  C14 UNL     1     -20.670  -5.331  54.293  1.00  0.00     0.029 C
HETATM   21  C15 UNL     1     -20.226  -5.496  52.880  1.00  0.00     0.087 C
HETATM   22  C19 UNL     1     -20.590  -4.317  52.049  1.00  0.00     0.029 C
BRANCH  21  23
HETATM   23  N1  UNL     1     -18.812  -5.806  52.792  1.00  0.00    -0.332 N
HETATM   24  C16 UNL     1     -18.400  -7.046  52.258  1.00  0.00     0.360 C
HETATM   25  O1  UNL     1     -19.267  -7.890  51.854  1.00  0.00    -0.239 OA
ATOM     26  H1  UNL     1     -18.119  -5.131  53.114  1.00  0.00     0.165 HD
BRANCH  24  27
HETATM   27  O2  UNL     1     -17.050  -7.378  52.158  1.00  0.00    -0.303 OA
BRANCH  27  28
HETATM   28  C17 UNL     1     -16.726  -8.702  51.791  1.00  0.00     0.195 C
BRANCH  28  29
HETATM   29  C18 UNL     1     -16.132  -8.682  50.388  1.00  0.00     0.141 C
HETATM   30 CL1  UNL     1     -17.241  -9.440  49.253  1.00  0.00    -0.128 Cl
ENDBRANCH  28  29
ENDBRANCH  27  28
ENDBRANCH  24  27
ENDBRANCH  21  23
ENDBRANCH   9  15
BRANCH  10  31
HETATM   31  O3  UNL     1     -24.580  -0.876  51.228  1.00  0.00    -0.391 OA
ATOM     32  H3  UNL     1     -24.820  -1.271  50.399  1.00  0.00     0.210 HD
ENDBRANCH  10  31
TORSDOF 6
ENDMDL