MODEL 5
REMARK VINA RESULT: -7.390585524      4.824      7.230
REMARK  5 active torsions:
REMARK  status: ('A' for Active; 'I' for Inactive)
REMARK    1  A    between atoms: C2_2  and  C3_3
REMARK    2  A    between atoms: C3_3  and  C4_4
REMARK    3  A    between atoms: C4_4  and  C6_6
REMARK    4  A    between atoms: C13_13  and  O1_14
REMARK    5  A    between atoms: C15_17  and  C16_18
ROOT
HETATM    1  C6  UNL     1     -16.533  -4.665  56.112  1.00  0.00    -0.069 C
HETATM    2  C7  UNL     1     -17.484  -4.085  57.138  1.00  0.00     0.040 C
HETATM    3  C8  UNL     1     -18.382  -5.185  57.647  1.00  0.00    -0.001 C
HETATM    4  C9  UNL     1     -19.408  -4.510  58.543  1.00  0.00     0.045 C
HETATM    5  C10 UNL     1     -19.892  -5.486  59.523  1.00  0.00    -0.037 A
HETATM    6  C11 UNL     1     -20.404  -6.734  59.245  1.00  0.00    -0.048 A
HETATM    7  C12 UNL     1     -20.808  -7.560  60.263  1.00  0.00     0.044 A
HETATM    8  C13 UNL     1     -20.718  -7.179  61.578  1.00  0.00     0.067 A
HETATM    9  C14 UNL     1     -20.211  -5.943  61.837  1.00  0.00     0.052 A
HETATM   10  C15 UNL     1     -19.783  -5.059  60.839  1.00  0.00     0.017 A
HETATM   11  C19 UNL     1     -20.623  -7.392  57.941  1.00  0.00     0.039 C
HETATM   12  C20 UNL     1     -20.392  -6.420  56.790  1.00  0.00     0.010 C
HETATM   13  C21 UNL     1     -18.933  -6.100  56.634  1.00  0.00     0.003 C
HETATM   14  C22 UNL     1     -18.625  -5.717  55.180  1.00  0.00    -0.013 C
HETATM   15  C23 UNL     1     -19.497  -4.705  54.630  1.00  0.00     0.021 C
HETATM   16  C24 UNL     1     -18.760  -6.943  54.292  1.00  0.00     0.018 C
HETATM   17  C25 UNL     1     -17.670  -6.793  53.271  1.00  0.00     0.049 C
HETATM   18  C26 UNL     1     -16.790  -5.613  53.726  1.00  0.00     0.124 C
HETATM   19  C27 UNL     1     -16.991  -4.557  52.752  1.00  0.00     0.057 C
HETATM   20  F1  UNL     1     -15.471  -6.100  53.621  1.00  0.00    -0.238 F
HETATM   21  C28 UNL     1     -17.135  -5.546  55.128  1.00  0.00    -0.030 C
ENDROOT
BRANCH  10  22
HETATM   22  C16 UNL     1     -19.274  -3.739  61.177  1.00  0.00     0.107 C
HETATM   23  N1  UNL     1     -19.957  -2.637  61.333  1.00  0.00    -0.374 N
HETATM   24  C17 UNL     1     -19.121  -1.525  61.664  1.00  0.00     0.141 C
ATOM     25  H1  UNL     1     -20.969  -2.576  61.230  1.00  0.00     0.161 HD
HETATM   26  C18 UNL     1     -17.708  -1.996  61.378  1.00  0.00     0.141 C
HETATM   27  N2  UNL     1     -17.887  -3.426  61.376  1.00  0.00    -0.374 N
ATOM     28  H2  UNL     1     -17.141  -4.111  61.497  1.00  0.00     0.161 HD
ENDBRANCH  10  22
BRANCH   8  29
HETATM   29  O1  UNL     1     -21.129  -8.021  62.600  1.00  0.00    -0.361 OA
ATOM     30  H1  UNL     1     -20.928  -7.827  63.508  1.00  0.00     0.217 HD
ENDBRANCH   8  29
BRANCH   1  31
HETATM   31  C4  UNL     1     -15.479  -3.676  55.674  1.00  0.00     0.011 C
HETATM   32  C5  UNL     1     -15.888  -2.233  55.984  1.00  0.00     0.015 C
BRANCH  31  33
HETATM   33  C3  UNL     1     -14.175  -3.844  56.472  1.00  0.00     0.008 C
BRANCH  33  34
HETATM   34  C2  UNL     1     -13.337  -4.956  55.966  1.00  0.00    -0.004 C
HETATM   35  C1  UNL     1     -11.886  -4.600  56.324  1.00  0.00     0.005 C
ENDBRANCH  33  34
ENDBRANCH  31  33
ENDBRANCH   1  31
TORSDOF 5
ENDMDL