MODEL 1
REMARK VINA RESULT: -7.975703419      0.000      0.000
REMARK  6 active torsions:
REMARK  status: ('A' for Active; 'I' for Inactive)
REMARK    1  A    between atoms: C2_2  and  O2_4
REMARK    2  A    between atoms: O2_4  and  C3_5
REMARK    3  A    between atoms: C17_19  and  N1_20
REMARK    4  A    between atoms: N1_20  and  C18_22
REMARK    5  A    between atoms: C18_22  and  C19_23
REMARK    6  A    between atoms: C19_23  and  C20_24
ROOT
HETATM    1  C3  UNL     1     -19.773  -5.683  59.446  1.00  0.00     0.136 C
HETATM    2  C4  UNL     1     -20.248  -6.506  58.322  1.00  0.00     0.034 C
HETATM    3  C5  UNL     1     -19.497  -6.423  57.025  1.00  0.00     0.016 C
HETATM    4  C6  UNL     1     -19.272  -4.978  56.688  1.00  0.00    -0.017 C
HETATM    5  C7  UNL     1     -20.633  -4.274  56.862  1.00  0.00     0.020 C
HETATM    6  C8  UNL     1     -18.364  -4.490  57.765  1.00  0.00    -0.072 C
HETATM    7  C9  UNL     1     -17.146  -4.113  57.478  1.00  0.00    -0.023 C
HETATM    8  C10 UNL     1     -16.512  -4.109  56.149  1.00  0.00     0.033 C
HETATM    9  C11 UNL     1     -17.386  -4.573  55.028  1.00  0.00    -0.001 C
HETATM   10  C12 UNL     1     -18.834  -4.668  55.306  1.00  0.00     0.003 C
HETATM   11  C13 UNL     1     -19.614  -5.477  54.309  1.00  0.00     0.007 C
HETATM   12  C14 UNL     1     -18.848  -6.605  53.697  1.00  0.00     0.012 C
HETATM   13  C15 UNL     1     -17.560  -6.107  53.147  1.00  0.00    -0.020 C
HETATM   14  C16 UNL     1     -17.623  -4.874  52.309  1.00  0.00     0.018 C
HETATM   15  C17 UNL     1     -16.671  -7.114  52.514  1.00  0.00     0.085 C
HETATM   16  C23 UNL     1     -15.258  -6.551  52.768  1.00  0.00     0.026 C
HETATM   17  C24 UNL     1     -15.392  -5.612  53.939  1.00  0.00     0.008 C
HETATM   18  C25 UNL     1     -16.756  -5.823  54.447  1.00  0.00     0.000 C
HETATM   19  C26 UNL     1     -18.928  -4.491  59.138  1.00  0.00     0.067 C
ENDROOT
BRANCH  15  20
HETATM   20  N1  UNL     1     -16.809  -7.246  51.119  1.00  0.00    -0.416 N
ATOM     21  H1  UNL     1     -17.011  -6.420  50.556  1.00  0.00     0.153 HD
BRANCH  20  22
HETATM   22  C18 UNL     1     -16.673  -8.492  50.487  1.00  0.00     0.118 C
BRANCH  22  23
HETATM   23  C19 UNL     1     -17.934  -9.309  50.864  1.00  0.00     0.047 C
BRANCH  23  24
HETATM   24  C20 UNL     1     -19.149  -8.632  50.383  1.00  0.00    -0.006 C
HETATM   25  C21 UNL     1     -19.624  -8.912  49.183  1.00  0.00     0.004 C
HETATM   26  C22 UNL     1     -20.845  -8.245  48.679  1.00  0.00     0.061 C
HETATM   27 CL1  UNL     1     -18.812 -10.090  48.141  1.00  0.00    -0.090 Cl
ENDBRANCH  23  24
ENDBRANCH  22  23
ENDBRANCH  20  22
ENDBRANCH  15  20
BRANCH   1  28
HETATM   28  O2  UNL     1     -20.905  -5.188  60.170  1.00  0.00    -0.316 OA
BRANCH  28  29
HETATM   29  C2  UNL     1     -21.413  -5.759  61.308  1.00  0.00     0.255 C
HETATM   30  C1  UNL     1     -20.635  -6.835  62.000  1.00  0.00     0.126 C
HETATM   31  O1  UNL     1     -22.520  -5.354  61.726  1.00  0.00    -0.266 OA
ENDBRANCH  28  29
ENDBRANCH   1  28
TORSDOF 6
ENDMDL