MODEL 2
REMARK VINA RESULT: -7.917097291      0.820      1.148
REMARK  5 active torsions:
REMARK  status: ('A' for Active; 'I' for Inactive)
REMARK    1  A    between atoms: C2_2  and  C3_3
REMARK    2  A    between atoms: C3_3  and  C4_4
REMARK    3  A    between atoms: C4_4  and  N1_5
REMARK    4  A    between atoms: C23_26  and  O1_27
REMARK    5  A    between atoms: C23_26  and  C24_29
ROOT
HETATM    1  N1  UNL     1     -19.423  -6.630  53.065  1.00  0.00    -0.393 N
ATOM      2  H1  UNL     1     -19.537  -7.226  53.886  1.00  0.00     0.159 HD
HETATM    3  C5  UNL     1     -20.074  -5.531  53.086  1.00  0.00     0.008 C
HETATM    4  C6  UNL     1     -20.898  -5.267  54.279  1.00  0.00     0.022 C
HETATM    5  C7  UNL     1     -21.863  -4.365  54.263  1.00  0.00    -0.011 C
HETATM    6  C8  UNL     1     -22.220  -3.539  53.082  1.00  0.00     0.001 C
HETATM    7  C9  UNL     1     -21.735  -2.136  53.386  1.00  0.00     0.025 C
HETATM    8  C10 UNL     1     -21.497  -4.010  51.885  1.00  0.00    -0.066 C
HETATM    9  C11 UNL     1     -22.029  -4.027  50.688  1.00  0.00    -0.022 C
HETATM   10  C12 UNL     1     -23.409  -3.579  50.398  1.00  0.00     0.033 C
HETATM   11  C13 UNL     1     -23.891  -2.739  51.555  1.00  0.00     0.001 C
HETATM   12  C14 UNL     1     -23.695  -3.589  52.785  1.00  0.00     0.006 C
HETATM   13  C15 UNL     1     -24.567  -3.205  53.930  1.00  0.00     0.007 C
HETATM   14  C16 UNL     1     -26.008  -3.083  53.494  1.00  0.00     0.013 C
HETATM   15  C17 UNL     1     -26.102  -1.954  52.472  1.00  0.00     0.003 C
HETATM   16  C18 UNL     1     -25.523  -0.724  53.140  1.00  0.00     0.019 C
HETATM   17  C19 UNL     1     -25.325  -2.378  51.271  1.00  0.00     0.020 C
HETATM   18  C20 UNL     1     -25.328  -1.418  50.129  1.00  0.00     0.087 C
HETATM   19 CL1  UNL     1     -23.840  -0.430  50.035  1.00  0.00    -0.125 Cl
HETATM   20  C21 UNL     1     -26.528  -0.525  50.049  1.00  0.00     0.024 C
HETATM   21  C22 UNL     1     -27.702  -1.200  50.671  1.00  0.00     0.051 C
HETATM   22  C23 UNL     1     -27.514  -1.623  52.090  1.00  0.00     0.153 C
HETATM   23  C25 UNL     1     -20.078  -4.497  52.028  1.00  0.00     0.091 C
ENDROOT
BRANCH   1  24
HETATM   24  C4  UNL     1     -18.564  -7.135  52.056  1.00  0.00     0.119 C
BRANCH  24  25
HETATM   25  C3  UNL     1     -17.218  -7.524  52.581  1.00  0.00     0.019 C
BRANCH  25  26
HETATM   26  C2  UNL     1     -16.092  -7.031  51.721  1.00  0.00    -0.003 C
HETATM   27  C1  UNL     1     -15.720  -5.597  51.930  1.00  0.00     0.005 C
ENDBRANCH  25  26
ENDBRANCH  24  25
ENDBRANCH   1  24
BRANCH  22  28
HETATM   28  O1  UNL     1     -27.990  -0.561  52.903  1.00  0.00    -0.378 OA
ATOM     29  H1  UNL     1     -28.807  -0.818  53.315  1.00  0.00     0.211 HD
ENDBRANCH  22  28
BRANCH  22  30
HETATM   30  C24 UNL     1     -28.463  -2.753  52.324  1.00  0.00     0.209 C
HETATM   31  O2  UNL     1     -29.220  -2.667  53.323  1.00  0.00    -0.646 OA
HETATM   32  O3  UNL     1     -28.543  -3.868  51.504  1.00  0.00    -0.646 OA
ENDBRANCH  22  30
TORSDOF 5
ENDMDL