MODEL 3
REMARK VINA RESULT: -7.195681653      7.890     10.385
REMARK  5 active torsions:
REMARK  status: ('A' for Active; 'I' for Inactive)
REMARK    1  A    between atoms: C11_11  and  N1_12
REMARK    2  A    between atoms: N1_12  and  C12_14
REMARK    3  A    between atoms: C19_22  and  C21_24
REMARK    4  A    between atoms: C21_24  and  O1_25
REMARK    5  A    between atoms: C21_24  and  C22_27
ROOT
HETATM    1  C12 UNL     1     -24.482   3.675  50.728  1.00  0.00     0.239 C
HETATM    2  C13 UNL     1     -24.678   3.052  49.418  1.00  0.00     0.078 C
HETATM    3  N2  UNL     1     -24.850   2.554  48.368  1.00  0.00    -0.196 NA
ENDROOT
BRANCH   1   4
HETATM    4  N1  UNL     1     -23.655   2.820  51.502  1.00  0.00    -0.405 N
ATOM      5  H1  UNL     1     -22.638   2.903  51.501  1.00  0.00     0.154 HD
BRANCH   4   6
HETATM    6  C11 UNL     1     -24.340   1.829  52.290  1.00  0.00     0.086 C
HETATM    7  C9  UNL     1     -23.502   0.579  52.193  1.00  0.00    -0.016 C
HETATM    8  C8  UNL     1     -24.010  -0.158  50.971  1.00  0.00     0.012 C
HETATM    9  C10 UNL     1     -22.045   0.941  51.887  1.00  0.00     0.018 C
HETATM   10  C17 UNL     1     -23.506  -0.257  53.429  1.00  0.00    -0.031 C
HETATM   11  C7  UNL     1     -23.353  -1.510  50.785  1.00  0.00     0.007 C
HETATM   12  C6  UNL     1     -23.728  -2.320  52.016  1.00  0.00     0.002 C
HETATM   13  C5  UNL     1     -23.070  -1.676  53.170  1.00  0.00    -0.001 C
HETATM   14  C19 UNL     1     -23.416  -3.790  51.881  1.00  0.00    -0.007 C
HETATM   15  C4  UNL     1     -23.064  -2.484  54.419  1.00  0.00     0.006 C
HETATM   16  C3  UNL     1     -22.350  -3.759  54.180  1.00  0.00     0.005 C
HETATM   17  C2  UNL     1     -22.337  -4.264  52.783  1.00  0.00    -0.007 C
HETATM   18  C1  UNL     1     -20.932  -4.155  52.161  1.00  0.00     0.011 C
HETATM   19  C20 UNL     1     -22.871  -4.089  50.470  1.00  0.00     0.019 C
HETATM   20  C16 UNL     1     -24.836  -0.157  54.086  1.00  0.00     0.010 C
HETATM   21  C18 UNL     1     -22.454   0.324  54.387  1.00  0.00     0.016 C
HETATM   22  C15 UNL     1     -25.039   1.245  54.625  1.00  0.00     0.003 C
HETATM   23  C14 UNL     1     -24.641   2.308  53.664  1.00  0.00     0.026 C
BRANCH  14  24
HETATM   24  C21 UNL     1     -24.721  -4.535  51.949  1.00  0.00     0.160 C
BRANCH  24  25
HETATM   25  O1  UNL     1     -25.006  -5.272  50.781  1.00  0.00    -0.390 OA
ATOM     26  H1  UNL     1     -25.906  -5.181  50.489  1.00  0.00     0.210 HD
ENDBRANCH  24  25
BRANCH  24  27
HETATM   27  C22 UNL     1     -25.908  -3.787  52.327  1.00  0.00    -0.029 A
HETATM   28  C23 UNL     1     -26.361  -3.735  53.638  1.00  0.00     0.013 A
HETATM   29  C24 UNL     1     -27.515  -3.020  53.985  1.00  0.00     0.043 A
HETATM   30  C25 UNL     1     -28.232  -2.349  53.039  1.00  0.00     0.116 A
HETATM   31  F1  UNL     1     -29.346  -1.658  53.373  1.00  0.00    -0.206 F
HETATM   32  C26 UNL     1     -27.814  -2.380  51.743  1.00  0.00     0.043 A
HETATM   33  C27 UNL     1     -26.676  -3.089  51.419  1.00  0.00     0.013 A
ENDBRANCH  24  27
ENDBRANCH  14  24
ENDBRANCH   4   6
ENDBRANCH   1   4
TORSDOF 5
ENDMDL