MODEL 4
REMARK VINA RESULT: -8.368972413      1.814      2.852
REMARK  7 active torsions:
REMARK  status: ('A' for Active; 'I' for Inactive)
REMARK    1  A    between atoms: C2_2  and  C5_5
REMARK    2  A    between atoms: C5_5  and  C8_8
REMARK    3  A    between atoms: C10_10  and  C11_11
REMARK    4  A    between atoms: C11_11  and  C12_12
REMARK    5  A    between atoms: C12_12  and  C13_13
REMARK    6  A    between atoms: C17_21  and  N2_22
REMARK    7  A    between atoms: N2_22  and  C18_24
ROOT
HETATM    1  C8  UNL     1     -19.588  -5.484  54.574  1.00  0.00    -0.021 A
HETATM    2  C9  UNL     1     -18.570  -6.360  54.269  1.00  0.00     0.017 A
HETATM    3  C10 UNL     1     -18.217  -6.779  52.994  1.00  0.00    -0.056 A
HETATM    4  C14 UNL     1     -18.932  -6.292  51.940  1.00  0.00     0.022 A
HETATM    5  C15 UNL     1     -19.959  -5.414  52.188  1.00  0.00     0.008 A
HETATM    6  C16 UNL     1     -20.654  -4.944  51.096  1.00  0.00     0.120 A
HETATM    7  N1  UNL     1     -21.667  -4.082  51.265  1.00  0.00    -0.201 N
ATOM      8  H1  UNL     1     -22.191  -3.726  50.466  1.00  0.00     0.183 HD
HETATM    9  C17 UNL     1     -21.969  -3.706  52.503  1.00  0.00     0.678 A
HETATM   10  N3  UNL     1     -21.297  -4.161  53.575  1.00  0.00    -0.191 N
ATOM     11  H3  UNL     1     -21.578  -3.834  54.500  1.00  0.00     0.184 HD
HETATM   12  C26 UNL     1     -20.287  -5.012  53.486  1.00  0.00     0.068 A
ENDROOT
BRANCH   9  13
HETATM   13  N2  UNL     1     -22.947  -2.875  52.661  1.00  0.00    -0.221 N
ATOM     14  H2  UNL     1     -23.888  -3.163  52.391  1.00  0.00     0.178 HD
BRANCH  13  15
HETATM   15  C18 UNL     1     -22.749  -1.543  53.210  1.00  0.00     0.099 C
HETATM   16  C19 UNL     1     -22.509  -0.642  52.022  1.00  0.00     0.026 C
HETATM   17  C20 UNL     1     -22.755   0.798  52.291  1.00  0.00     0.002 C
HETATM   18  C21 UNL     1     -21.717   1.285  53.293  1.00  0.00     0.000 C
HETATM   19  C22 UNL     1     -22.464   1.595  54.569  1.00  0.00     0.000 C
HETATM   20  C23 UNL     1     -22.468   0.313  55.414  1.00  0.00     0.000 C
HETATM   21  C24 UNL     1     -23.721  -0.459  55.272  1.00  0.00     0.002 C
HETATM   22  C25 UNL     1     -23.943  -1.184  54.015  1.00  0.00     0.026 C
ENDBRANCH  13  15
ENDBRANCH   9  13
BRANCH   1  23
HETATM   23  C5  UNL     1     -19.952  -5.047  55.925  1.00  0.00    -0.012 C
HETATM   24  C6  UNL     1     -20.952  -3.909  55.947  1.00  0.00     0.021 C
HETATM   25  C7  UNL     1     -20.335  -6.236  56.776  1.00  0.00     0.021 C
BRANCH  23  26
HETATM   26  C2  UNL     1     -18.803  -4.433  56.736  1.00  0.00    -0.040 C
HETATM   27  C1  UNL     1     -19.469  -3.230  57.450  1.00  0.00     0.015 C
HETATM   28  C3  UNL     1     -17.721  -3.826  55.922  1.00  0.00     0.015 C
HETATM   29  C4  UNL     1     -18.350  -5.319  57.870  1.00  0.00     0.015 C
ENDBRANCH  23  26
ENDBRANCH   1  23
BRANCH   3  30
HETATM   30  C11 UNL     1     -17.124  -7.770  52.854  1.00  0.00     0.049 C
BRANCH  30  31
HETATM   31  C12 UNL     1     -17.232  -8.692  51.711  1.00  0.00     0.117 C
BRANCH  31  32
HETATM   32  C13 UNL     1     -16.124  -8.688  50.774  1.00  0.00     0.172 C
HETATM   33  O1  UNL     1     -14.970  -8.365  51.071  1.00  0.00    -0.648 OA
HETATM   34  O2  UNL     1     -16.377  -9.078  49.432  1.00  0.00    -0.648 OA
ENDBRANCH  31  32
ENDBRANCH  30  31
ENDBRANCH   3  30
TORSDOF 7
ENDMDL