MODEL 5
REMARK VINA RESULT: -7.763608901      1.567      1.987
REMARK  5 active torsions:
REMARK  status: ('A' for Active; 'I' for Inactive)
REMARK    1  A    between atoms: C2_2  and  C3_3
REMARK    2  A    between atoms: C2_2  and  C4_8
REMARK    3  A    between atoms: C3_3  and  N1_4
REMARK    4  A    between atoms: C4_8  and  O1_10
REMARK    5  A    between atoms: O1_10  and  C6_11
ROOT
HETATM    1  C6  UNL     1     -19.299  -5.363  53.196  1.00  0.00     0.091 A
HETATM    2  C7  UNL     1     -19.318  -4.951  51.884  1.00  0.00     0.039 A
HETATM    3  C8  UNL     1     -20.362  -4.166  51.450  1.00  0.00     0.011 A
HETATM    4  C9  UNL     1     -21.399  -3.765  52.260  1.00  0.00    -0.045 A
HETATM    5  C10 UNL     1     -21.381  -4.174  53.567  1.00  0.00    -0.027 A
HETATM    6  C11 UNL     1     -20.364  -4.952  54.036  1.00  0.00     0.074 A
HETATM    7 CL1  UNL     1     -20.397  -5.445  55.721  1.00  0.00    -0.081 Cl
HETATM    8  C12 UNL     1     -22.487  -3.742  54.449  1.00  0.00     0.041 C
HETATM    9  C13 UNL     1     -22.739  -2.288  54.099  1.00  0.00     0.010 C
HETATM   10  C14 UNL     1     -23.260  -2.127  52.687  1.00  0.00    -0.001 C
HETATM   11  C15 UNL     1     -22.500  -2.922  51.726  1.00  0.00     0.024 C
HETATM   12  C16 UNL     1     -23.334  -3.849  50.858  1.00  0.00     0.011 C
HETATM   13  C17 UNL     1     -24.434  -2.939  50.291  1.00  0.00     0.014 C
HETATM   14  C18 UNL     1     -25.393  -2.787  51.467  1.00  0.00    -0.021 C
HETATM   15  C19 UNL     1     -25.948  -4.200  51.705  1.00  0.00     0.020 C
HETATM   16  C20 UNL     1     -26.558  -1.963  51.071  1.00  0.00     0.001 C
HETATM   17  C21 UNL     1     -27.527  -1.542  51.853  1.00  0.00     0.019 C
HETATM   18  C22 UNL     1     -28.560  -0.748  51.232  1.00  0.00     0.095 C
HETATM   19  N2  UNL     1     -29.396  -0.127  50.726  1.00  0.00    -0.192 NA
HETATM   20  C23 UNL     1     -27.726  -1.761  53.307  1.00  0.00     0.050 C
HETATM   21  C24 UNL     1     -26.541  -1.151  54.031  1.00  0.00     0.006 C
HETATM   22  C25 UNL     1     -25.378  -0.929  53.088  1.00  0.00     0.006 C
HETATM   23  C26 UNL     1     -24.745  -2.257  52.681  1.00  0.00     0.002 C
ENDROOT
BRANCH   1  24
HETATM   24  O1  UNL     1     -18.330  -6.143  53.769  1.00  0.00    -0.344 OA
BRANCH  24  25
HETATM   25  C4  UNL     1     -16.984  -5.828  53.869  1.00  0.00     0.130 C
HETATM   26  C5  UNL     1     -16.573  -5.759  55.330  1.00  0.00     0.040 C
BRANCH  25  27
HETATM   27  C2  UNL     1     -16.121  -6.821  53.109  1.00  0.00     0.036 C
HETATM   28  C1  UNL     1     -15.717  -6.099  51.820  1.00  0.00     0.014 C
BRANCH  27  29
HETATM   29  C3  UNL     1     -16.841  -8.085  52.746  1.00  0.00     0.236 C
BRANCH  29  30
HETATM   30  N1  UNL     1     -17.446  -8.036  51.434  1.00  0.00    -0.079 N
ATOM     31  H13 UNL     1     -16.960  -7.370  50.834  1.00  0.00     0.274 HD
ATOM     32  H12 UNL     1     -17.259  -8.895  50.916  1.00  0.00     0.274 HD
ATOM     33  H11 UNL     1     -18.446  -7.838  51.461  1.00  0.00     0.274 HD
ENDBRANCH  29  30
ENDBRANCH  27  29
ENDBRANCH  25  27
ENDBRANCH  24  25
ENDBRANCH   1  24
TORSDOF 5
ENDMDL