MODEL 2
REMARK VINA RESULT: -9.212969598      1.092      1.219
REMARK  4 active torsions:
REMARK  status: ('A' for Active; 'I' for Inactive)
REMARK    1  A    between atoms: N3_19  and  C15_20
REMARK    2  A    between atoms: C15_20  and  C16_21
REMARK    3  A    between atoms: N4_24  and  C19_25
REMARK    4  A    between atoms: C19_25  and  C20_26
ROOT
HETATM    1  C1  UNL     1     -21.231  -2.625  51.478  1.00  0.00     0.032 C
HETATM    2  C2  UNL     1     -21.374  -3.966  52.167  1.00  0.00     0.083 C
HETATM    3  N1  UNL     1     -22.588  -4.576  51.737  1.00  0.00    -0.371 N
ATOM      4  H1  UNL     1     -22.488  -5.392  51.134  1.00  0.00     0.161 HD
HETATM    5  C3  UNL     1     -23.902  -4.196  52.039  1.00  0.00     0.109 A
HETATM    6  N2  UNL     1     -25.000  -4.664  51.456  1.00  0.00    -0.342 N
ATOM      7  H2  UNL     1     -25.023  -5.360  50.710  1.00  0.00     0.167 HD
HETATM    8  C4  UNL     1     -26.076  -4.074  52.005  1.00  0.00     0.044 A
HETATM    9  C5  UNL     1     -27.403  -4.249  51.712  1.00  0.00     0.030 A
HETATM   10  C6  UNL     1     -28.331  -3.520  52.418  1.00  0.00     0.002 A
HETATM   11  C7  UNL     1     -27.946  -2.630  53.396  1.00  0.00     0.001 A
HETATM   12  C8  UNL     1     -26.603  -2.482  53.658  1.00  0.00     0.014 A
HETATM   13  C9  UNL     1     -25.663  -3.210  52.956  1.00  0.00     0.001 A
HETATM   14  C10 UNL     1     -24.269  -3.267  53.000  1.00  0.00    -0.002 A
HETATM   15  C11 UNL     1     -23.549  -2.417  53.946  1.00  0.00     0.048 C
HETATM   16  C12 UNL     1     -22.115  -2.531  54.112  1.00  0.00    -0.002 C
HETATM   17  C13 UNL     1     -21.826  -2.518  55.631  1.00  0.00     0.025 C
HETATM   18  C14 UNL     1     -20.464  -2.920  55.991  1.00  0.00     0.122 C
HETATM   19  N3  UNL     1     -20.215  -4.294  56.264  1.00  0.00    -0.393 N
HETATM   20  C25 UNL     1     -20.963  -5.282  55.596  1.00  0.00     0.058 C
HETATM   21  C26 UNL     1     -21.864  -4.901  54.481  1.00  0.00     0.051 C
HETATM   22  C27 UNL     1     -21.408  -3.755  53.645  1.00  0.00     0.017 C
ENDROOT
BRANCH  19  23
HETATM   23  C15 UNL     1     -18.811  -4.587  56.390  1.00  0.00     0.128 C
BRANCH  23  24
HETATM   24  C16 UNL     1     -18.053  -4.615  55.109  1.00  0.00     0.023 C
HETATM   25  C17 UNL     1     -16.566  -4.578  55.388  1.00  0.00     0.028 C
HETATM   26  C18 UNL     1     -16.005  -5.206  54.109  1.00  0.00     0.122 C
HETATM   27  N4  UNL     1     -17.019  -6.013  53.562  1.00  0.00    -0.392 N
HETATM   28  C24 UNL     1     -18.170  -5.979  54.418  1.00  0.00     0.128 C
BRANCH  27  29
HETATM   29  C19 UNL     1     -16.625  -7.234  53.015  1.00  0.00     0.065 C
BRANCH  29  30
HETATM   30  C20 UNL     1     -17.142  -7.644  51.692  1.00  0.00     0.058 C
HETATM   31  C21 UNL     1     -18.474  -8.242  51.515  1.00  0.00     0.015 C
HETATM   32  C22 UNL     1     -17.880  -9.288  50.554  1.00  0.00     0.039 C
HETATM   33  C23 UNL     1     -16.519  -8.882  51.082  1.00  0.00     0.179 C
HETATM   34  F1  UNL     1     -15.653  -8.565  50.062  1.00  0.00    -0.249 F
ENDBRANCH  29  30
ENDBRANCH  27  29
ENDBRANCH  23  24
ENDBRANCH  19  23
TORSDOF 4
ENDMDL