MODEL 2
REMARK VINA RESULT: -8.221030156      5.109      8.260
REMARK  4 active torsions:
REMARK  status: ('A' for Active; 'I' for Inactive)
REMARK    1  A    between atoms: C2_2  and  C3_3
REMARK    2  A    between atoms: C7_7  and  N1_8
REMARK    3  A    between atoms: C14_19  and  C15_20
REMARK    4  A    between atoms: C16_21  and  C17_22
ROOT
HETATM    1  C3  UNL     1     -26.904  -2.779  52.079  1.00  0.00     0.011 A
HETATM    2  C4  UNL     1     -26.078  -1.987  52.864  1.00  0.00     0.033 A
HETATM    3  C5  UNL     1     -24.753  -2.304  53.036  1.00  0.00    -0.039 A
HETATM    4  C6  UNL     1     -24.249  -3.422  52.420  1.00  0.00    -0.003 A
HETATM    5  C7  UNL     1     -25.113  -4.201  51.634  1.00  0.00     0.106 A
HETATM    6  N2  UNL     1     -26.412  -3.872  51.476  1.00  0.00    -0.346 N
ATOM      7  H2  UNL     1     -27.020  -4.453  50.900  1.00  0.00     0.167 HD
HETATM    8  C8  UNL     1     -22.922  -4.017  52.400  1.00  0.00     0.032 C
HETATM    9  C9  UNL     1     -22.208  -3.551  51.150  1.00  0.00     0.011 C
HETATM   10  C10 UNL     1     -20.728  -3.573  51.247  1.00  0.00     0.018 C
HETATM   11  C11 UNL     1     -20.171  -4.732  52.057  1.00  0.00    -0.001 C
HETATM   12  C12 UNL     1     -20.412  -5.993  51.274  1.00  0.00     0.024 C
HETATM   13  C13 UNL     1     -18.732  -4.552  52.277  1.00  0.00    -0.006 C
HETATM   14  C14 UNL     1     -18.127  -5.350  53.219  1.00  0.00    -0.056 C
HETATM   15  C20 UNL     1     -19.027  -6.246  54.008  1.00  0.00     0.089 C
HETATM   16  C21 UNL     1     -20.299  -5.468  54.333  1.00  0.00     0.020 C
HETATM   17 CL1  UNL     1     -20.984  -5.563  55.926  1.00  0.00    -0.088 Cl
HETATM   18  C22 UNL     1     -20.858  -4.729  53.382  1.00  0.00    -0.045 C
HETATM   19  C23 UNL     1     -22.101  -3.951  53.628  1.00  0.00     0.032 C
HETATM   20  C24 UNL     1     -21.751  -2.638  54.189  1.00  0.00     0.088 C
HETATM   21  C25 UNL     1     -23.007  -2.018  54.740  1.00  0.00     0.131 C
HETATM   22  O1  UNL     1     -23.221  -2.030  55.915  1.00  0.00    -0.298 OA
HETATM   23  C26 UNL     1     -24.031  -1.371  53.889  1.00  0.00     0.117 C
ENDROOT
BRANCH  14  24
HETATM   24  C15 UNL     1     -16.720  -5.184  53.448  1.00  0.00     0.003 C
HETATM   25  C16 UNL     1     -16.152  -4.842  54.733  1.00  0.00    -0.022 C
BRANCH  25  26
HETATM   26  C17 UNL     1     -16.459  -3.596  55.465  1.00  0.00    -0.000 C
HETATM   27  C18 UNL     1     -15.267  -3.503  56.504  1.00  0.00     0.013 C
HETATM   28  C19 UNL     1     -17.648  -3.619  56.393  1.00  0.00     0.013 C
ENDBRANCH  25  26
ENDBRANCH  14  24
BRANCH   5  29
HETATM   29  N1  UNL     1     -24.675  -5.259  51.044  1.00  0.00    -0.385 N
ATOM     30  H12 UNL     1     -23.679  -5.472  51.108  1.00  0.00     0.157 HD
ATOM     31  H11 UNL     1     -25.316  -5.860  50.526  1.00  0.00     0.157 HD
ENDBRANCH   5  29
BRANCH   1  32
HETATM   32  C2  UNL     1     -28.325  -2.429  51.900  1.00  0.00     0.052 C
HETATM   33  C1  UNL     1     -29.104  -3.610  51.403  1.00  0.00     0.011 C
ENDBRANCH   1  32
TORSDOF 4
ENDMDL