MODEL 1
REMARK VINA RESULT: -8.873856825      0.000      0.000
REMARK  4 active torsions:
REMARK  status: ('A' for Active; 'I' for Inactive)
REMARK    1  A    between atoms: C16_18  and  O2_19
REMARK    2  A    between atoms: C17_21  and  C18_22
REMARK    3  A    between atoms: C18_22  and  C19_23
REMARK    4  A    between atoms: C19_23  and  N1_24
ROOT
HETATM    1  C1  UNL     1     -17.960  -4.934  59.916  1.00  0.00     0.018 C
HETATM    2  C2  UNL     1     -18.859  -4.742  58.699  1.00  0.00    -0.015 C
HETATM    3  C3  UNL     1     -18.018  -4.304  57.591  1.00  0.00     0.012 C
HETATM    4  C4  UNL     1     -18.290  -4.723  56.242  1.00  0.00     0.010 C
HETATM    5  C5  UNL     1     -19.671  -5.365  55.922  1.00  0.00     0.021 C
HETATM    6  C6  UNL     1     -20.239  -6.150  57.146  1.00  0.00     0.014 C
HETATM    7  C7  UNL     1     -19.497  -6.055  58.363  1.00  0.00    -0.004 C
HETATM    8  C8  UNL     1     -20.439  -6.196  59.578  1.00  0.00     0.007 C
HETATM    9  C9  UNL     1     -20.896  -4.789  59.868  1.00  0.00     0.031 C
HETATM   10  C10 UNL     1     -19.936  -3.839  59.164  1.00  0.00     0.063 C
HETATM   11 CL1  UNL     1     -19.278  -2.774  60.500  1.00  0.00    -0.114 Cl
HETATM   12  C11 UNL     1     -20.664  -2.984  58.276  1.00  0.00     0.011 C
HETATM   13  C12 UNL     1     -20.870  -3.321  56.853  1.00  0.00    -0.030 A
HETATM   14  C13 UNL     1     -21.744  -2.274  56.472  1.00  0.00     0.014 A
HETATM   15  C14 UNL     1     -22.240  -2.108  55.218  1.00  0.00     0.039 A
HETATM   16  C15 UNL     1     -21.884  -3.004  54.232  1.00  0.00     0.089 A
HETATM   17  O1  UNL     1     -22.224  -3.049  52.968  1.00  0.00    -0.287 OA
HETATM   18  C16 UNL     1     -21.632  -4.091  52.411  1.00  0.00     0.191 A
HETATM   19  C17 UNL     1     -20.861  -4.757  53.387  1.00  0.00     0.015 A
HETATM   20  C25 UNL     1     -21.027  -4.052  54.566  1.00  0.00     0.016 A
HETATM   21  C26 UNL     1     -20.525  -4.223  55.826  1.00  0.00    -0.030 A
ENDROOT
BRANCH  19  22
HETATM   22  C18 UNL     1     -20.053  -5.921  53.224  1.00  0.00     0.075 C
BRANCH  22  23
HETATM   23  C19 UNL     1     -18.679  -5.536  52.695  1.00  0.00     0.277 C
BRANCH  23  24
HETATM   24  N1  UNL     1     -17.727  -6.624  52.985  1.00  0.00     0.088 N
HETATM   25  C20 UNL     1     -18.064  -7.732  52.165  1.00  0.00     0.272 C
HETATM   26  C21 UNL     1     -16.841  -8.534  51.831  1.00  0.00     0.030 C
HETATM   27  C22 UNL     1     -15.889  -7.669  51.043  1.00  0.00     0.003 C
HETATM   28  C23 UNL     1     -15.711  -6.314  51.647  1.00  0.00     0.030 C
HETATM   29  C24 UNL     1     -16.371  -6.218  53.007  1.00  0.00     0.272 C
ENDBRANCH  23  24
ENDBRANCH  22  23
ENDBRANCH  19  22
BRANCH  18  30
HETATM   30  O2  UNL     1     -21.730  -4.486  51.091  1.00  0.00    -0.340 OA
ATOM     31  H2  UNL     1     -22.222  -5.227  50.757  1.00  0.00     0.220 HD
ENDBRANCH  18  30
TORSDOF 4
ENDMDL