MODEL 1
REMARK VINA RESULT: -7.377489401      0.000      0.000
REMARK  6 active torsions:
REMARK  status: ('A' for Active; 'I' for Inactive)
REMARK    1  A    between atoms: N2_8  and  C5_9
REMARK    2  A    between atoms: C5_9  and  C6_10
REMARK    3  A    between atoms: C7_11  and  C8_12
REMARK    4  A    between atoms: C8_12  and  C9_13
REMARK    5  A    between atoms: C12_18  and  O2_19
REMARK    6  A    between atoms: C13_21  and  O3_22
ROOT
HETATM    1  C8  UNL     1      83.769   3.435  10.404  1.00  0.00     0.038 C
ENDROOT
BRANCH   1   2
HETATM    2  C7  UNL     1      83.857   4.880  10.614  1.00  0.00    -0.028 C
HETATM    3  C6  UNL     1      82.861   5.715  10.611  1.00  0.00    -0.010 C
BRANCH   3   4
HETATM    4  C5  UNL     1      81.473   5.311  10.390  1.00  0.00     0.164 C
BRANCH   4   5
HETATM    5  N2  UNL     1      80.759   5.091  11.655  1.00  0.00    -0.265 N
HETATM    6  C4  UNL     1      80.438   3.822  12.222  1.00  0.00     0.326 C
HETATM    7  N1  UNL     1      79.737   4.044  13.464  1.00  0.00    -0.325 N
HETATM    8  O1  UNL     1      80.723   2.707  11.711  1.00  0.00    -0.247 OA
HETATM    9  C2  UNL     1      79.202   5.377  13.352  1.00  0.00     0.108 C
ATOM     10  H1  UNL     1      79.642   3.399  14.248  1.00  0.00     0.165 HD
HETATM   11  C1  UNL     1      77.945   5.342  12.538  1.00  0.00     0.049 C
HETATM   12  C3  UNL     1      79.025   6.044  14.693  1.00  0.00     0.049 C
HETATM   13  C15 UNL     1      80.253   6.068  12.556  1.00  0.00     0.255 C
HETATM   14  O4  UNL     1      80.650   7.261  12.625  1.00  0.00    -0.270 OA
ENDBRANCH   4   5
ENDBRANCH   3   4
ENDBRANCH   1   2
BRANCH   1  15
HETATM   15  C9  UNL     1      84.501   3.167   9.072  1.00  0.00     0.047 C
HETATM   16  C10 UNL     1      85.486   2.063   9.258  1.00  0.00     0.010 C
HETATM   17 BR1  UNL     1      86.742   2.265  10.701  1.00  0.00    -0.054 Br
HETATM   18  C11 UNL     1      85.515   1.004   8.493  1.00  0.00     0.033 C
HETATM   19 BR2  UNL     1      86.832  -0.346   8.838  1.00  0.00    -0.052 Br
HETATM   20  C12 UNL     1      84.574   0.778   7.356  1.00  0.00     0.189 C
HETATM   21  C13 UNL     1      84.172   2.156   6.855  1.00  0.00     0.167 C
HETATM   22  C14 UNL     1      83.476   2.844   8.033  1.00  0.00     0.098 C
HETATM   23 BR3  UNL     1      82.155   1.585   8.686  1.00  0.00    -0.088 Br
BRANCH  20  24
HETATM   24  O2  UNL     1      85.277   0.171   6.306  1.00  0.00    -0.388 OA
ATOM     25  H2  UNL     1      85.311  -0.765   6.465  1.00  0.00     0.210 HD
ENDBRANCH  20  24
BRANCH  21  26
HETATM   26  O3  UNL     1      83.237   1.950   5.838  1.00  0.00    -0.391 OA
ATOM     27  H3  UNL     1      83.727   1.662   5.077  1.00  0.00     0.210 HD
ENDBRANCH  21  26
ENDBRANCH   1  15
TORSDOF 6
ENDMDL