MODEL 4
REMARK VINA RESULT: -6.088181334      1.823      2.231
REMARK  8 active torsions:
REMARK  status: ('A' for Active; 'I' for Inactive)
REMARK    1  A    between atoms: N1_12  and  C10_13
REMARK    2  A    between atoms: C10_13  and  O1_14
REMARK    3  A    between atoms: C10_13  and  C11_16
REMARK    4  A    between atoms: C11_16  and  C12_18
REMARK    5  A    between atoms: C12_18  and  N2_19
REMARK    6  A    between atoms: N2_19  and  O2_20
REMARK       I    between atoms: N2_19  and  C13_22
REMARK    7  A    between atoms: C14_25  and  C15_26
REMARK    8  A    between atoms: C15_26  and  O4_27
ROOT
HETATM    1  C1  UNL     1      79.731   3.884  12.180  1.00  0.00     0.016 C
HETATM    2  C2  UNL     1      80.327   5.221  12.419  1.00  0.00    -0.031 C
HETATM    3  C3  UNL     1      80.189   5.596  13.870  1.00  0.00     0.016 C
HETATM    4  C4  UNL     1      81.844   5.253  12.145  1.00  0.00     0.021 C
HETATM    5  C5  UNL     1      82.151   6.721  12.121  1.00  0.00     0.041 C
HETATM    6  C6  UNL     1      80.884   7.415  11.662  1.00  0.00     0.086 C
HETATM    7 BR1  UNL     1      81.178   8.466  10.067  1.00  0.00    -0.072 Br
HETATM    8 BR2  UNL     1      80.280   8.676  13.019  1.00  0.00    -0.072 Br
HETATM    9  C7  UNL     1      79.904   6.307  11.476  1.00  0.00     0.007 C
HETATM   10  C8  UNL     1      78.476   6.738  11.672  1.00  0.00     0.020 C
HETATM   11  C9  UNL     1      80.018   5.762  10.068  1.00  0.00     0.137 C
HETATM   12  N1  UNL     1      80.987   4.702   9.943  1.00  0.00    -0.353 N
HETATM   13  C14 UNL     1      82.114   4.604  10.847  1.00  0.00     0.115 C
ENDROOT
BRANCH  12  14
HETATM   14  C10 UNL     1      80.851   3.769   8.896  1.00  0.00     0.157 C
BRANCH  14  15
HETATM   15  O1  UNL     1      80.453   2.560   9.206  1.00  0.00    -0.345 OA
ATOM     16  H1  UNL     1      80.785   1.839   8.683  1.00  0.00     0.219 HD
ENDBRANCH  14  15
BRANCH  14  17
HETATM   17  C11 UNL     1      81.090   3.919   7.486  1.00  0.00     0.079 C
HETATM   18 BR3  UNL     1      80.714   5.454   6.425  1.00  0.00    -0.045 Br
BRANCH  17  19
HETATM   19  C12 UNL     1      81.676   2.913   6.830  1.00  0.00     0.151 C
BRANCH  19  20
HETATM   20  N2  UNL     1      83.042   2.681   6.704  1.00  0.00    -0.185 N
HETATM   21  C13 UNL     1      83.696   1.779   7.627  1.00  0.00     0.358 C
HETATM   22  N3  UNL     1      85.090   1.526   7.519  1.00  0.00    -0.038 NA
HETATM   23  O3  UNL     1      83.036   1.226   8.512  1.00  0.00    -0.248 OA
BRANCH  20  24
HETATM   24  O2  UNL     1      83.781   3.267   5.753  1.00  0.00    -0.279 OA
ATOM     25  H2  UNL     1      84.607   2.903   5.457  1.00  0.00     0.245 HD
ENDBRANCH  20  24
ENDBRANCH  19  20
ENDBRANCH  17  19
ENDBRANCH  14  17
ENDBRANCH  12  14
BRANCH  13  26
HETATM   26  C15 UNL     1      83.419   5.070  10.287  1.00  0.00     0.189 C
BRANCH  26  27
HETATM   27  O4  UNL     1      84.145   4.012   9.676  1.00  0.00    -0.399 OA
ATOM     28  H4  UNL     1      83.648   3.591   8.984  1.00  0.00     0.209 HD
ENDBRANCH  26  27
ENDBRANCH  13  26
TORSDOF 8
ENDMDL