MODEL 1
REMARK VINA RESULT: -8.114774289      0.000      0.000
REMARK  5 active torsions:
REMARK  status: ('A' for Active; 'I' for Inactive)
REMARK       I    between atoms: C1_2  and  N1_3
REMARK    1  A    between atoms: C1_2  and  C8_14
REMARK    2  A    between atoms: N1_3  and  S1_5
REMARK    3  A    between atoms: S1_5  and  C2_8
REMARK    4  A    between atoms: C12_24  and  C13_25
REMARK    5  A    between atoms: C13_25  and  O4_26
ROOT
HETATM    1  C8  UNL     1      88.089   0.984  20.495  1.00  0.00     0.287 C
HETATM    2  N2  UNL     1      87.715   2.235  21.135  1.00  0.00    -0.032 N
ATOM      3  H21 UNL     1      86.822   2.579  20.783  1.00  0.00     0.281 HD
ATOM      4  H22 UNL     1      88.315   3.001  20.828  1.00  0.00     0.281 HD
HETATM    5  C9  UNL     1      87.704   2.123  22.573  1.00  0.00     0.252 C
HETATM    6 BR1  UNL     1      89.480   1.862  23.269  1.00  0.00    -0.040 Br
HETATM    7 BR2  UNL     1      87.026   3.794  23.277  1.00  0.00    -0.040 Br
HETATM    8  C10 UNL     1      86.796   1.023  23.057  1.00  0.00     0.117 C
HETATM    9 BR3  UNL     1      86.851   0.966  24.990  1.00  0.00    -0.087 Br
HETATM   10  C11 UNL     1      87.292  -0.281  22.481  1.00  0.00     0.029 C
HETATM   11  C12 UNL     1      87.187  -0.137  20.954  1.00  0.00     0.051 C
ENDROOT
BRANCH   1  12
HETATM   12  C1  UNL     1      87.868   1.201  19.046  1.00  0.00     0.262 C
HETATM   13  O1  UNL     1      87.487   0.253  18.290  1.00  0.00    -0.270 OA
HETATM   14  N1  UNL     1      88.066   2.476  18.431  1.00  0.00    -0.252 N
ATOM     15  H1  UNL     1      88.379   3.261  19.004  1.00  0.00     0.181 HD
BRANCH  14  16
HETATM   16  S1  UNL     1      87.790   2.718  16.762  1.00  0.00     0.237 S
HETATM   17  O2  UNL     1      87.277   4.116  16.565  1.00  0.00    -0.205 OA
HETATM   18  O3  UNL     1      86.683   1.794  16.257  1.00  0.00    -0.205 OA
BRANCH  16  19
HETATM   19  C2  UNL     1      89.260   2.398  15.789  1.00  0.00     0.129 C
HETATM   20  C3  UNL     1      90.446   2.492  16.683  1.00  0.00     0.022 C
HETATM   21  C4  UNL     1      91.425   3.532  16.144  1.00  0.00     0.001 C
HETATM   22  C5  UNL     1      91.819   2.986  14.766  1.00  0.00     0.000 C
HETATM   23  C6  UNL     1      90.645   3.251  13.865  1.00  0.00     0.001 C
HETATM   24  C7  UNL     1      89.330   3.259  14.573  1.00  0.00     0.022 C
ENDBRANCH  16  19
ENDBRANCH  14  16
ENDBRANCH   1  12
BRANCH  11  25
HETATM   25  C13 UNL     1      87.555  -1.450  20.366  1.00  0.00     0.171 C
BRANCH  25  26
HETATM   26  O4  UNL     1      86.429  -2.305  20.472  1.00  0.00    -0.400 OA
ATOM     27  H4  UNL     1      85.868  -2.142  19.722  1.00  0.00     0.209 HD
ENDBRANCH  25  26
ENDBRANCH  11  25
TORSDOF 5
ENDMDL