MODEL 1
REMARK VINA RESULT: -5.584013757      0.000      0.000
REMARK  8 active torsions:
REMARK  status: ('A' for Active; 'I' for Inactive)
REMARK    1  A    between atoms: C2_2  and  C3_3
REMARK    2  A    between atoms: C4_4  and  O1_5
REMARK    3  A    between atoms: C5_8  and  O2_9
REMARK    4  A    between atoms: C9_18  and  O3_19
REMARK    5  A    between atoms: C10_21  and  C11_22
REMARK    6  A    between atoms: C11_22  and  C12_23
REMARK    7  A    between atoms: C15_28  and  O4_29
REMARK    8  A    between atoms: C18_33  and  C19_34
ROOT
HETATM    1  C3  UNL     1      85.627   5.716  27.034  1.00  0.00     0.117 C
HETATM    2  C4  UNL     1      86.466   6.950  26.934  1.00  0.00     0.130 C
HETATM    3  N1  UNL     1      87.687   6.787  26.181  1.00  0.00    -0.302 N
HETATM    4  C5  UNL     1      87.947   7.312  24.916  1.00  0.00     0.136 C
HETATM    5  C6  UNL     1      87.178   7.589  23.746  1.00  0.00     0.154 C
HETATM    6 BR1  UNL     1      87.642   9.379  23.038  1.00  0.00    -0.081 Br
HETATM    7  C7  UNL     1      85.741   7.475  23.612  1.00  0.00     0.142 C
HETATM    8 CL1  UNL     1      85.479   7.937  21.842  1.00  0.00    -0.120 Cl
HETATM    9  C8  UNL     1      85.039   6.218  23.808  1.00  0.00     0.208 C
HETATM   10 CL2  UNL     1      83.409   6.496  24.472  1.00  0.00    -0.100 Cl
HETATM   11  N2  UNL     1      85.746   5.159  24.537  1.00  0.00    -0.306 N
HETATM   12  C9  UNL     1      86.758   4.517  23.760  1.00  0.00     0.143 C
HETATM   13  C10 UNL     1      88.069   4.039  24.027  1.00  0.00     0.158 C
HETATM   14  N3  UNL     1      88.608   3.963  25.323  1.00  0.00    -0.361 N
ATOM     15  H3  UNL     1      88.525   3.021  25.707  1.00  0.00     0.162 HD
HETATM   16  C15 UNL     1      89.225   4.827  26.220  1.00  0.00     0.135 C
HETATM   17  C16 UNL     1      88.716   6.034  26.887  1.00  0.00     0.163 C
HETATM   18  C17 UNL     1      89.810   7.044  27.199  1.00  0.00     0.041 C
HETATM   19  C18 UNL     1      85.339   4.891  25.883  1.00  0.00     0.104 C
ENDROOT
BRANCH  13  20
HETATM   20  C11 UNL     1      88.357   2.734  23.321  1.00  0.00     0.037 C
BRANCH  20  21
HETATM   21  C12 UNL     1      87.982   1.464  23.957  1.00  0.00    -0.020 C
HETATM   22  C13 UNL     1      86.908   0.694  23.218  1.00  0.00     0.009 C
HETATM   23  C14 UNL     1      89.269   0.573  23.759  1.00  0.00     0.009 C
ENDBRANCH  20  21
ENDBRANCH  13  20
BRANCH  12  24
HETATM   24  O3  UNL     1      86.431   4.312  22.517  1.00  0.00    -0.348 OA
ATOM     25  H3  UNL     1      86.569   3.422  22.216  1.00  0.00     0.219 HD
ENDBRANCH  12  24
BRANCH  16  26
HETATM   26  O4  UNL     1      90.464   4.597  26.588  1.00  0.00    -0.348 OA
ATOM     27  H4  UNL     1      91.072   5.323  26.656  1.00  0.00     0.219 HD
ENDBRANCH  16  26
BRANCH  19  28
HETATM   28  C19 UNL     1      85.459   3.417  26.215  1.00  0.00     0.223 C
HETATM   29  O5  UNL     1      84.736   2.538  25.691  1.00  0.00    -0.643 OA
HETATM   30  O6  UNL     1      86.391   2.962  27.122  1.00  0.00    -0.643 OA
ENDBRANCH  19  28
BRANCH   1  31
HETATM   31  C2  UNL     1      84.448   6.161  27.898  1.00  0.00     0.015 C
HETATM   32  C1  UNL     1      84.287   5.344  29.102  1.00  0.00     0.006 C
ENDBRANCH   1  31
BRANCH   2  33
HETATM   33  O1  UNL     1      85.785   8.133  26.704  1.00  0.00    -0.349 OA
ATOM     34  H1  UNL     1      86.100   8.895  27.176  1.00  0.00     0.219 HD
ENDBRANCH   2  33
BRANCH   4  35
HETATM   35  O2  UNL     1      89.212   7.627  24.764  1.00  0.00    -0.348 OA
ATOM     36  H2  UNL     1      89.645   7.067  24.130  1.00  0.00     0.219 HD
ENDBRANCH   4  35
TORSDOF 8
ENDMDL