MODEL 5
REMARK VINA RESULT: -6.212976701     14.412     15.572
REMARK  5 active torsions:
REMARK  status: ('A' for Active; 'I' for Inactive)
REMARK    1  A    between atoms: O1_2  and  C2_3
REMARK    2  A    between atoms: C3_4  and  C4_5
REMARK    3  A    between atoms: C5_8  and  N1_9
REMARK       I    between atoms: N1_9  and  C6_11
REMARK    4  A    between atoms: C6_11  and  C7_13
REMARK       I    between atoms: C7_13  and  N2_15
REMARK    5  A    between atoms: N2_15  and  C8_17
ROOT
HETATM    1  C2  UNL     1      88.519   6.160  27.105  1.00  0.00     0.159 C
HETATM    2  C3  UNL     1      87.927   4.803  26.720  1.00  0.00     0.090 C
HETATM    3  C5  UNL     1      87.850   4.747  25.254  1.00  0.00     0.025 C
HETATM    4  C13 UNL     1      87.210   5.903  24.540  1.00  0.00     0.058 C
HETATM    5  C14 UNL     1      88.064   6.382  23.345  1.00  0.00     0.044 C
HETATM    6  C15 UNL     1      85.865   5.570  23.923  1.00  0.00     0.044 C
HETATM    7  N3  UNL     1      87.028   7.068  25.344  1.00  0.00    -0.398 N
ATOM      8  H3  UNL     1      86.243   7.701  25.190  1.00  0.00     0.155 HD
HETATM    9  C16 UNL     1      87.979   7.310  26.359  1.00  0.00     0.046 C
HETATM   10  C17 UNL     1      87.328   8.258  27.378  1.00  0.00     0.040 C
HETATM   11  C18 UNL     1      89.140   8.101  25.733  1.00  0.00     0.040 C
ENDROOT
BRANCH   3  12
HETATM   12  N1  UNL     1      87.425   3.460  24.742  1.00  0.00    -0.323 N
HETATM   13  C6  UNL     1      88.313   2.482  24.240  1.00  0.00     0.313 C
HETATM   14  O2  UNL     1      89.540   2.725  24.230  1.00  0.00    -0.262 OA
ATOM     15  H1  UNL     1      86.427   3.248  24.743  1.00  0.00     0.169 HD
BRANCH  13  16
HETATM   16  C7  UNL     1      87.830   1.218  23.743  1.00  0.00     0.310 C
HETATM   17  O3  UNL     1      86.683   0.798  24.114  1.00  0.00    -0.262 OA
HETATM   18  N2  UNL     1      88.562   0.396  22.851  1.00  0.00    -0.341 N
ATOM     19  H2  UNL     1      89.484   0.689  22.527  1.00  0.00     0.163 HD
BRANCH  18  20
HETATM   20  C8  UNL     1      88.011  -0.844  22.405  1.00  0.00     0.158 C
HETATM   21  C9  UNL     1      89.166  -1.797  22.125  1.00  0.00     0.036 C
HETATM   22  C10 UNL     1      88.495  -2.811  21.222  1.00  0.00     0.048 C
HETATM   23  C11 UNL     1      87.465  -2.036  20.424  1.00  0.00     0.241 C
HETATM   24  F1  UNL     1      86.259  -2.693  20.532  1.00  0.00    -0.241 F
HETATM   25  C12 UNL     1      87.383  -0.707  21.076  1.00  0.00     0.183 C
HETATM   26  O4  UNL     1      86.884   0.295  20.584  1.00  0.00    -0.293 OA
ENDBRANCH  18  20
ENDBRANCH  13  16
ENDBRANCH   3  12
BRANCH   2  27
HETATM   27  C4  UNL     1      86.807   4.401  27.577  1.00  0.00     0.141 C
HETATM   28 BR1  UNL     1      86.134   2.636  27.491  1.00  0.00    -0.078 Br
HETATM   29 BR2  UNL     1      86.957   4.920  29.433  1.00  0.00    -0.078 Br
ENDBRANCH   2  27
BRANCH   1  30
HETATM   30  O1  UNL     1      89.881   6.083  26.928  1.00  0.00    -0.387 OA
HETATM   31  C1  UNL     1      90.529   5.339  27.892  1.00  0.00     0.202 C
ENDBRANCH   1  30
TORSDOF 5
ENDMDL