MODEL 5
REMARK VINA RESULT: -5.983381993     15.232     17.124
REMARK  7 active torsions:
REMARK  status: ('A' for Active; 'I' for Inactive)
REMARK    1  A    between atoms: C2_5  and  C3_6
REMARK       I    between atoms: C3_6  and  N2_8
REMARK    2  A    between atoms: N2_8  and  C4_10
REMARK    3  A    between atoms: C4_10  and  N3_12
REMARK    4  A    between atoms: C9_17  and  C10_18
REMARK    5  A    between atoms: C10_18  and  C11_20
REMARK    6  A    between atoms: C11_20  and  O3_21
REMARK    7  A    between atoms: C11_20  and  C12_23
ROOT
HETATM    1  O1  UNL     1      85.412   5.663  24.313  1.00  0.00    -0.238 OA
HETATM    2  C1  UNL     1      86.307   4.776  24.270  1.00  0.00     0.361 C
HETATM    3  N1  UNL     1      86.460   3.845  23.174  1.00  0.00    -0.321 N
ATOM      4  H1  UNL     1      85.851   3.701  22.369  1.00  0.00     0.165 HD
HETATM    5  C2  UNL     1      87.702   3.169  23.511  1.00  0.00     0.210 C
HETATM    6  C9  UNL     1      87.576   3.092  24.982  1.00  0.00     0.182 C
HETATM    7  O4  UNL     1      87.307   4.501  25.223  1.00  0.00    -0.295 OA
ENDROOT
BRANCH   5   8
HETATM    8  C3  UNL     1      88.012   2.012  22.733  1.00  0.00     0.249 C
HETATM    9  O2  UNL     1      89.131   1.466  22.836  1.00  0.00    -0.271 OA
HETATM   10  N2  UNL     1      87.071   1.459  21.834  1.00  0.00    -0.302 N
ATOM     11  H2  UNL     1      86.155   1.899  21.744  1.00  0.00     0.171 HD
BRANCH  10  12
HETATM   12  C4  UNL     1      87.365   0.292  21.042  1.00  0.00     0.176 C
HETATM   13  S1  UNL     1      87.983   0.448  19.533  1.00  0.00    -0.041 SA
BRANCH  12  14
HETATM   14  N3  UNL     1      87.132  -0.992  21.540  1.00  0.00    -0.358 N
HETATM   15  C5  UNL     1      85.927  -1.795  21.455  1.00  0.00     0.125 C
HETATM   16  C6  UNL     1      86.377  -3.227  21.507  1.00  0.00     0.021 C
HETATM   17  C7  UNL     1      87.865  -3.221  21.766  1.00  0.00     0.021 C
HETATM   18  C8  UNL     1      88.080  -1.805  22.267  1.00  0.00     0.125 C
ENDBRANCH  12  14
ENDBRANCH  10  12
ENDBRANCH   5   8
BRANCH   6  19
HETATM   19  C10 UNL     1      86.420   2.397  25.573  1.00  0.00     0.120 C
HETATM   20 BR1  UNL     1      85.880   3.466  27.131  1.00  0.00    -0.086 Br
BRANCH  19  21
HETATM   21  C11 UNL     1      86.620   1.019  26.097  1.00  0.00     0.159 C
BRANCH  21  22
HETATM   22  O3  UNL     1      85.784   0.711  27.184  1.00  0.00    -0.392 OA
ATOM     23  H3  UNL     1      86.069   1.107  28.000  1.00  0.00     0.210 HD
ENDBRANCH  21  22
BRANCH  21  24
HETATM   24  C12 UNL     1      86.162   0.062  24.982  1.00  0.00     0.159 C
HETATM   25 BR2  UNL     1      86.097  -1.758  25.616  1.00  0.00    -0.076 Br
HETATM   26 BR3  UNL     1      84.438   0.540  24.311  1.00  0.00    -0.076 Br
ENDBRANCH  21  24
ENDBRANCH  19  21
ENDBRANCH   6  19
TORSDOF 7
ENDMDL