MODEL 2
REMARK VINA RESULT: -6.847011497     14.422     16.371
REMARK  7 active torsions:
REMARK  status: ('A' for Active; 'I' for Inactive)
REMARK    1  A    between atoms: S1_2  and  N1_5
REMARK    2  A    between atoms: N1_5  and  C2_7
REMARK    3  A    between atoms: C5_14  and  C6_15
REMARK    4  A    between atoms: C6_15  and  C7_16
REMARK    5  A    between atoms: C7_16  and  C8_17
REMARK    6  A    between atoms: C10_19  and  O3_20
REMARK    7  A    between atoms: C11_22  and  O4_23
ROOT
HETATM    1  C2  UNL     1      83.931   1.018   6.558  1.00  0.00     0.133 A
HETATM    2  N2  UNL     1      85.027   0.389   7.009  1.00  0.00    -0.334 N
ATOM      3  H2  UNL     1      85.376  -0.410   6.481  1.00  0.00     0.168 HD
HETATM    4  C3  UNL     1      85.692   0.756   8.126  1.00  0.00     0.099 A
HETATM    5 BR1  UNL     1      87.256  -0.196   8.712  1.00  0.00    -0.030 Br
HETATM    6  C4  UNL     1      85.277   1.830   8.892  1.00  0.00     0.052 A
HETATM    7 BR2  UNL     1      86.236   2.343  10.470  1.00  0.00    -0.048 Br
HETATM    8  C5  UNL     1      84.153   2.498   8.452  1.00  0.00    -0.017 A
HETATM    9  C13 UNL     1      83.492   2.097   7.304  1.00  0.00     0.063 A
HETATM   10 BR3  UNL     1      81.932   3.094   6.771  1.00  0.00    -0.046 Br
ENDROOT
BRANCH   8  11
HETATM   11  C6  UNL     1      83.686   3.653   9.264  1.00  0.00     0.042 C
BRANCH  11  12
HETATM   12  C7  UNL     1      82.641   3.233  10.273  1.00  0.00     0.009 C
BRANCH  12  13
HETATM   13  C8  UNL     1      81.797   4.425  10.677  1.00  0.00    -0.009 C
HETATM   14  C9  UNL     1      81.334   4.272  12.098  1.00  0.00     0.039 C
HETATM   15  C10 UNL     1      79.885   4.658  12.154  1.00  0.00     0.147 C
HETATM   16  C11 UNL     1      79.544   5.124  10.766  1.00  0.00     0.147 C
HETATM   17  C12 UNL     1      80.496   4.352   9.900  1.00  0.00     0.039 C
BRANCH  15  18
HETATM   18  O3  UNL     1      79.103   3.549  12.532  1.00  0.00    -0.393 OA
ATOM     19  H3  UNL     1      78.285   3.841  12.917  1.00  0.00     0.210 HD
ENDBRANCH  15  18
BRANCH  16  20
HETATM   20  O4  UNL     1      78.210   4.873  10.427  1.00  0.00    -0.393 OA
ATOM     21  H4  UNL     1      78.111   4.583   9.528  1.00  0.00     0.210 HD
ENDBRANCH  16  20
ENDBRANCH  12  13
ENDBRANCH  11  12
ENDBRANCH   8  11
BRANCH   1  22
HETATM   22  N1  UNL     1      83.281   0.688   5.499  1.00  0.00    -0.269 N
ATOM     23  H1  UNL     1      82.321   0.367   5.623  1.00  0.00     0.180 HD
BRANCH  22  24
HETATM   24  S1  UNL     1      83.889   0.740   3.900  1.00  0.00     0.228 S
HETATM   25  C1  UNL     1      82.704  -0.022   2.822  1.00  0.00     0.186 C
HETATM   26  O1  UNL     1      85.212   0.028   3.813  1.00  0.00    -0.206 OA
HETATM   27  O2  UNL     1      84.079   2.201   3.524  1.00  0.00    -0.206 OA
ENDBRANCH  22  24
ENDBRANCH   1  22
TORSDOF 7
ENDMDL