MODEL 5
REMARK VINA RESULT: -5.965703989      4.989      6.973
REMARK  6 active torsions:
REMARK  status: ('A' for Active; 'I' for Inactive)
REMARK    1  A    between atoms: C2_2  and  O1_3
REMARK    2  A    between atoms: C2_2  and  C3_5
REMARK    3  A    between atoms: C3_5  and  N1_6
REMARK    4  A    between atoms: C3_5  and  C9_17
REMARK       I    between atoms: N1_6  and  C4_8
REMARK    5  A    between atoms: C4_8  and  C5_10
REMARK       I    between atoms: C9_17  and  N2_19
REMARK    6  A    between atoms: N2_19  and  C10_21
ROOT
HETATM    1  C3  UNL     1      82.751   2.656  10.296  1.00  0.00     0.205 C
ENDROOT
BRANCH   1   2
HETATM    2  C2  UNL     1      84.219   2.586   9.933  1.00  0.00     0.146 C
HETATM    3  C1  UNL     1      84.893   3.914   9.992  1.00  0.00     0.042 C
BRANCH   2   4
HETATM    4  O1  UNL     1      84.375   2.096   8.624  1.00  0.00    -0.393 OA
ATOM      5  H1  UNL     1      83.507   2.029   8.242  1.00  0.00     0.210 HD
ENDBRANCH   2   4
ENDBRANCH   1   2
BRANCH   1   6
HETATM    6  N1  UNL     1      82.439   3.888  10.970  1.00  0.00    -0.345 N
HETATM    7  C4  UNL     1      81.313   3.986  11.806  1.00  0.00     0.225 C
HETATM    8  O2  UNL     1      80.585   2.967  11.948  1.00  0.00    -0.273 OA
ATOM      9  H1  UNL     1      83.042   4.701  10.840  1.00  0.00     0.163 HD
BRANCH   7  10
HETATM   10  C5  UNL     1      81.029   5.275  12.482  1.00  0.00     0.122 C
HETATM   11  C6  UNL     1      82.145   6.297  12.332  1.00  0.00     0.098 C
HETATM   12  C7  UNL     1      81.394   6.818  11.133  1.00  0.00     0.158 C
HETATM   13  O3  UNL     1      81.648   7.431  10.112  1.00  0.00    -0.295 OA
HETATM   14  C8  UNL     1      80.164   6.244  11.755  1.00  0.00     0.148 C
HETATM   15 BR1  UNL     1      79.343   7.568  12.904  1.00  0.00    -0.063 Br
HETATM   16 BR2  UNL     1      78.899   5.539  10.511  1.00  0.00    -0.063 Br
ENDBRANCH   7  10
ENDBRANCH   1   6
BRANCH   1  17
HETATM   17  C9  UNL     1      81.867   2.494   9.144  1.00  0.00     0.249 C
HETATM   18  O4  UNL     1      81.411   1.357   8.863  1.00  0.00    -0.271 OA
HETATM   19  N2  UNL     1      81.516   3.589   8.345  1.00  0.00    -0.305 N
ATOM     20  H2  UNL     1      81.061   4.393   8.779  1.00  0.00     0.171 HD
BRANCH  19  21
HETATM   21  C10 UNL     1      81.758   3.613   7.046  1.00  0.00     0.152 A
HETATM   22  N3  UNL     1      82.809   3.090   6.415  1.00  0.00    -0.345 N
HETATM   23  C11 UNL     1      82.874   3.216   5.107  1.00  0.00     0.116 A
ATOM     24  H3  UNL     1      83.543   2.604   6.932  1.00  0.00     0.167 HD
HETATM   25  C12 UNL     1      81.856   3.877   4.483  1.00  0.00     0.070 A
HETATM   26 BR3  UNL     1      81.649   4.230   2.598  1.00  0.00    -0.042 Br
HETATM   27  S1  UNL     1      80.840   4.296   5.784  1.00  0.00    -0.045 SA
ENDBRANCH  19  21
ENDBRANCH   1  17
TORSDOF 6
ENDMDL