MODEL 3
REMARK VINA RESULT: -6.063376586      2.160      2.437
REMARK  7 active torsions:
REMARK  status: ('A' for Active; 'I' for Inactive)
REMARK    1  A    between atoms: C3_4  and  N2_5
REMARK    2  A    between atoms: N2_5  and  C4_7
REMARK    3  A    between atoms: C4_7  and  O1_8
REMARK    4  A    between atoms: C4_7  and  C5_10
REMARK    5  A    between atoms: C6_11  and  C7_12
REMARK    6  A    between atoms: C11_16  and  N3_17
REMARK    7  A    between atoms: C11_16  and  C12_21
ROOT
HETATM    1  C4  UNL     1      87.647   0.949  23.160  1.00  0.00     0.119 C
ENDROOT
BRANCH   1   2
HETATM    2  N2  UNL     1      86.980   2.082  23.568  1.00  0.00    -0.366 N
ATOM      3  H2  UNL     1      86.258   2.477  22.966  1.00  0.00     0.161 HD
BRANCH   2   4
HETATM    4  C3  UNL     1      87.286   2.750  24.871  1.00  0.00     0.128 C
HETATM    5  C2  UNL     1      88.334   3.782  24.729  1.00  0.00     0.298 C
HETATM    6  N1  UNL     1      87.932   5.003  25.386  1.00  0.00     0.088 N
HETATM    7  C1  UNL     1      89.049   5.915  25.333  1.00  0.00     0.310 C
HETATM    8  C15 UNL     1      87.641   4.643  26.783  1.00  0.00     0.306 C
HETATM    9  C14 UNL     1      86.261   4.005  26.771  1.00  0.00     0.117 C
HETATM   10  C13 UNL     1      86.009   3.308  25.453  1.00  0.00     0.114 C
HETATM   11 BR2  UNL     1      86.051   2.755  28.226  1.00  0.00    -0.070 Br
HETATM   12 BR3  UNL     1      84.965   5.417  27.008  1.00  0.00    -0.070 Br
HETATM   13 BR1  UNL     1      84.869   1.796  25.850  1.00  0.00    -0.086 Br
ENDBRANCH   2   4
ENDBRANCH   1   2
BRANCH   1  14
HETATM   14  O1  UNL     1      88.472   1.174  22.158  1.00  0.00    -0.349 OA
ATOM     15  H1  UNL     1      88.116   0.903  21.319  1.00  0.00     0.219 HD
ENDBRANCH   1  14
BRANCH   1  16
HETATM   16  C5  UNL     1      87.600  -0.384  23.630  1.00  0.00     0.115 A
HETATM   17  C6  UNL     1      87.411  -1.684  22.999  1.00  0.00     0.055 A
HETATM   18  C11 UNL     1      86.242  -1.080  23.667  1.00  0.00     0.226 A
BRANCH  17  19
HETATM   19  C7  UNL     1      87.590  -2.150  21.641  1.00  0.00    -0.044 C
HETATM   20  C8  UNL     1      86.966  -3.567  21.533  1.00  0.00     0.015 C
HETATM   21  C9  UNL     1      87.184  -1.427  20.449  1.00  0.00     0.015 C
HETATM   22  C10 UNL     1      89.110  -2.435  21.465  1.00  0.00     0.015 C
ENDBRANCH  17  19
BRANCH  18  23
HETATM   23  N3  UNL     1      85.128  -0.582  22.935  1.00  0.00    -0.059 N
ATOM     24  H33 UNL     1      85.277   0.415  22.778  1.00  0.00     0.275 HD
ATOM     25  H32 UNL     1      85.183  -0.956  21.988  1.00  0.00     0.275 HD
ATOM     26  H31 UNL     1      84.172  -0.707  23.267  1.00  0.00     0.275 HD
ENDBRANCH  18  23
BRANCH  18  27
HETATM   27  C12 UNL     1      85.836  -1.562  25.046  1.00  0.00     0.211 C
HETATM   28  O2  UNL     1      84.724  -2.049  25.231  1.00  0.00    -0.646 OA
HETATM   29  O3  UNL     1      86.764  -1.432  26.081  1.00  0.00    -0.646 OA
ENDBRANCH  18  27
ENDBRANCH   1  16
TORSDOF 7
ENDMDL