MODEL 2
REMARK VINA RESULT: -9.787828086      0.079      1.298
REMARK  10 active torsions:
REMARK  status: ('A' for Active; 'I' for Inactive)
REMARK    1  A    between atoms: C2_2  and  C5_5
REMARK    2  A    between atoms: C5_5  and  N1_6
REMARK    3  A    between atoms: C8_10  and  N2_11
REMARK       I    between atoms: N2_11  and  C9_13
REMARK    4  A    between atoms: C9_13  and  C10_15
REMARK    5  A    between atoms: C10_15  and  C11_16
REMARK    6  A    between atoms: C11_16  and  C12_17
REMARK    7  A    between atoms: C12_17  and  C13_18
REMARK    8  A    between atoms: C13_18  and  C14_19
REMARK    9  A    between atoms: C14_19  and  N3_20
REMARK       I    between atoms: N3_20  and  C15_22
REMARK   10  A    between atoms: C15_22  and  C16_24
ROOT
HETATM    1  C11 UNL     1     -25.233  10.336 -19.565  1.00  0.00     0.009 C
ENDROOT
BRANCH   1   2
HETATM    2  C10 UNL     1     -25.084  10.788 -18.157  1.00  0.00     0.103 C
BRANCH   2   3
HETATM    3  C9  UNL     1     -25.473   9.811 -17.123  1.00  0.00     0.219 C
HETATM    4  N2  UNL     1     -24.519   9.034 -16.400  1.00  0.00    -0.327 N
ATOM      5  H2  UNL     1     -23.522   9.140 -16.588  1.00  0.00     0.165 HD
HETATM    6  O2  UNL     1     -26.683   9.646 -16.855  1.00  0.00    -0.274 OA
BRANCH   4   7
HETATM    7  C8  UNL     1     -24.966   8.110 -15.415  1.00  0.00     0.317 C
HETATM    8  O1  UNL     1     -24.352   6.871 -15.437  1.00  0.00    -0.356 OA
HETATM    9  C7  UNL     1     -23.050   6.877 -15.030  1.00  0.00     0.191 C
HETATM   10  C6  UNL     1     -22.763   7.629 -13.784  1.00  0.00     0.152 C
HETATM   11  N1  UNL     1     -23.994   8.107 -13.124  1.00  0.00    -0.346 N
HETATM   12  C26 UNL     1     -24.961   8.647 -14.014  1.00  0.00     0.269 C
HETATM   13  O4  UNL     1     -25.754   9.519 -13.634  1.00  0.00    -0.268 OA
BRANCH  11  14
HETATM   14  C5  UNL     1     -24.128   8.019 -11.704  1.00  0.00     0.134 C
BRANCH  14  15
HETATM   15  C2  UNL     1     -24.167   6.685 -11.080  1.00  0.00    -0.035 C
HETATM   16  C1  UNL     1     -25.173   6.760  -9.908  1.00  0.00     0.016 C
HETATM   17  C3  UNL     1     -24.718   5.601 -11.985  1.00  0.00     0.016 C
HETATM   18  C4  UNL     1     -22.871   6.258 -10.451  1.00  0.00     0.016 C
ENDBRANCH  14  15
ENDBRANCH  11  14
ENDBRANCH   4   7
ENDBRANCH   2   3
ENDBRANCH   1   2
BRANCH   1  19
HETATM   19  C12 UNL     1     -25.990  11.292 -20.422  1.00  0.00     0.002 C
BRANCH  19  20
HETATM   20  C13 UNL     1     -27.212  11.801 -19.660  1.00  0.00     0.020 C
BRANCH  20  21
HETATM   21  C14 UNL     1     -26.963  13.189 -19.142  1.00  0.00     0.122 C
BRANCH  21  22
HETATM   22  N3  UNL     1     -27.663  13.410 -17.915  1.00  0.00    -0.360 N
HETATM   23  C15 UNL     1     -27.032  13.634 -16.687  1.00  0.00     0.226 C
HETATM   24  O3  UNL     1     -25.786  13.664 -16.565  1.00  0.00    -0.273 OA
ATOM     25  H3  UNL     1     -28.682  13.404 -17.936  1.00  0.00     0.162 HD
BRANCH  23  26
HETATM   26  C16 UNL     1     -27.845  13.852 -15.448  1.00  0.00     0.042 C
HETATM   27  C17 UNL     1     -27.613  12.655 -14.548  1.00  0.00     0.024 C
HETATM   28  C18 UNL     1     -28.409  12.851 -13.282  1.00  0.00    -0.013 C
HETATM   29  C19 UNL     1     -28.104  14.151 -12.587  1.00  0.00     0.009 C
HETATM   30  C23 UNL     1     -29.878  12.838 -13.649  1.00  0.00     0.009 C
HETATM   31  C20 UNL     1     -28.356  15.309 -13.550  1.00  0.00    -0.013 C
HETATM   32  C21 UNL     1     -29.802  15.312 -13.927  1.00  0.00     0.009 C
HETATM   33  C25 UNL     1     -27.464  15.117 -14.749  1.00  0.00     0.024 C
HETATM   34  C22 UNL     1     -30.152  13.993 -14.578  1.00  0.00    -0.013 C
HETATM   35  C24 UNL     1     -29.321  13.811 -15.835  1.00  0.00     0.024 C
ENDBRANCH  23  26
ENDBRANCH  21  22
ENDBRANCH  20  21
ENDBRANCH  19  20
ENDBRANCH   1  19
TORSDOF 10
ENDMDL