MODEL 4
REMARK VINA RESULT: -2.021289178      9.070     13.683
REMARK  9 active torsions:
REMARK  status: ('A' for Active; 'I' for Inactive)
REMARK    1  A    between atoms: C2_2  and  C3_3
REMARK    2  A    between atoms: C4_4  and  N1_5
REMARK    3  A    between atoms: N2_13  and  C12_14
REMARK    4  A    between atoms: C12_14  and  C13_15
REMARK    5  A    between atoms: C13_15  and  C14_16
REMARK    6  A    between atoms: N3_23  and  C21_24
REMARK    7  A    between atoms: C21_24  and  C22_25
REMARK    8  A    between atoms: C21_24  and  C26_29
REMARK    9  A    between atoms: C22_25  and  C23_26
REMARK       I    between atoms: C26_29  and  N4_31
ROOT
HETATM    1  C3  UNL     1     -27.776  12.529 -15.295  1.00  0.00     0.074 C
HETATM    2  C4  UNL     1     -26.969  11.765 -16.088  1.00  0.00     0.129 C
HETATM    3  N2  UNL     1     -26.878  12.176 -17.447  1.00  0.00    -0.359 N
HETATM    4  C18 UNL     1     -28.021  12.733 -18.150  1.00  0.00     0.100 C
HETATM    5  C19 UNL     1     -27.552  13.786 -19.139  1.00  0.00     0.034 C
HETATM    6  C20 UNL     1     -28.979  13.427 -17.207  1.00  0.00     0.149 C
HETATM    7  N3  UNL     1     -28.399  13.685 -15.905  1.00  0.00    -0.362 N
ENDROOT
BRANCH   7   8
HETATM    8  C21 UNL     1     -28.375  14.965 -15.290  1.00  0.00     0.177 C
BRANCH   8   9
HETATM    9  C22 UNL     1     -27.043  15.411 -14.732  1.00  0.00     0.038 C
BRANCH   9  10
HETATM   10  C23 UNL     1     -26.133  16.015 -15.742  1.00  0.00    -0.020 C
HETATM   11  C24 UNL     1     -25.241  14.897 -16.286  1.00  0.00     0.009 C
HETATM   12  C25 UNL     1     -26.987  16.548 -16.894  1.00  0.00     0.009 C
ENDBRANCH   9  10
ENDBRANCH   8   9
BRANCH   8  13
HETATM   13  C26 UNL     1     -29.382  15.060 -14.199  1.00  0.00     0.246 C
HETATM   14  O1  UNL     1     -29.087  15.240 -13.024  1.00  0.00    -0.271 OA
HETATM   15  N4  UNL     1     -30.774  14.934 -14.545  1.00  0.00    -0.302 N
HETATM   16  C27 UNL     1     -31.307  13.762 -14.684  1.00  0.00     0.203 C
ATOM     17  H4  UNL     1     -31.342  15.770 -14.681  1.00  0.00     0.171 HD
HETATM   18  N5  UNL     1     -30.571  12.560 -14.507  1.00  0.00    -0.066 NA
HETATM   19  N6  UNL     1     -32.683  13.653 -15.028  1.00  0.00    -0.066 NA
ENDBRANCH   8  13
ENDBRANCH   7   8
BRANCH   1  20
HETATM   20  C2  UNL     1     -27.920  12.169 -13.936  1.00  0.00     0.023 C
HETATM   21  C1  UNL     1     -27.531  12.704 -12.812  1.00  0.00     0.013 C
ENDBRANCH   1  20
BRANCH   2  22
HETATM   22  N1  UNL     1     -26.283  10.614 -15.553  1.00  0.00    -0.365 N
HETATM   23  C5  UNL     1     -25.389  10.751 -14.423  1.00  0.00     0.125 C
HETATM   24  C6  UNL     1     -24.247   9.789 -14.340  1.00  0.00     0.029 C
HETATM   25  C7  UNL     1     -24.586   8.411 -14.761  1.00  0.00    -0.037 A
HETATM   26  C8  UNL     1     -25.194   8.469 -16.145  1.00  0.00     0.029 C
HETATM   27  C10 UNL     1     -24.695   7.254 -13.883  1.00  0.00     0.010 A
HETATM   28  C11 UNL     1     -23.443   7.414 -14.671  1.00  0.00     0.010 A
HETATM   29  C9  UNL     1     -26.469   9.298 -16.117  1.00  0.00     0.125 C
ENDBRANCH   2  22
BRANCH   3  30
HETATM   30  C12 UNL     1     -25.650  12.086 -18.146  1.00  0.00     0.129 C
BRANCH  30  31
HETATM   31  C13 UNL     1     -25.228  10.823 -18.775  1.00  0.00     0.047 C
BRANCH  31  32
HETATM   32  C14 UNL     1     -25.298  10.764 -20.241  1.00  0.00    -0.023 C
HETATM   33  C15 UNL     1     -26.424  10.542 -20.871  1.00  0.00    -0.091 C
HETATM   34  C16 UNL     1     -27.693  10.341 -20.140  1.00  0.00     0.042 C
HETATM   35  C17 UNL     1     -26.458  10.489 -22.373  1.00  0.00     0.042 C
ENDBRANCH  31  32
ENDBRANCH  30  31
ENDBRANCH   3  30
TORSDOF 9
ENDMDL