MODEL 1
REMARK VINA RESULT: -8.735402668      0.000      0.000
REMARK  9 active torsions:
REMARK  status: ('A' for Active; 'I' for Inactive)
REMARK    1  A    between atoms: C3_4  and  N2_5
REMARK    2  A    between atoms: C3_4  and  C19_28
REMARK       I    between atoms: N2_5  and  C4_7
REMARK    3  A    between atoms: C4_7  and  C5_9
REMARK    4  A    between atoms: C5_9  and  C6_10
REMARK    5  A    between atoms: C6_10  and  C7_11
REMARK    6  A    between atoms: C7_11  and  C8_12
REMARK       I    between atoms: C8_12  and  N3_14
REMARK    7  A    between atoms: N3_14  and  C9_15
REMARK    8  A    between atoms: N3_14  and  C13_19
REMARK    9  A    between atoms: N4_22  and  S1_23
ROOT
HETATM    1  C7  UNL     1     -24.874   8.588 -15.360  1.00  0.00     0.103 C
ENDROOT
BRANCH   1   2
HETATM    2  C6  UNL     1     -23.959   8.109 -14.238  1.00  0.00     0.019 C
BRANCH   2   3
HETATM    3  C5  UNL     1     -24.724   7.044 -13.500  1.00  0.00     0.103 C
BRANCH   3   4
HETATM    4  C4  UNL     1     -24.614   7.285 -11.991  1.00  0.00     0.222 C
HETATM    5  N2  UNL     1     -25.270   6.373 -11.182  1.00  0.00    -0.329 N
ATOM      6  H2  UNL     1     -25.772   5.646 -11.692  1.00  0.00     0.168 HD
HETATM    7  O1  UNL     1     -23.954   8.262 -11.655  1.00  0.00    -0.273 OA
BRANCH   5   8
HETATM    8  C3  UNL     1     -25.369   6.266  -9.755  1.00  0.00     0.036 C
HETATM    9  C2  UNL     1     -26.575   6.150  -9.276  1.00  0.00     0.043 C
HETATM   10  C1  UNL     1     -27.752   6.138 -10.198  1.00  0.00     0.067 C
HETATM   11  N1  UNL     1     -26.885   6.003  -7.913  1.00  0.00    -0.105 NA
BRANCH   8  12
HETATM   12  C19 UNL     1     -24.108   6.381  -8.985  1.00  0.00     0.037 C
HETATM   13  C20 UNL     1     -23.316   5.086  -9.330  1.00  0.00     0.011 C
HETATM   14  C21 UNL     1     -23.769   3.915  -8.498  1.00  0.00     0.001 C
HETATM   15  C22 UNL     1     -23.526   4.109  -7.048  1.00  0.00     0.000 C
HETATM   16  C23 UNL     1     -23.853   5.473  -6.571  1.00  0.00     0.001 C
HETATM   17  C24 UNL     1     -24.154   6.528  -7.530  1.00  0.00     0.011 C
ENDBRANCH   8  12
ENDBRANCH   5   8
ENDBRANCH   3   4
ENDBRANCH   2   3
ENDBRANCH   1   2
BRANCH   1  18
HETATM   18  C8  UNL     1     -25.474   9.888 -15.043  1.00  0.00     0.220 C
HETATM   19  O2  UNL     1     -25.398  10.322 -13.880  1.00  0.00    -0.273 OA
HETATM   20  N3  UNL     1     -26.138  10.656 -16.045  1.00  0.00    -0.343 N
BRANCH  20  21
HETATM   21  C9  UNL     1     -26.185  10.083 -17.363  1.00  0.00     0.087 C
HETATM   22  C10 UNL     1     -27.322  10.431 -18.266  1.00  0.00     0.025 C
HETATM   23  C11 UNL     1     -26.334  11.132 -19.174  1.00  0.00     0.004 C
HETATM   24  C12 UNL     1     -25.199  10.468 -18.393  1.00  0.00     0.025 C
ENDBRANCH  20  21
BRANCH  20  25
HETATM   25  C13 UNL     1     -26.644  11.886 -15.598  1.00  0.00     0.089 C
HETATM   26  C14 UNL     1     -26.268  13.172 -16.203  1.00  0.00     0.041 C
HETATM   27  C15 UNL     1     -27.055  14.271 -15.461  1.00  0.00     0.107 C
HETATM   28  N4  UNL     1     -27.575  13.786 -14.215  1.00  0.00    -0.234 NA
HETATM   29  C17 UNL     1     -28.664  12.870 -14.512  1.00  0.00     0.107 C
HETATM   30  C18 UNL     1     -28.173  11.859 -15.567  1.00  0.00     0.041 C
BRANCH  28  31
HETATM   31  S1  UNL     1     -28.129  15.151 -13.317  1.00  0.00     0.087 S
HETATM   32  C16 UNL     1     -29.302  16.119 -14.201  1.00  0.00     0.146 C
HETATM   33  O3  UNL     1     -28.876  14.574 -11.922  1.00  0.00    -0.242 OA
ENDBRANCH  28  31
ENDBRANCH  20  25
ENDBRANCH   1  18
TORSDOF 9
ENDMDL