MODEL 1
REMARK VINA RESULT: -10.232914825      0.000      0.000
REMARK  9 active torsions:
REMARK  status: ('A' for Active; 'I' for Inactive)
REMARK    1  A    between atoms: C2_2  and  C3_3
REMARK    2  A    between atoms: C3_3  and  N1_4
REMARK    3  A    between atoms: N1_4  and  C4_5
REMARK       I    between atoms: N1_4  and  C17_21
REMARK    4  A    between atoms: C4_5  and  C5_6
REMARK       I    between atoms: C5_6  and  N2_8
REMARK    5  A    between atoms: N2_8  and  C6_10
REMARK       I    between atoms: C17_21  and  N3_23
REMARK    6  A    between atoms: N3_23  and  C18_25
REMARK    7  A    between atoms: C18_25  and  C19_26
REMARK    8  A    between atoms: C19_26  and  C20_27
REMARK    9  A    between atoms: C20_27  and  N4_28
ROOT
HETATM    1  N1  UNL     1     -25.379  11.093 -18.549  1.00  0.00    -0.326 N
HETATM    2  C17 UNL     1     -25.336  10.133 -17.500  1.00  0.00     0.318 C
HETATM    3  O2  UNL     1     -25.207   8.927 -17.811  1.00  0.00    -0.247 OA
HETATM    4  N3  UNL     1     -25.434  10.492 -16.131  1.00  0.00    -0.343 N
ATOM      5  H3  UNL     1     -25.539  11.472 -15.870  1.00  0.00     0.164 HD
ENDROOT
BRANCH   1   6
HETATM    6  C3  UNL     1     -25.274  10.631 -19.886  1.00  0.00     0.127 C
BRANCH   6   7
HETATM    7  C2  UNL     1     -26.372  10.782 -20.848  1.00  0.00     0.015 C
HETATM    8  C1  UNL     1     -27.739  10.440 -20.398  1.00  0.00     0.006 C
ENDBRANCH   6   7
ENDBRANCH   1   6
BRANCH   1   9
HETATM    9  C4  UNL     1     -25.651  12.442 -18.214  1.00  0.00     0.230 C
BRANCH   9  10
HETATM   10  C5  UNL     1     -26.641  12.752 -17.192  1.00  0.00     0.236 C
HETATM   11  O1  UNL     1     -27.753  12.121 -17.335  1.00  0.00    -0.272 OA
HETATM   12  N2  UNL     1     -26.543  13.619 -16.100  1.00  0.00    -0.350 N
ATOM     13  H2  UNL     1     -25.654  14.110 -16.002  1.00  0.00     0.163 HD
BRANCH  12  14
HETATM   14  C6  UNL     1     -27.535  13.910 -15.094  1.00  0.00     0.033 C
HETATM   15  C7  UNL     1     -27.070  15.223 -14.449  1.00  0.00     0.031 C
HETATM   16  C8  UNL     1     -27.692  15.578 -13.176  1.00  0.00     0.007 C
HETATM   17  C9  UNL     1     -29.042  15.066 -12.853  1.00  0.00    -0.014 C
HETATM   18  C10 UNL     1     -30.036  15.196 -13.966  1.00  0.00     0.009 C
HETATM   19  C14 UNL     1     -28.976  13.674 -12.268  1.00  0.00     0.009 C
HETATM   20  C11 UNL     1     -30.054  14.019 -14.890  1.00  0.00    -0.012 C
HETATM   21  C12 UNL     1     -30.049  12.692 -14.208  1.00  0.00     0.009 C
HETATM   22  C16 UNL     1     -28.846  14.103 -15.781  1.00  0.00     0.035 C
HETATM   23  C13 UNL     1     -28.830  12.622 -13.347  1.00  0.00    -0.012 C
HETATM   24  C15 UNL     1     -27.535  12.808 -14.084  1.00  0.00     0.035 C
ENDBRANCH  12  14
ENDBRANCH   9  10
ENDBRANCH   1   9
BRANCH   4  25
HETATM   25  C18 UNL     1     -25.383   9.451 -15.081  1.00  0.00     0.126 C
BRANCH  25  26
HETATM   26  C19 UNL     1     -24.157   9.654 -14.276  1.00  0.00     0.050 C
BRANCH  26  27
HETATM   27  C20 UNL     1     -24.131   8.964 -12.972  1.00  0.00     0.274 C
BRANCH  27  28
HETATM   28  N4  UNL     1     -23.431   7.728 -12.870  1.00  0.00     0.089 N
HETATM   29  C21 UNL     1     -23.996   6.587 -13.472  1.00  0.00     0.273 C
HETATM   30  C22 UNL     1     -23.992   5.478 -12.447  1.00  0.00     0.043 C
HETATM   31  C23 UNL     1     -23.908   6.239 -11.142  1.00  0.00     0.011 C
HETATM   32  C24 UNL     1     -23.230   5.487 -10.043  1.00  0.00     0.039 C
HETATM   33  C26 UNL     1     -25.238   6.590 -10.557  1.00  0.00     0.179 C
HETATM   34  C27 UNL     1     -23.105   7.474 -11.505  1.00  0.00     0.284 C
HETATM   35  C25 UNL     1     -24.205   5.646  -8.882  1.00  0.00     0.168 C
HETATM   36  O3  UNL     1     -25.444   5.655  -9.539  1.00  0.00    -0.390 OA
ENDBRANCH  27  28
ENDBRANCH  26  27
ENDBRANCH  25  26
ENDBRANCH   4  25
TORSDOF 9
ENDMDL