MODEL 5
REMARK VINA RESULT: -9.248130746      1.175      1.667
REMARK  9 active torsions:
REMARK  status: ('A' for Active; 'I' for Inactive)
REMARK    1  A    between atoms: O1_2  and  C2_3
REMARK    2  A    between atoms: C5_6  and  N1_7
REMARK       I    between atoms: N1_7  and  C6_9
REMARK    3  A    between atoms: C6_9  and  C7_11
REMARK    4  A    between atoms: C7_11  and  C8_12
REMARK    5  A    between atoms: C7_11  and  N2_16
REMARK    6  A    between atoms: C8_12  and  C9_13
REMARK       I    between atoms: N2_16  and  C12_18
REMARK    7  A    between atoms: C12_18  and  C13_20
REMARK    8  A    between atoms: C13_20  and  C14_21
REMARK    9  A    between atoms: C13_20  and  N3_24
ROOT
HETATM    1  C7  UNL     1     -25.968  10.521 -18.021  1.00  0.00     0.177 C
ENDROOT
BRANCH   1   2
HETATM    2  C6  UNL     1     -25.520   9.594 -16.950  1.00  0.00     0.240 C
HETATM    3  N1  UNL     1     -26.030   9.813 -15.642  1.00  0.00    -0.354 N
ATOM      4  H1  UNL     1     -26.679  10.582 -15.471  1.00  0.00     0.162 HD
HETATM    5  O2  UNL     1     -24.723   8.645 -17.156  1.00  0.00    -0.271 OA
BRANCH   3   6
HETATM    6  C5  UNL     1     -25.635   8.959 -14.567  1.00  0.00     0.088 C
HETATM    7  C4  UNL     1     -25.305   7.562 -15.088  1.00  0.00     0.028 C
HETATM    8  C3  UNL     1     -24.599   6.764 -14.014  1.00  0.00     0.040 C
HETATM    9  C2  UNL     1     -23.582   7.622 -13.323  1.00  0.00     0.061 C
HETATM   10  C25 UNL     1     -23.145   8.736 -14.254  1.00  0.00     0.044 C
HETATM   11  C26 UNL     1     -24.336   8.672 -12.526  1.00  0.00     0.044 C
HETATM   12  C24 UNL     1     -24.420   9.464 -13.839  1.00  0.00     0.014 C
BRANCH   9  13
HETATM   13  O1  UNL     1     -22.541   7.008 -12.693  1.00  0.00    -0.385 OA
HETATM   14  C1  UNL     1     -22.632   7.026 -11.324  1.00  0.00     0.202 C
ENDBRANCH   9  13
ENDBRANCH   3   6
ENDBRANCH   1   2
BRANCH   1  15
HETATM   15  C8  UNL     1     -25.004  10.768 -19.100  1.00  0.00     0.038 C
BRANCH  15  16
HETATM   16  C9  UNL     1     -25.455  11.213 -20.422  1.00  0.00    -0.020 C
HETATM   17  C10 UNL     1     -26.763  10.448 -20.714  1.00  0.00     0.009 C
HETATM   18  C11 UNL     1     -24.575  10.944 -21.590  1.00  0.00     0.009 C
ENDBRANCH  15  16
ENDBRANCH   1  15
BRANCH   1  19
HETATM   19  N2  UNL     1     -26.471  11.703 -17.359  1.00  0.00    -0.346 N
HETATM   20  C12 UNL     1     -27.640  12.387 -17.694  1.00  0.00     0.241 C
HETATM   21  O3  UNL     1     -28.414  12.047 -18.635  1.00  0.00    -0.271 OA
ATOM     22  H2  UNL     1     -25.924  12.069 -16.580  1.00  0.00     0.163 HD
BRANCH  20  23
HETATM   23  C13 UNL     1     -28.042  13.588 -16.932  1.00  0.00     0.182 C
BRANCH  23  24
HETATM   24  C14 UNL     1     -27.054  14.743 -17.126  1.00  0.00     0.009 C
HETATM   25  C15 UNL     1     -25.703  14.471 -16.545  1.00  0.00     0.012 C
HETATM   26  C16 UNL     1     -27.649  16.036 -16.613  1.00  0.00     0.012 C
ENDBRANCH  23  24
BRANCH  23  27
HETATM   27  N3  UNL     1     -28.324  13.327 -15.561  1.00  0.00    -0.338 N
HETATM   28  C17 UNL     1     -27.420  12.805 -14.568  1.00  0.00     0.127 C
HETATM   29  C18 UNL     1     -27.367  13.690 -13.339  1.00  0.00     0.029 C
HETATM   30  C19 UNL     1     -28.757  14.021 -12.841  1.00  0.00    -0.038 C
HETATM   31  C20 UNL     1     -29.034  15.504 -12.797  1.00  0.00     0.015 C
HETATM   32  C21 UNL     1     -28.851  13.537 -11.392  1.00  0.00     0.015 C
HETATM   33  C22 UNL     1     -29.847  13.349 -13.606  1.00  0.00     0.111 C
HETATM   34  C23 UNL     1     -29.665  13.582 -15.062  1.00  0.00     0.221 C
HETATM   35  O4  UNL     1     -30.582  13.967 -15.813  1.00  0.00    -0.273 OA
ENDBRANCH  23  27
ENDBRANCH  20  23
ENDBRANCH   1  19
TORSDOF 9
ENDMDL