MODEL 5
REMARK VINA RESULT: -4.724106672      0.754      1.028
REMARK  9 active torsions:
REMARK  status: ('A' for Active; 'I' for Inactive)
REMARK    1  A    between atoms: C4_4  and  C5_5
REMARK    2  A    between atoms: C5_5  and  C6_6
REMARK       I    between atoms: C6_6  and  N1_8
REMARK    3  A    between atoms: N1_8  and  C7_10
REMARK    4  A    between atoms: C13_17  and  N3_18
REMARK    5  A    between atoms: N3_18  and  C15_20
REMARK    6  A    between atoms: C15_20  and  C16_21
REMARK    7  A    between atoms: C20_25  and  C21_26
REMARK       I    between atoms: C21_26  and  N4_28
REMARK    8  A    between atoms: N4_28  and  C22_30
REMARK    9  A    between atoms: C22_30  and  C24_32
ROOT
HETATM    1  C7  UNL     1     -24.443   8.756 -13.613  1.00  0.00     0.111 C
HETATM    2  C8  UNL     1     -23.525   8.832 -14.810  1.00  0.00     0.013 C
HETATM    3  C9  UNL     1     -23.897   7.580 -15.573  1.00  0.00     0.009 C
HETATM    4  C10 UNL     1     -25.349   7.315 -15.251  1.00  0.00     0.027 C
HETATM    5  C11 UNL     1     -25.746   8.442 -14.340  1.00  0.00     0.103 C
HETATM    6  N2  UNL     1     -26.190   9.588 -15.019  1.00  0.00    -0.387 N
HETATM    7  C12 UNL     1     -27.021  10.487 -14.278  1.00  0.00     0.154 C
HETATM    8  C13 UNL     1     -26.888  11.815 -14.913  1.00  0.00     0.242 C
HETATM    9  C19 UNL     1     -25.583  11.791 -15.598  1.00  0.00     0.078 C
HETATM   10  C20 UNL     1     -25.285  10.292 -15.853  1.00  0.00     0.112 C
HETATM   11  C27 UNL     1     -23.847  10.085 -15.576  1.00  0.00     0.047 C
ENDROOT
BRANCH   1  12
HETATM   12  N1  UNL     1     -24.028   7.637 -12.799  1.00  0.00    -0.354 N
HETATM   13  C6  UNL     1     -24.716   7.161 -11.656  1.00  0.00     0.221 C
HETATM   14  O1  UNL     1     -25.770   7.752 -11.317  1.00  0.00    -0.273 OA
ATOM     15  H1  UNL     1     -23.172   7.152 -13.069  1.00  0.00     0.163 HD
BRANCH  13  16
HETATM   16  C5  UNL     1     -24.199   5.997 -10.894  1.00  0.00     0.130 C
BRANCH  16  17
HETATM   17  C4  UNL     1     -23.018   6.280 -10.071  1.00  0.00    -0.016 C
HETATM   18  C2  UNL     1     -22.646   5.668  -8.977  1.00  0.00    -0.091 C
HETATM   19  C1  UNL     1     -21.415   6.093  -8.276  1.00  0.00     0.042 C
HETATM   20  C3  UNL     1     -23.434   4.552  -8.420  1.00  0.00     0.042 C
ENDBRANCH  16  17
ENDBRANCH  13  16
ENDBRANCH   1  12
BRANCH  10  21
HETATM   21  C21 UNL     1     -25.562  10.105 -17.301  1.00  0.00     0.246 C
HETATM   22  O2  UNL     1     -24.738   9.392 -17.966  1.00  0.00    -0.271 OA
HETATM   23  N4  UNL     1     -26.645  10.640 -18.008  1.00  0.00    -0.354 N
ATOM     24  H4  UNL     1     -27.322  11.214 -17.504  1.00  0.00     0.162 HD
BRANCH  23  25
HETATM   25  C22 UNL     1     -26.846  10.414 -19.426  1.00  0.00     0.083 C
HETATM   26  C23 UNL     1     -28.317  10.297 -19.753  1.00  0.00     0.032 C
BRANCH  25  27
HETATM   27  C24 UNL     1     -26.256  11.499 -20.283  1.00  0.00    -0.000 C
HETATM   28  C25 UNL     1     -26.024  12.734 -19.447  1.00  0.00     0.011 C
HETATM   29  C26 UNL     1     -24.941  11.048 -20.870  1.00  0.00     0.011 C
ENDBRANCH  25  27
ENDBRANCH  23  25
ENDBRANCH  10  21
BRANCH   8  30
HETATM   30  N3  UNL     1     -26.962  12.953 -13.986  1.00  0.00     0.090 N
HETATM   31  C14 UNL     1     -27.918  12.628 -12.940  1.00  0.00     0.310 C
BRANCH  30  32
HETATM   32  C15 UNL     1     -27.216  14.158 -14.691  1.00  0.00     0.276 C
BRANCH  32  33
HETATM   33  C16 UNL     1     -28.640  14.411 -15.003  1.00  0.00     0.006 C
HETATM   34  C17 UNL     1     -29.087  15.727 -14.324  1.00  0.00     0.011 C
HETATM   35  C18 UNL     1     -29.088  14.389 -16.411  1.00  0.00     0.011 C
ENDBRANCH  32  33
ENDBRANCH  30  32
ENDBRANCH   8  30
TORSDOF 9
ENDMDL