MODEL 5
REMARK VINA RESULT: -10.633477187      2.648     11.006
REMARK  9 active torsions:
REMARK  status: ('A' for Active; 'I' for Inactive)
REMARK    1  A    between atoms: C2_2  and  C4_4
REMARK    2  A    between atoms: C4_4  and  C5_5
REMARK    3  A    between atoms: C5_5  and  N1_6
REMARK    4  A    between atoms: C5_5  and  C19_25
REMARK       I    between atoms: N1_6  and  C6_8
REMARK    5  A    between atoms: C6_8  and  C7_10
REMARK    6  A    between atoms: C7_10  and  C8_11
REMARK    7  A    between atoms: C8_11  and  C9_12
REMARK       I    between atoms: C9_12  and  N2_14
REMARK    8  A    between atoms: N3_17  and  C12_18
REMARK       I    between atoms: C19_25  and  N4_27
REMARK    9  A    between atoms: N4_27  and  C20_29
ROOT
HETATM    1  N1  UNL     1     -25.076   6.796 -10.732  1.00  0.00    -0.348 N
ATOM      2  H1  UNL     1     -25.777   6.141 -11.079  1.00  0.00     0.163 HD
HETATM    3  C6  UNL     1     -24.459   7.625 -11.691  1.00  0.00     0.218 C
HETATM    4  O1  UNL     1     -23.608   8.456 -11.336  1.00  0.00    -0.274 OA
ENDROOT
BRANCH   1   5
HETATM    5  C5  UNL     1     -24.823   6.777  -9.329  1.00  0.00     0.177 C
BRANCH   5   6
HETATM    6  C4  UNL     1     -25.998   6.290  -8.530  1.00  0.00     0.038 C
BRANCH   6   7
HETATM    7  C2  UNL     1     -27.174   5.862  -9.357  1.00  0.00    -0.020 C
HETATM    8  C1  UNL     1     -28.264   6.881  -9.464  1.00  0.00     0.009 C
HETATM    9  C3  UNL     1     -27.711   4.569  -8.768  1.00  0.00     0.009 C
ENDBRANCH   6   7
ENDBRANCH   5   6
BRANCH   5  10
HETATM   10  C19 UNL     1     -23.699   5.806  -9.073  1.00  0.00     0.241 C
HETATM   11  O3  UNL     1     -23.258   5.175 -10.071  1.00  0.00    -0.271 OA
HETATM   12  N4  UNL     1     -23.160   5.612  -7.761  1.00  0.00    -0.351 N
ATOM     13  H4  UNL     1     -23.517   6.126  -6.956  1.00  0.00     0.163 HD
BRANCH  12  14
HETATM   14  C20 UNL     1     -22.102   4.669  -7.629  1.00  0.00     0.117 C
HETATM   15  C21 UNL     1     -22.601   3.519  -6.761  1.00  0.00    -0.005 C
HETATM   16  C22 UNL     1     -21.845   2.304  -6.586  1.00  0.00    -0.028 C
HETATM   17  C23 UNL     1     -20.834   2.109  -5.466  1.00  0.00     0.038 C
HETATM   18  C24 UNL     1     -19.721   3.211  -5.486  1.00  0.00     0.083 C
HETATM   19  C25 UNL     1     -20.212   4.265  -6.257  1.00  0.00    -0.180 C
HETATM   20  C26 UNL     1     -20.794   5.272  -7.058  1.00  0.00     0.109 C
ENDBRANCH  12  14
ENDBRANCH   5  10
ENDBRANCH   1   5
BRANCH   3  21
HETATM   21  C7  UNL     1     -24.818   7.500 -13.126  1.00  0.00     0.112 C
BRANCH  21  22
HETATM   22  C8  UNL     1     -24.834   8.856 -13.761  1.00  0.00     0.112 C
BRANCH  22  23
HETATM   23  C9  UNL     1     -25.018   8.734 -15.226  1.00  0.00     0.220 C
HETATM   24  O2  UNL     1     -24.681   7.740 -15.903  1.00  0.00    -0.273 OA
HETATM   25  N2  UNL     1     -25.629   9.833 -15.956  1.00  0.00    -0.343 N
HETATM   26  C10 UNL     1     -26.058  10.970 -15.190  1.00  0.00     0.170 C
HETATM   27  C18 UNL     1     -25.780   9.759 -17.370  1.00  0.00     0.170 C
HETATM   28  C11 UNL     1     -25.766  12.232 -15.936  1.00  0.00     0.083 C
HETATM   29  N3  UNL     1     -26.209  12.171 -17.272  1.00  0.00    -0.366 N
HETATM   30  C17 UNL     1     -25.763  11.103 -18.055  1.00  0.00     0.083 C
BRANCH  29  31
HETATM   31  C12 UNL     1     -27.482  12.743 -17.500  1.00  0.00     0.088 C
HETATM   32  C13 UNL     1     -27.614  13.791 -18.528  1.00  0.00     0.026 C
HETATM   33  C14 UNL     1     -28.970  14.402 -18.270  1.00  0.00     0.002 C
HETATM   34  C15 UNL     1     -29.452  13.868 -16.939  1.00  0.00     0.002 C
HETATM   35  C16 UNL     1     -28.174  13.305 -16.290  1.00  0.00     0.026 C
ENDBRANCH  29  31
ENDBRANCH  22  23
ENDBRANCH  21  22
ENDBRANCH   3  21
TORSDOF 9
ENDMDL