MODEL 5
REMARK VINA RESULT: -7.832793526      4.546      8.985
REMARK  9 active torsions:
REMARK  status: ('A' for Active; 'I' for Inactive)
REMARK    1  A    between atoms: C2_2  and  N1_3
REMARK       I    between atoms: N1_3  and  C3_5
REMARK    2  A    between atoms: C3_5  and  C4_7
REMARK    3  A    between atoms: C4_7  and  C5_8
REMARK    4  A    between atoms: C7_10  and  C8_11
REMARK       I    between atoms: N2_14  and  C11_15
REMARK    5  A    between atoms: C11_15  and  C12_17
REMARK    6  A    between atoms: C12_17  and  N3_19
REMARK    7  A    between atoms: N3_19  and  C14_21
REMARK    8  A    between atoms: C14_21  and  C16_23
REMARK    9  A    between atoms: C16_23  and  C17_24
ROOT
HETATM    1  C5  UNL     1     -23.697   5.252  -9.012  1.00  0.00     0.089 C
HETATM    2  C6  UNL     1     -24.935   5.861  -8.384  1.00  0.00     0.041 C
HETATM    3  C7  UNL     1     -25.782   5.948  -9.670  1.00  0.00     0.100 C
HETATM    4  N2  UNL     1     -24.875   6.603 -10.561  1.00  0.00    -0.281 N
HETATM    5  C11 UNL     1     -25.160   7.496 -11.653  1.00  0.00     0.249 C
HETATM    6  O2  UNL     1     -26.382   7.677 -11.824  1.00  0.00    -0.271 OA
HETATM    7  C27 UNL     1     -23.570   6.186 -10.211  1.00  0.00     0.231 C
HETATM    8  O3  UNL     1     -22.432   6.422 -10.669  1.00  0.00    -0.273 OA
ENDROOT
BRANCH   5   9
HETATM    9  C12 UNL     1     -24.188   8.141 -12.495  1.00  0.00     0.170 C
HETATM   10  C13 UNL     1     -23.384   9.135 -11.578  1.00  0.00     0.042 C
BRANCH   9  11
HETATM   11  N3  UNL     1     -24.478   8.754 -13.708  1.00  0.00    -0.384 N
ATOM     12  H3  UNL     1     -24.323   9.762 -13.713  1.00  0.00     0.160 HD
BRANCH  11  13
HETATM   13  C14 UNL     1     -24.935   8.250 -14.900  1.00  0.00    -0.021 C
HETATM   14  C15 UNL     1     -25.154   6.775 -15.097  1.00  0.00     0.062 C
BRANCH  13  15
HETATM   15  C16 UNL     1     -24.462   8.929 -16.155  1.00  0.00     0.061 C
BRANCH  15  16
HETATM   16  C17 UNL     1     -25.307   9.867 -16.883  1.00  0.00    -0.035 C
HETATM   17  C18 UNL     1     -24.988  10.219 -18.279  1.00  0.00     0.014 C
HETATM   18  C19 UNL     1     -25.983  11.291 -18.757  1.00  0.00    -0.013 C
HETATM   19  C20 UNL     1     -25.891  12.558 -17.976  1.00  0.00     0.009 C
HETATM   20  C24 UNL     1     -27.395  10.766 -18.669  1.00  0.00     0.009 C
HETATM   21  C21 UNL     1     -26.184  12.209 -16.532  1.00  0.00    -0.013 C
HETATM   22  C22 UNL     1     -27.586  11.719 -16.366  1.00  0.00     0.009 C
HETATM   23  C26 UNL     1     -25.225  11.177 -16.066  1.00  0.00     0.014 C
HETATM   24  C23 UNL     1     -27.737  10.480 -17.228  1.00  0.00    -0.013 C
HETATM   25  C25 UNL     1     -26.772   9.427 -16.725  1.00  0.00     0.014 C
ENDBRANCH  15  16
ENDBRANCH  13  15
ENDBRANCH  11  13
ENDBRANCH   9  11
ENDBRANCH   5   9
BRANCH   3  26
HETATM   26  C8  UNL     1     -27.105   6.528  -9.427  1.00  0.00     0.001 C
HETATM   27  C9  UNL     1     -28.059   5.322  -9.246  1.00  0.00     0.011 C
HETATM   28  C10 UNL     1     -27.236   7.338  -8.174  1.00  0.00     0.011 C
ENDBRANCH   3  26
BRANCH   1  29
HETATM   29  C4  UNL     1     -22.496   5.189  -8.175  1.00  0.00     0.117 C
BRANCH  29  30
HETATM   30  C3  UNL     1     -22.316   4.024  -7.313  1.00  0.00     0.218 C
HETATM   31  N1  UNL     1     -21.121   3.792  -6.560  1.00  0.00    -0.361 N
ATOM     32  H1  UNL     1     -20.365   4.474  -6.634  1.00  0.00     0.162 HD
HETATM   33  O1  UNL     1     -23.215   3.150  -7.186  1.00  0.00    -0.274 OA
BRANCH  31  34
HETATM   34  C2  UNL     1     -20.928   2.659  -5.710  1.00  0.00     0.118 C
HETATM   35  C1  UNL     1     -19.475   2.354  -5.405  1.00  0.00     0.026 C
ENDBRANCH  31  34
ENDBRANCH  29  30
ENDBRANCH   1  29
TORSDOF 9
ENDMDL