MODEL 5
REMARK VINA RESULT: -7.837619373      1.286      1.831
REMARK  9 active torsions:
REMARK  status: ('A' for Active; 'I' for Inactive)
REMARK    1  A    between atoms: C2_2  and  C3_3
REMARK    2  A    between atoms: C3_3  and  C4_4
REMARK    3  A    between atoms: C7_7  and  C8_8
REMARK    4  A    between atoms: C7_7  and  N3_24
REMARK    5  A    between atoms: C8_8  and  N1_9
REMARK       I    between atoms: N1_9  and  C9_11
REMARK    6  A    between atoms: C9_11  and  C10_13
REMARK    7  A    between atoms: C10_13  and  N2_14
REMARK       I    between atoms: N2_14  and  C12_16
REMARK    8  A    between atoms: C12_16  and  C13_18
REMARK    9  A    between atoms: C21_27  and  C22_28
ROOT
HETATM    1  C4  UNL     1     -26.040  10.514 -18.783  1.00  0.00    -0.011 C
HETATM    2  C5  UNL     1     -26.732   9.754 -17.719  1.00  0.00     0.007 C
HETATM    3  C6  UNL     1     -27.492  10.583 -16.715  1.00  0.00     0.037 C
HETATM    4  C7  UNL     1     -26.628  11.718 -16.145  1.00  0.00     0.060 C
HETATM    5  C25 UNL     1     -26.174  12.536 -17.313  1.00  0.00     0.037 C
HETATM    6  C26 UNL     1     -25.343  11.760 -18.293  1.00  0.00     0.007 C
ENDROOT
BRANCH   4   7
HETATM    7  C8  UNL     1     -25.500  11.235 -15.308  1.00  0.00     0.094 C
BRANCH   7   8
HETATM    8  N1  UNL     1     -25.472   9.902 -14.875  1.00  0.00    -0.337 N
HETATM    9  C9  UNL     1     -24.723   8.786 -15.214  1.00  0.00     0.239 C
HETATM   10  O1  UNL     1     -23.808   8.663 -16.056  1.00  0.00    -0.271 OA
ATOM     11  H1  UNL     1     -26.157   9.710 -14.144  1.00  0.00     0.168 HD
BRANCH   9  12
HETATM   12  C10 UNL     1     -24.970   7.440 -14.510  1.00  0.00     0.228 C
BRANCH  12  13
HETATM   13  N2  UNL     1     -24.640   7.520 -13.115  1.00  0.00    -0.347 N
HETATM   14  C11 UNL     1     -24.271   8.837 -12.599  1.00  0.00     0.153 C
HETATM   15  C12 UNL     1     -24.674   6.376 -12.272  1.00  0.00     0.224 C
HETATM   16  O2  UNL     1     -25.017   5.275 -12.806  1.00  0.00    -0.273 OA
BRANCH  15  17
HETATM   17  C13 UNL     1     -24.343   6.386 -10.844  1.00  0.00     0.078 C
HETATM   18  C14 UNL     1     -25.594   6.130 -10.014  1.00  0.00     0.014 C
HETATM   19  C15 UNL     1     -25.214   6.304  -8.547  1.00  0.00     0.001 C
HETATM   20  C16 UNL     1     -24.109   5.374  -8.134  1.00  0.00     0.000 C
HETATM   21  C17 UNL     1     -22.896   5.611  -9.040  1.00  0.00     0.001 C
HETATM   22  C18 UNL     1     -23.367   5.283 -10.446  1.00  0.00     0.014 C
ENDBRANCH  15  17
ENDBRANCH  12  13
ENDBRANCH   9  12
ENDBRANCH   7   8
ENDBRANCH   4   7
BRANCH   4  23
HETATM   23  N3  UNL     1     -27.549  12.506 -15.355  1.00  0.00    -0.399 N
HETATM   24  C19 UNL     1     -27.805  13.829 -15.861  1.00  0.00     0.119 C
HETATM   25  C20 UNL     1     -27.266  14.906 -14.940  1.00  0.00     0.033 C
HETATM   26  C21 UNL     1     -27.853  14.793 -13.558  1.00  0.00     0.078 C
HETATM   27  C23 UNL     1     -28.358  13.398 -13.312  1.00  0.00     0.033 C
HETATM   28  C24 UNL     1     -27.345  12.443 -13.955  1.00  0.00     0.119 C
BRANCH  26  29
HETATM   29  C22 UNL     1     -28.919  15.806 -13.438  1.00  0.00     0.235 C
HETATM   30  N4  UNL     1     -30.027  15.738 -14.312  1.00  0.00    -0.062 NA
HETATM   31  O3  UNL     1     -28.841  16.708 -12.575  1.00  0.00    -0.277 OA
ENDBRANCH  26  29
ENDBRANCH   4  23
BRANCH   1  32
HETATM   32  C3  UNL     1     -26.899  10.819 -19.988  1.00  0.00     0.031 C
BRANCH  32  33
HETATM   33  C2  UNL     1     -26.147  10.793 -21.266  1.00  0.00    -0.037 C
HETATM   34  C1  UNL     1     -24.815  10.757 -21.283  1.00  0.00     0.007 C
ENDBRANCH  32  33
ENDBRANCH   1  32
TORSDOF 9
ENDMDL