MODEL 3
REMARK VINA RESULT: -7.052269687      6.582     11.133
REMARK  10 active torsions:
REMARK  status: ('A' for Active; 'I' for Inactive)
REMARK    1  A    between atoms: C1_2  and  C2_3
REMARK       I    between atoms: C1_2  and  N1_10
REMARK    2  A    between atoms: C2_3  and  C3_4
REMARK    3  A    between atoms: C4_5  and  C5_6
REMARK    4  A    between atoms: C5_6  and  C6_7
REMARK    5  A    between atoms: C6_7  and  O2_8
REMARK    6  A    between atoms: N1_10  and  C7_12
REMARK    7  A    between atoms: C7_12  and  C8_13
REMARK    8  A    between atoms: C7_12  and  C12_18
REMARK    9  A    between atoms: C8_13  and  C9_15
REMARK       I    between atoms: N2_24  and  C18_25
REMARK   10  A    between atoms: C18_25  and  C19_27
ROOT
HETATM    1  C12 UNL     1     -26.306  12.339 -17.944  1.00  0.00     0.121 C
HETATM    2  C13 UNL     1     -26.935  12.652 -19.289  1.00  0.00     0.013 C
HETATM    3  C14 UNL     1     -27.277  14.135 -19.256  1.00  0.00     0.009 C
HETATM    4  C15 UNL     1     -28.548  14.241 -18.418  1.00  0.00     0.026 C
HETATM    5  C16 UNL     1     -28.524  12.885 -17.728  1.00  0.00     0.088 C
HETATM    6  C17 UNL     1     -28.296  12.053 -19.009  1.00  0.00     0.032 C
HETATM    7  N2  UNL     1     -27.294  12.821 -17.005  1.00  0.00    -0.339 N
HETATM    8  C18 UNL     1     -27.022  13.198 -15.667  1.00  0.00     0.229 C
HETATM    9  O4  UNL     1     -25.809  13.172 -15.221  1.00  0.00    -0.272 OA
ENDROOT
BRANCH   1  10
HETATM   10  C7  UNL     1     -25.961  10.879 -17.870  1.00  0.00     0.177 C
BRANCH  10  11
HETATM   11  N1  UNL     1     -25.051  10.626 -16.745  1.00  0.00    -0.347 N
HETATM   12  C1  UNL     1     -25.229   9.426 -16.012  1.00  0.00     0.221 C
HETATM   13  O1  UNL     1     -26.147   8.639 -16.350  1.00  0.00    -0.273 OA
ATOM     14  H1  UNL     1     -24.317  11.290 -16.501  1.00  0.00     0.163 HD
BRANCH  12  15
HETATM   15  C2  UNL     1     -24.355   9.076 -14.849  1.00  0.00     0.129 C
BRANCH  15  16
HETATM   16  C3  UNL     1     -24.871   7.842 -14.202  1.00  0.00    -0.022 C
HETATM   17  C4  UNL     1     -24.063   6.828 -13.881  1.00  0.00    -0.028 C
BRANCH  17  18
HETATM   18  C5  UNL     1     -24.533   5.591 -13.240  1.00  0.00     0.053 C
BRANCH  18  19
HETATM   19  C6  UNL     1     -24.202   5.605 -11.751  1.00  0.00     0.168 C
BRANCH  19  20
HETATM   20  O2  UNL     1     -25.373   5.601 -11.013  1.00  0.00    -0.401 OA
ATOM     21  H2  UNL     1     -25.470   6.433 -10.564  1.00  0.00     0.209 HD
ENDBRANCH  19  20
ENDBRANCH  18  19
ENDBRANCH  17  18
ENDBRANCH  15  16
ENDBRANCH  12  15
ENDBRANCH  10  11
BRANCH  10  22
HETATM   22  C8  UNL     1     -25.131  10.545 -19.072  1.00  0.00     0.155 C
HETATM   23  O3  UNL     1     -24.323   9.603 -18.894  1.00  0.00    -0.295 OA
BRANCH  22  24
HETATM   24  C9  UNL     1     -25.152  11.159 -20.389  1.00  0.00     0.058 A
HETATM   25  C10 UNL     1     -24.260  10.582 -21.464  1.00  0.00     0.013 A
HETATM   26  C11 UNL     1     -25.751  10.552 -21.601  1.00  0.00     0.013 A
ENDBRANCH  22  24
ENDBRANCH  10  22
ENDBRANCH   1  10
BRANCH   8  27
HETATM   27  C19 UNL     1     -27.933  13.649 -14.619  1.00  0.00     0.042 C
HETATM   28  C20 UNL     1     -29.316  13.105 -14.926  1.00  0.00     0.024 C
HETATM   29  C21 UNL     1     -30.358  13.597 -13.946  1.00  0.00    -0.013 C
HETATM   30  C22 UNL     1     -30.462  15.094 -14.105  1.00  0.00     0.009 C
HETATM   31  C26 UNL     1     -29.970  13.239 -12.536  1.00  0.00     0.009 C
HETATM   32  C23 UNL     1     -29.120  15.712 -13.837  1.00  0.00    -0.013 C
HETATM   33  C24 UNL     1     -28.693  15.385 -12.411  1.00  0.00     0.009 C
HETATM   34  C28 UNL     1     -28.041  15.169 -14.721  1.00  0.00     0.024 C
HETATM   35  C25 UNL     1     -28.618  13.906 -12.280  1.00  0.00    -0.013 C
HETATM   36  C27 UNL     1     -27.628  13.238 -13.218  1.00  0.00     0.024 C
ENDBRANCH   8  27
TORSDOF 10
ENDMDL