MODEL 5
REMARK VINA RESULT: -7.361820209      2.394      3.296
REMARK  6 active torsions:
REMARK  status: ('A' for Active; 'I' for Inactive)
REMARK    1  A    between atoms: C3_7  and  N3_8
REMARK    2  A    between atoms: N3_8  and  N4_10
REMARK       I    between atoms: N4_10  and  C4_12
REMARK       I    between atoms: C4_12  and  N5_14
REMARK       I    between atoms: N5_14  and  C5_16
REMARK    3  A    between atoms: C5_16  and  C6_18
REMARK    4  A    between atoms: C6_18  and  N6_19
REMARK    5  A    between atoms: C6_18  and  C7_23
REMARK       I    between atoms: C7_23  and  N7_25
REMARK    6  A    between atoms: N7_25  and  N8_27
ROOT
HETATM    1  N4  UNL     1      20.185   5.085  -1.512  1.00  0.00    -0.237 N
ATOM      2  H4  UNL     1      19.936   4.257  -2.052  1.00  0.00     0.192 HD
HETATM    3  C4  UNL     1      21.410   5.716  -1.744  1.00  0.00     0.341 C
HETATM    4  O2  UNL     1      21.652   6.755  -1.023  1.00  0.00    -0.245 OA
HETATM    5  N5  UNL     1      22.365   5.298  -2.690  1.00  0.00    -0.276 N
ATOM      6  H5  UNL     1      23.214   5.863  -2.743  1.00  0.00     0.173 HD
HETATM    7  C5  UNL     1      22.305   4.209  -3.566  1.00  0.00     0.265 C
HETATM    8  O3  UNL     1      21.353   3.393  -3.666  1.00  0.00    -0.270 OA
ENDROOT
BRANCH   1   9
HETATM    9  N3  UNL     1      19.304   5.571  -0.557  1.00  0.00    -0.128 N
ATOM     10  H3  UNL     1      19.606   5.577   0.417  1.00  0.00     0.205 HD
BRANCH   9  11
HETATM   11  C3  UNL     1      18.127   6.014  -0.828  1.00  0.00     0.705 A
HETATM   12  N2  UNL     1      17.874   7.331  -0.750  1.00  0.00    -0.139 N
HETATM   13  C2  UNL     1      16.644   7.838  -1.029  1.00  0.00     0.344 A
ATOM     14  H2  UNL     1      18.623   7.966  -0.476  1.00  0.00     0.189 HD
HETATM   15  N1  UNL     1      15.630   7.036  -1.394  1.00  0.00    -0.255 N
HETATM   16  O1  UNL     1      16.417   9.078  -0.952  1.00  0.00    -0.246 OA
HETATM   17  C1  UNL     1      14.301   7.566  -1.696  1.00  0.00     0.166 C
HETATM   18  C8  UNL     1      15.884   5.717  -1.471  1.00  0.00     0.344 A
HETATM   19  N9  UNL     1      17.116   5.207  -1.193  1.00  0.00    -0.139 N
HETATM   20  O5  UNL     1      14.954   4.934  -1.812  1.00  0.00    -0.246 OA
ATOM     21  H9  UNL     1      17.272   4.202  -1.261  1.00  0.00     0.189 HD
ENDBRANCH   9  11
ENDBRANCH   1   9
BRANCH   7  22
HETATM   22  C6  UNL     1      23.463   3.943  -4.499  1.00  0.00     0.367 C
BRANCH  22  23
HETATM   23  N6  UNL     1      23.257   2.645  -5.126  1.00  0.00    -0.058 N
ATOM     24  H63 UNL     1      23.037   1.913  -4.451  1.00  0.00     0.275 HD
ATOM     25  H62 UNL     1      22.391   2.601  -5.664  1.00  0.00     0.275 HD
ATOM     26  H61 UNL     1      24.079   2.426  -5.688  1.00  0.00     0.275 HD
ENDBRANCH  22  23
BRANCH  22  27
HETATM   27  C7  UNL     1      24.760   3.979  -3.817  1.00  0.00     0.275 C
HETATM   28  O4  UNL     1      25.395   5.052  -3.734  1.00  0.00    -0.269 OA
HETATM   29  N7  UNL     1      25.303   2.799  -3.247  1.00  0.00    -0.274 N
ATOM     30  H7  UNL     1      24.786   1.921  -3.313  1.00  0.00     0.189 HD
BRANCH  29  31
HETATM   31  N8  UNL     1      26.522   2.828  -2.604  1.00  0.00    -0.343 N
ATOM     32  H82 UNL     1      26.544   2.732  -1.589  1.00  0.00     0.176 HD
ATOM     33  H81 UNL     1      27.385   2.942  -3.136  1.00  0.00     0.176 HD
ENDBRANCH  29  31
ENDBRANCH  22  27
ENDBRANCH   7  22
TORSDOF 6
ENDMDL