MODEL 3
REMARK VINA RESULT: -6.673260310      3.282      5.881
REMARK  4 active torsions:
REMARK  status: ('A' for Active; 'I' for Inactive)
REMARK    1  A    between atoms: N1_1  and  N2_4
REMARK       I    between atoms: N2_4  and  C1_6
REMARK       I    between atoms: C1_6  and  N3_8
REMARK    2  A    between atoms: N3_8  and  C2_10
REMARK    3  A    between atoms: C2_10  and  C3_11
REMARK    4  A    between atoms: C3_11  and  N4_12
ROOT
HETATM    1  C2  UNL     1      20.041   2.776  -4.120  1.00  0.00     0.210 C
HETATM    2  N6  UNL     1      20.119   1.416  -4.698  1.00  0.00    -0.307 N
ATOM      3  H6  UNL     1      20.421   0.564  -4.226  1.00  0.00     0.167 HD
HETATM    4  C8  UNL     1      19.687   1.542  -6.047  1.00  0.00     0.312 C
HETATM    5  O4  UNL     1      19.973   0.843  -7.045  1.00  0.00    -0.262 OA
HETATM    6  C9  UNL     1      18.795   2.708  -6.041  1.00  0.00     0.312 C
HETATM    7  O5  UNL     1      18.170   3.212  -7.000  1.00  0.00    -0.262 OA
HETATM    8  N7  UNL     1      18.765   3.181  -4.701  1.00  0.00    -0.307 N
ATOM      9  H7  UNL     1      18.012   3.695  -4.242  1.00  0.00     0.167 HD
ENDROOT
BRANCH   1  10
HETATM   10  N3  UNL     1      19.973   2.581  -2.718  1.00  0.00    -0.296 N
HETATM   11  C1  UNL     1      18.899   1.838  -2.098  1.00  0.00     0.337 C
HETATM   12  N2  UNL     1      18.827   1.641  -0.700  1.00  0.00    -0.258 N
HETATM   13  O1  UNL     1      18.029   1.374  -2.867  1.00  0.00    -0.245 OA
ATOM     14  H2  UNL     1      19.569   2.046  -0.129  1.00  0.00     0.191 HD
ATOM     15  H3  UNL     1      20.704   2.978  -2.127  1.00  0.00     0.168 HD
BRANCH  12  16
HETATM   16  N1  UNL     1      17.835   0.947  -0.052  1.00  0.00    -0.341 N
ATOM     17  H12 UNL     1      17.853   0.976   0.967  1.00  0.00     0.177 HD
ATOM     18  H11 UNL     1      17.096   0.415  -0.511  1.00  0.00     0.177 HD
ENDBRANCH  12  16
ENDBRANCH   1  10
BRANCH   1  19
HETATM   19  C3  UNL     1      21.186   3.529  -4.613  1.00  0.00     0.211 C
BRANCH  19  20
HETATM   20  N4  UNL     1      22.443   3.466  -3.966  1.00  0.00    -0.304 N
HETATM   21  C4  UNL     1      22.853   4.394  -3.060  1.00  0.00     0.101 A
HETATM   22  C5  UNL     1      24.046   4.290  -2.427  1.00  0.00     0.092 A
HETATM   23  C6  UNL     1      24.904   3.237  -2.670  1.00  0.00     0.250 A
HETATM   24  O2  UNL     1      26.009   3.157  -2.071  1.00  0.00    -0.268 OA
HETATM   25  N5  UNL     1      24.480   2.337  -3.565  1.00  0.00    -0.275 N
HETATM   26  C7  UNL     1      23.276   2.447  -4.201  1.00  0.00     0.329 A
ATOM     27  H5  UNL     1      25.078   1.539  -3.780  1.00  0.00     0.173 HD
HETATM   28  O3  UNL     1      23.050   1.509  -5.015  1.00  0.00    -0.246 OA
ENDBRANCH  19  20
ENDBRANCH   1  19
TORSDOF 4
ENDMDL