MODEL 4
REMARK VINA RESULT: -7.583807407      1.454      1.485
REMARK  6 active torsions:
REMARK  status: ('A' for Active; 'I' for Inactive)
REMARK    1  A    between atoms: N1_1  and  N2_4
REMARK       I    between atoms: N2_4  and  C1_6
REMARK    2  A    between atoms: C1_6  and  C2_8
REMARK    3  A    between atoms: C2_8  and  N7_27
REMARK    4  A    between atoms: N3_9  and  N4_11
REMARK       I    between atoms: N4_11  and  C3_13
REMARK    5  A    between atoms: C3_13  and  C4_15
REMARK    6  A    between atoms: C7_24  and  C8_25
REMARK       I    between atoms: N7_27  and  C9_29
ROOT
HETATM    1  N4  UNL     1      21.098   5.073  -3.309  1.00  0.00    -0.263 N
ATOM      2  H4  UNL     1      20.720   4.976  -4.251  1.00  0.00     0.190 HD
HETATM    3  C3  UNL     1      20.288   5.583  -2.272  1.00  0.00     0.287 C
HETATM    4  O2  UNL     1      20.799   5.688  -1.104  1.00  0.00    -0.264 OA
ENDROOT
BRANCH   1   5
HETATM    5  N3  UNL     1      22.408   4.705  -3.045  1.00  0.00    -0.278 N
HETATM    6  C2  UNL     1      23.343   4.640  -3.986  1.00  0.00     0.194 C
ATOM      7  H3  UNL     1      22.666   4.473  -2.085  1.00  0.00     0.189 HD
BRANCH   6   8
HETATM    8  C1  UNL     1      24.638   4.245  -3.549  1.00  0.00     0.305 C
HETATM    9  N2  UNL     1      24.727   3.019  -2.791  1.00  0.00    -0.270 N
ATOM     10  H2  UNL     1      23.895   2.467  -2.582  1.00  0.00     0.189 HD
HETATM   11  O1  UNL     1      25.690   4.880  -3.775  1.00  0.00    -0.263 OA
BRANCH   9  12
HETATM   12  N1  UNL     1      25.980   2.618  -2.356  1.00  0.00    -0.342 N
ATOM     13  H12 UNL     1      26.746   3.290  -2.310  1.00  0.00     0.176 HD
ATOM     14  H11 UNL     1      26.101   1.640  -2.091  1.00  0.00     0.176 HD
ENDBRANCH   9  12
ENDBRANCH   6   8
BRANCH   6  15
HETATM   15  N7  UNL     1      22.925   4.967  -5.265  1.00  0.00    -0.291 N
HETATM   16  C9  UNL     1      22.819   4.233  -6.440  1.00  0.00     0.334 C
HETATM   17  N8  UNL     1      22.327   4.929  -7.625  1.00  0.00    -0.040 NA
HETATM   18  O6  UNL     1      23.113   3.035  -6.547  1.00  0.00    -0.251 OA
ATOM     19  H7  UNL     1      22.638   5.941  -5.364  1.00  0.00     0.172 HD
ENDBRANCH   6  15
ENDBRANCH   1   5
BRANCH   3  20
HETATM   20  C4  UNL     1      18.899   5.997  -2.450  1.00  0.00     0.125 A
HETATM   21  N5  UNL     1      18.432   7.180  -2.046  1.00  0.00    -0.303 N
HETATM   22  C5  UNL     1      17.158   7.594  -2.197  1.00  0.00     0.327 A
ATOM     23  H5  UNL     1      19.085   7.817  -1.591  1.00  0.00     0.171 HD
HETATM   24  O3  UNL     1      16.797   8.739  -1.783  1.00  0.00    -0.247 OA
HETATM   25  N6  UNL     1      16.274   6.779  -2.794  1.00  0.00    -0.275 N
HETATM   26  C6  UNL     1      16.693   5.583  -3.216  1.00  0.00     0.265 A
ATOM     27  H6  UNL     1      15.303   7.067  -2.922  1.00  0.00     0.173 HD
HETATM   28  O4  UNL     1      15.891   4.809  -3.771  1.00  0.00    -0.267 OA
HETATM   29  C7  UNL     1      18.004   5.147  -3.063  1.00  0.00     0.102 A
BRANCH  29  30
HETATM   30  C8  UNL     1      18.380   3.817  -3.550  1.00  0.00     0.278 C
HETATM   31  O5  UNL     1      18.808   3.628  -4.735  1.00  0.00    -0.301 OA
ENDBRANCH  29  30
ENDBRANCH   3  20
TORSDOF 6
ENDMDL