MODEL 3
REMARK VINA RESULT: -7.135883731      2.291      2.909
REMARK  6 active torsions:
REMARK  status: ('A' for Active; 'I' for Inactive)
REMARK    1  A    between atoms: N1_1  and  N2_4
REMARK       I    between atoms: N2_4  and  C1_6
REMARK    2  A    between atoms: C1_6  and  C2_8
REMARK    3  A    between atoms: N3_9  and  N4_11
REMARK       I    between atoms: N4_11  and  C3_13
REMARK       I    between atoms: C3_13  and  N5_15
REMARK    4  A    between atoms: N5_15  and  N6_17
REMARK    5  A    between atoms: N6_17  and  C4_19
REMARK    6  A    between atoms: C4_19  and  C5_20
ROOT
HETATM    1  N4  UNL     1      21.803   2.298  -4.614  1.00  0.00    -0.251 N
ATOM      2  H4  UNL     1      22.029   1.466  -4.070  1.00  0.00     0.191 HD
HETATM    3  C3  UNL     1      20.924   3.278  -4.091  1.00  0.00     0.353 C
HETATM    4  O2  UNL     1      20.667   4.286  -4.770  1.00  0.00    -0.244 OA
HETATM    5  N5  UNL     1      20.350   3.109  -2.823  1.00  0.00    -0.254 N
ATOM      6  H5  UNL     1      20.627   2.256  -2.338  1.00  0.00     0.191 HD
ENDROOT
BRANCH   5   7
HETATM    7  N6  UNL     1      19.483   3.900  -2.136  1.00  0.00    -0.328 N
ATOM      8  H6  UNL     1      19.067   3.576  -1.264  1.00  0.00     0.180 HD
BRANCH   7   9
HETATM    9  C4  UNL     1      19.165   5.183  -2.651  1.00  0.00     0.183 C
BRANCH   9  10
HETATM   10  C5  UNL     1      19.472   6.268  -1.650  1.00  0.00     0.031 A
HETATM   11  C6  UNL     1      18.516   7.041  -1.057  1.00  0.00     0.046 A
HETATM   12  C7  UNL     1      18.815   8.040  -0.164  1.00  0.00     0.064 A
HETATM   13  C8  UNL     1      20.165   8.271   0.148  1.00  0.00     0.103 A
HETATM   14  N9  UNL     1      18.482   8.994   0.636  1.00  0.00    -0.341 N
HETATM   15  N7  UNL     1      21.100   7.502  -0.443  1.00  0.00    -0.318 N
HETATM   16  C10 UNL     1      19.831   9.252   0.971  1.00  0.00     0.146 A
HETATM   17  C9  UNL     1      20.781   6.518  -1.324  1.00  0.00     0.254 A
ATOM     18  H7  UNL     1      22.082   7.665  -0.222  1.00  0.00     0.169 HD
HETATM   19  O3  UNL     1      21.699   5.849  -1.829  1.00  0.00    -0.268 OA
HETATM   20  N8  UNL     1      20.485  10.166   1.817  1.00  0.00    -0.080 NA
ATOM     21  H9  UNL     1      17.591   9.404   0.917  1.00  0.00     0.167 HD
ENDBRANCH   9  10
ENDBRANCH   7   9
ENDBRANCH   5   7
BRANCH   1  22
HETATM   22  N3  UNL     1      22.348   2.481  -5.866  1.00  0.00    -0.302 N
HETATM   23  C2  UNL     1      23.404   3.142  -6.144  1.00  0.00     0.182 C
ATOM     24  H3  UNL     1      21.860   2.046  -6.649  1.00  0.00     0.186 HD
BRANCH  23  25
HETATM   25  C1  UNL     1      24.238   3.832  -5.189  1.00  0.00     0.276 C
HETATM   26  N2  UNL     1      23.855   5.103  -4.701  1.00  0.00    -0.272 N
ATOM     27  H2  UNL     1      22.988   5.531  -5.025  1.00  0.00     0.189 HD
HETATM   28  O1  UNL     1      25.300   3.327  -4.780  1.00  0.00    -0.265 OA
BRANCH  26  29
HETATM   29  N1  UNL     1      24.659   5.776  -3.777  1.00  0.00    -0.342 N
ATOM     30  H12 UNL     1      24.590   6.791  -3.713  1.00  0.00     0.176 HD
ATOM     31  H11 UNL     1      25.302   5.256  -3.178  1.00  0.00     0.176 HD
ENDBRANCH  26  29
ENDBRANCH  23  25
ENDBRANCH   1  22
TORSDOF 6
ENDMDL