MODEL 3
REMARK VINA RESULT: -6.097080553      1.638      4.823
REMARK  6 active torsions:
REMARK  status: ('A' for Active; 'I' for Inactive)
REMARK    1  A    between atoms: N2_4  and  O1_5
REMARK    2  A    between atoms: N2_4  and  N3_7
REMARK       I    between atoms: N3_7  and  C1_9
REMARK    3  A    between atoms: N5_11  and  C2_13
REMARK    4  A    between atoms: C2_13  and  C3_14
REMARK    5  A    between atoms: C2_13  and  C4_17
REMARK    6  A    between atoms: C2_13  and  C5_20
ROOT
HETATM    1  C2  UNL     1      22.016   2.725  -4.345  1.00  0.00     0.221 C
ENDROOT
BRANCH   1   2
HETATM    2  N5  UNL     1      21.441   3.588  -3.446  1.00  0.00    -0.336 N
HETATM    3  C1  UNL     1      20.476   4.268  -3.147  1.00  0.00     0.207 C
HETATM    4  N3  UNL     1      20.580   5.004  -1.900  1.00  0.00    -0.232 N
HETATM    5  N4  UNL     1      19.231   4.490  -3.797  1.00  0.00    -0.062 NA
ATOM      6  H3  UNL     1      20.566   4.479  -1.026  1.00  0.00     0.194 HD
ATOM      7  H5  UNL     1      22.122   3.715  -2.698  1.00  0.00     0.164 HD
BRANCH   4   8
HETATM    8  N2  UNL     1      20.698   6.375  -1.838  1.00  0.00    -0.099 N
HETATM    9  N1  UNL     1      21.647   7.003  -1.303  1.00  0.00    -0.303 N
ATOM     10  H12 UNL     1      21.734   8.018  -1.257  1.00  0.00     0.181 HD
ATOM     11  H11 UNL     1      22.388   6.444  -0.881  1.00  0.00     0.181 HD
BRANCH   8  12
HETATM   12  O1  UNL     1      19.692   7.133  -2.410  1.00  0.00    -0.254 OA
ATOM     13  H1  UNL     1      18.972   6.659  -2.810  1.00  0.00     0.248 HD
ENDBRANCH   8  12
ENDBRANCH   4   8
ENDBRANCH   1   2
BRANCH   1  14
HETATM   14  C3  UNL     1      23.504   2.687  -3.991  1.00  0.00     0.272 C
HETATM   15  N6  UNL     1      24.486   2.266  -4.904  1.00  0.00    -0.059 NA
HETATM   16  O2  UNL     1      23.802   3.053  -2.839  1.00  0.00    -0.273 OA
ENDBRANCH   1  14
BRANCH   1  17
HETATM   17  C4  UNL     1      21.645   1.299  -4.250  1.00  0.00     0.213 C
HETATM   18  O3  UNL     1      22.358   0.435  -4.752  1.00  0.00    -0.646 OA
HETATM   19  O4  UNL     1      20.496   0.949  -3.598  1.00  0.00    -0.646 OA
ENDBRANCH   1  17
BRANCH   1  20
HETATM   20  C5  UNL     1      22.012   3.152  -5.791  1.00  0.00     0.218 C
HETATM   21  C6  UNL     1      22.582   4.482  -5.989  1.00  0.00     0.242 C
HETATM   22  O5  UNL     1      23.041   5.253  -5.116  1.00  0.00    -0.272 OA
HETATM   23  N7  UNL     1      22.627   4.973  -7.341  1.00  0.00    -0.278 N
HETATM   24  C7  UNL     1      21.715   4.479  -8.313  1.00  0.00     0.329 C
ATOM     25  H7  UNL     1      23.316   5.678  -7.602  1.00  0.00     0.173 HD
HETATM   26  O6  UNL     1      21.730   4.894  -9.509  1.00  0.00    -0.247 OA
HETATM   27  N8  UNL     1      20.784   3.498  -7.880  1.00  0.00    -0.278 N
HETATM   28  C8  UNL     1      20.764   3.023  -6.517  1.00  0.00     0.242 C
ATOM     29  H8  UNL     1      20.112   3.120  -8.548  1.00  0.00     0.173 HD
HETATM   30  O7  UNL     1      19.675   2.564  -6.144  1.00  0.00    -0.272 OA
ENDBRANCH   1  20
TORSDOF 6
ENDMDL