MODEL 1
REMARK VINA RESULT: -6.856550439      0.000      0.000
REMARK  7 active torsions:
REMARK  status: ('A' for Active; 'I' for Inactive)
REMARK       I    between atoms: N1_2  and  C2_4
REMARK       I    between atoms: C2_4  and  N2_6
REMARK    1  A    between atoms: N2_6  and  N3_8
REMARK    2  A    between atoms: C3_10  and  N4_11
REMARK    3  A    between atoms: C3_10  and  C5_15
REMARK    4  A    between atoms: N4_11  and  O2_13
REMARK       I    between atoms: C5_15  and  N5_17
REMARK    5  A    between atoms: N5_17  and  N6_19
REMARK       I    between atoms: N6_19  and  C6_21
REMARK    6  A    between atoms: C6_21  and  C7_23
REMARK       I    between atoms: C7_23  and  N7_25
REMARK    7  A    between atoms: N7_25  and  O6_27
ROOT
HETATM    1  N3  UNL     1      20.963   5.213  -3.097  1.00  0.00    -0.276 N
ATOM      2  H3  UNL     1      20.249   5.267  -3.823  1.00  0.00     0.189 HD
HETATM    3  C3  UNL     1      22.094   4.651  -3.351  1.00  0.00     0.211 C
ENDROOT
BRANCH   3   4
HETATM    4  N4  UNL     1      23.079   4.579  -2.357  1.00  0.00    -0.245 N
ATOM      5  H4  UNL     1      22.801   4.521  -1.378  1.00  0.00     0.196 HD
BRANCH   4   6
HETATM    6  O2  UNL     1      24.401   4.585  -2.681  1.00  0.00    -0.283 OA
HETATM    7  C4  UNL     1      25.000   3.377  -2.353  1.00  0.00     0.237 C
ENDBRANCH   4   6
ENDBRANCH   3   4
BRANCH   3   8
HETATM    8  C5  UNL     1      22.274   4.088  -4.714  1.00  0.00     0.307 C
HETATM    9  O3  UNL     1      22.245   2.852  -4.842  1.00  0.00    -0.262 OA
HETATM   10  N5  UNL     1      22.466   4.953  -5.801  1.00  0.00    -0.260 N
ATOM     11  H5  UNL     1      22.472   5.944  -5.561  1.00  0.00     0.190 HD
BRANCH  10  12
HETATM   12  N6  UNL     1      22.643   4.695  -7.097  1.00  0.00    -0.259 N
HETATM   13  C6  UNL     1      22.118   5.319  -8.227  1.00  0.00     0.329 C
HETATM   14  O4  UNL     1      21.342   6.295  -8.275  1.00  0.00    -0.261 OA
ATOM     15  H6  UNL     1      23.264   3.910  -7.295  1.00  0.00     0.190 HD
BRANCH  13  16
HETATM   16  C7  UNL     1      22.511   4.780  -9.551  1.00  0.00     0.334 C
HETATM   17  O5  UNL     1      23.320   5.420 -10.234  1.00  0.00    -0.260 OA
HETATM   18  N7  UNL     1      21.951   3.561  -9.977  1.00  0.00    -0.227 N
ATOM     19  H7  UNL     1      21.288   3.066  -9.381  1.00  0.00     0.198 HD
BRANCH  18  20
HETATM   20  O6  UNL     1      22.295   3.054 -11.171  1.00  0.00    -0.282 OA
HETATM   21  C8  UNL     1      21.199   2.448 -11.749  1.00  0.00     0.237 C
ENDBRANCH  18  20
ENDBRANCH  13  16
ENDBRANCH  10  12
ENDBRANCH   3   8
BRANCH   1  22
HETATM   22  N2  UNL     1      20.710   5.752  -1.832  1.00  0.00    -0.250 N
HETATM   23  C2  UNL     1      19.814   6.801  -1.554  1.00  0.00     0.334 C
HETATM   24  N1  UNL     1      19.635   7.278  -0.223  1.00  0.00    -0.346 N
HETATM   25  O1  UNL     1      19.135   7.363  -2.456  1.00  0.00    -0.246 OA
HETATM   26  C1  UNL     1      18.754   8.335   0.161  1.00  0.00     0.151 C
ATOM     27  H1  UNL     1      20.179   6.829   0.514  1.00  0.00     0.163 HD
ATOM     28  H2  UNL     1      21.217   5.350  -1.043  1.00  0.00     0.192 HD
ENDBRANCH   1  22
TORSDOF 7
ENDMDL