MODEL 1
REMARK VINA RESULT: -6.664692815      0.000      0.000
REMARK  9 active torsions:
REMARK  status: ('A' for Active; 'I' for Inactive)
REMARK    1  A    between atoms: N1_1  and  C1_4
REMARK    2  A    between atoms: C2_9  and  C3_10
REMARK       I    between atoms: C3_10  and  N4_12
REMARK    3  A    between atoms: N4_12  and  C4_14
REMARK    4  A    between atoms: C5_21  and  N9_22
REMARK    5  A    between atoms: N9_22  and  C6_24
REMARK    6  A    between atoms: C6_24  and  C7_25
REMARK    7  A    between atoms: C7_25  and  C8_26
REMARK    8  A    between atoms: C8_26  and  N10_27
REMARK    9  A    between atoms: N11_31  and  O2_32
ROOT
HETATM    1  C1  UNL     1      25.088   3.024  -2.769  1.00  0.00     0.707 C
HETATM    2  N2  UNL     1      24.896   2.306  -3.869  1.00  0.00    -0.130 N
ATOM      3  H2  UNL     1      25.615   1.611  -4.067  1.00  0.00     0.205 HD
HETATM    4  N3  UNL     1      23.909   2.362  -4.742  1.00  0.00    -0.278 N
ATOM      5  H3  UNL     1      23.857   1.614  -5.433  1.00  0.00     0.188 HD
HETATM    6  C2  UNL     1      22.951   3.331  -4.803  1.00  0.00     0.165 C
HETATM    7  C5  UNL     1      22.457   4.151  -3.803  1.00  0.00     0.182 C
HETATM    8  N11 UNL     1      23.061   4.317  -2.619  1.00  0.00    -0.130 N
HETATM    9  N12 UNL     1      24.304   3.991  -2.226  1.00  0.00    -0.103 N
ATOM     10  H12 UNL     1      24.696   4.520  -1.448  1.00  0.00     0.208 HD
ENDROOT
BRANCH   6  11
HETATM   11  C3  UNL     1      22.350   3.545  -6.104  1.00  0.00     0.291 C
HETATM   12  O1  UNL     1      21.226   3.044  -6.336  1.00  0.00    -0.265 OA
HETATM   13  N4  UNL     1      22.977   4.299  -7.132  1.00  0.00    -0.152 N
ATOM     14  H4  UNL     1      23.995   4.301  -7.208  1.00  0.00     0.188 HD
BRANCH  13  15
HETATM   15  C4  UNL     1      22.270   4.984  -7.975  1.00  0.00     0.710 A
HETATM   16  N5  UNL     1      22.601   6.184  -8.484  1.00  0.00    -0.117 N
HETATM   17  N6  UNL     1      21.614   6.554  -9.311  1.00  0.00     0.006 NA
ATOM     18  H5  UNL     1      23.447   6.714  -8.278  1.00  0.00     0.202 HD
HETATM   19  N7  UNL     1      20.674   5.625  -9.337  1.00  0.00     0.006 NA
HETATM   20  N8  UNL     1      21.082   4.671  -8.519  1.00  0.00    -0.117 N
ATOM     21  H8  UNL     1      20.565   3.813  -8.327  1.00  0.00     0.202 HD
ENDBRANCH  13  15
ENDBRANCH   6  11
BRANCH   7  22
HETATM   22  N9  UNL     1      21.397   4.726  -4.100  1.00  0.00    -0.371 N
ATOM     23  H9  UNL     1      21.496   5.277  -4.953  1.00  0.00     0.161 HD
BRANCH  22  24
HETATM   24  C6  UNL     1      20.104   4.819  -3.576  1.00  0.00     0.123 C
BRANCH  24  25
HETATM   25  C7  UNL     1      19.567   3.413  -3.292  1.00  0.00     0.047 C
BRANCH  25  26
HETATM   26  C8  UNL     1      18.754   3.434  -1.990  1.00  0.00     0.231 C
BRANCH  26  27
HETATM   27  N10 UNL     1      19.284   4.420  -1.083  1.00  0.00    -0.079 N
ATOM     28 3H10 UNL     1      19.856   5.113  -1.567  1.00  0.00     0.274 HD
ATOM     29 2H10 UNL     1      18.558   5.043  -0.731  1.00  0.00     0.274 HD
ATOM     30 1H10 UNL     1      19.795   3.967  -0.326  1.00  0.00     0.274 HD
ENDBRANCH  26  27
ENDBRANCH  25  26
ENDBRANCH  24  25
ENDBRANCH  22  24
ENDBRANCH   7  22
BRANCH   8  31
HETATM   31  O2  UNL     1      22.408   4.847  -1.725  1.00  0.00    -0.266 OA
ATOM     32  H2  UNL     1      22.818   4.920  -0.872  1.00  0.00     0.247 HD
ENDBRANCH   8  31
BRANCH   1  33
HETATM   33  N1  UNL     1      26.192   2.731  -2.153  1.00  0.00    -0.232 N
ATOM     34  H12 UNL     1      26.972   3.381  -2.250  1.00  0.00     0.174 HD
ATOM     35  H11 UNL     1      26.141   1.856  -1.631  1.00  0.00     0.174 HD
ENDBRANCH   1  33
TORSDOF 9
ENDMDL