MODEL 4
REMARK VINA RESULT: -7.685354237      1.153      2.485
REMARK  7 active torsions:
REMARK  status: ('A' for Active; 'I' for Inactive)
REMARK    1  A    between atoms: N1_1  and  N2_4
REMARK    2  A    between atoms: N2_4  and  N3_6
REMARK       I    between atoms: N3_6  and  C1_7
REMARK    3  A    between atoms: C1_7  and  C2_9
REMARK    4  A    between atoms: C2_9  and  C3_10
REMARK    5  A    between atoms: C3_10  and  N4_11
REMARK    6  A    between atoms: C3_10  and  C10_29
REMARK    7  A    between atoms: N4_11  and  C4_13
REMARK       I    between atoms: C10_29  and  N9_30
ROOT
HETATM    1  N4  UNL     1      23.091   5.347  -2.729  1.00  0.00    -0.209 N
ATOM      2  H4  UNL     1      23.860   6.014  -2.790  1.00  0.00     0.179 HD
ENDROOT
BRANCH   1   3
HETATM    3  C3  UNL     1      23.093   4.067  -3.374  1.00  0.00     0.221 C
BRANCH   3   4
HETATM    4  C2  UNL     1      22.878   3.777  -4.734  1.00  0.00     0.100 C
BRANCH   4   5
HETATM    5  C1  UNL     1      21.691   4.220  -5.588  1.00  0.00     0.336 C
HETATM    6  N3  UNL     1      22.097   4.938  -6.691  1.00  0.00    -0.267 NA
HETATM    7  O1  UNL     1      20.648   3.849  -5.111  1.00  0.00    -0.250 OA
BRANCH   6   8
HETATM    8  N2  UNL     1      22.387   5.623  -7.760  1.00  0.00    -0.179 N
ATOM      9  H2  UNL     1      22.844   5.203  -8.569  1.00  0.00     0.223 HD
BRANCH   8  10
HETATM   10  N1  UNL     1      22.019   7.009  -7.720  1.00  0.00    -0.320 N
ATOM     11  H12 UNL     1      21.761   7.465  -6.845  1.00  0.00     0.179 HD
ATOM     12  H11 UNL     1      22.037   7.492  -8.617  1.00  0.00     0.179 HD
ENDBRANCH   8  10
ENDBRANCH   6   8
ENDBRANCH   4   5
ENDBRANCH   3   4
BRANCH   3  13
HETATM   13  C10 UNL     1      24.672   3.800  -3.261  1.00  0.00     0.242 C
HETATM   14  N9  UNL     1      25.068   2.534  -2.916  1.00  0.00    -0.368 N
ATOM     15  H92 UNL     1      24.478   1.724  -2.724  1.00  0.00     0.159 HD
ATOM     16  H91 UNL     1      26.070   2.364  -2.844  1.00  0.00     0.159 HD
HETATM   17  O4  UNL     1      25.391   4.787  -3.495  1.00  0.00    -0.271 OA
ENDBRANCH   3  13
ENDBRANCH   1   3
BRANCH   1  18
HETATM   18  C4  UNL     1      21.966   5.570  -2.037  1.00  0.00     0.682 A
HETATM   19  N5  UNL     1      21.665   6.727  -1.510  1.00  0.00    -0.154 N
HETATM   20  C5  UNL     1      20.382   7.001  -1.052  1.00  0.00     0.288 A
ATOM     21  H5  UNL     1      22.386   7.445  -1.434  1.00  0.00     0.187 HD
HETATM   22  O2  UNL     1      20.115   8.114  -0.551  1.00  0.00    -0.265 OA
HETATM   23  C6  UNL     1      19.408   6.056  -1.152  1.00  0.00     0.135 A
HETATM   24  N6  UNL     1      18.161   6.233  -0.734  1.00  0.00    -0.346 N
HETATM   25  C9  UNL     1      19.775   4.851  -1.730  1.00  0.00     0.149 A
HETATM   26  C7  UNL     1      17.252   5.286  -0.862  1.00  0.00     0.184 A
ATOM     27  H6  UNL     1      17.900   7.121  -0.305  1.00  0.00     0.167 HD
HETATM   28  N7  UNL     1      17.599   4.085  -1.439  1.00  0.00    -0.318 N
HETATM   29  C8  UNL     1      18.804   3.860  -1.863  1.00  0.00     0.276 A
ATOM     30  H7  UNL     1      16.893   3.356  -1.535  1.00  0.00     0.169 HD
HETATM   31  O3  UNL     1      19.211   2.799  -2.399  1.00  0.00    -0.266 OA
HETATM   32  N8  UNL     1      21.027   4.647  -2.148  1.00  0.00    -0.184 N
ATOM     33  H8  UNL     1      21.266   3.748  -2.567  1.00  0.00     0.184 HD
ENDBRANCH   1  18
TORSDOF 7
ENDMDL