MODEL 4
REMARK VINA RESULT: -6.364948262      2.768      4.649
REMARK  6 active torsions:
REMARK  status: ('A' for Active; 'I' for Inactive)
REMARK    1  A    between atoms: N1_1  and  N2_4
REMARK       I    between atoms: N2_4  and  C1_6
REMARK    2  A    between atoms: N4_8  and  N5_10
REMARK       I    between atoms: C2_12  and  N6_13
REMARK       I    between atoms: C2_12  and  N8_19
REMARK    3  A    between atoms: N6_13  and  N7_15
REMARK    4  A    between atoms: N7_15  and  C3_17
REMARK    5  A    between atoms: C4_20  and  O2_21
REMARK    6  A    between atoms: C8_27  and  C9_28
ROOT
HETATM    1  N5  UNL     1      22.052   5.132  -6.594  1.00  0.00    -0.128 N
ATOM      2  H5  UNL     1      21.328   5.801  -6.333  1.00  0.00     0.205 HD
HETATM    3  C2  UNL     1      22.192   4.075  -5.867  1.00  0.00     0.720 C
HETATM    4  N6  UNL     1      23.186   3.098  -6.178  1.00  0.00    -0.128 N
ATOM      5  H6  UNL     1      23.268   2.778  -7.143  1.00  0.00     0.205 HD
HETATM    6  N8  UNL     1      21.314   3.956  -4.755  1.00  0.00    -0.119 N
HETATM    7  C4  UNL     1      21.641   4.544  -3.569  1.00  0.00     0.167 A
HETATM    8  C5  UNL     1      20.871   4.485  -2.449  1.00  0.00     0.111 A
HETATM    9  C6  UNL     1      19.682   3.788  -2.509  1.00  0.00     0.178 A
HETATM   10  O3  UNL     1      18.911   3.690  -1.501  1.00  0.00    -0.288 OA
HETATM   11  C7  UNL     1      19.359   3.200  -3.704  1.00  0.00     0.090 A
HETATM   12  C8  UNL     1      20.162   3.270  -4.846  1.00  0.00     0.128 A
ENDROOT
BRANCH   1  13
HETATM   13  N4  UNL     1      22.826   5.414  -7.709  1.00  0.00    -0.258 N
HETATM   14  C1  UNL     1      22.307   5.184  -8.867  1.00  0.00     0.222 C
HETATM   15  N2  UNL     1      20.999   4.666  -9.032  1.00  0.00    -0.279 N
HETATM   16  N3  UNL     1      23.098   5.474 -10.004  1.00  0.00    -0.061 NA
ATOM     17  H2  UNL     1      20.225   5.331  -9.033  1.00  0.00     0.189 HD
ATOM     18  H4  UNL     1      23.770   5.788  -7.616  1.00  0.00     0.190 HD
BRANCH  15  19
HETATM   19  N1  UNL     1      20.689   3.319  -9.192  1.00  0.00    -0.343 N
ATOM     20  H12 UNL     1      20.030   3.090  -9.937  1.00  0.00     0.176 HD
ATOM     21  H11 UNL     1      21.068   2.560  -8.626  1.00  0.00     0.176 HD
ENDBRANCH  15  19
ENDBRANCH   1  13
BRANCH   4  22
HETATM   22  N7  UNL     1      24.044   2.563  -5.227  1.00  0.00    -0.263 N
ATOM     23  H7  UNL     1      23.775   1.716  -4.726  1.00  0.00     0.190 HD
BRANCH  22  24
HETATM   24  C3  UNL     1      25.294   3.181  -4.941  1.00  0.00     0.369 C
HETATM   25  O1  UNL     1      25.402   4.083  -4.070  1.00  0.00    -0.282 OA
ENDBRANCH  22  24
ENDBRANCH   4  22
BRANCH   7  26
HETATM   26  O2  UNL     1      22.828   5.237  -3.520  1.00  0.00    -0.345 OA
ATOM     27  H2  UNL     1      23.120   5.537  -2.667  1.00  0.00     0.219 HD
ENDBRANCH   7  26
BRANCH  12  28
HETATM   28  C9  UNL     1      19.715   2.617  -6.057  1.00  0.00     0.282 C
HETATM   29  N9  UNL     1      18.714   3.213  -6.856  1.00  0.00    -0.056 NA
HETATM   30  O4  UNL     1      20.198   1.525  -6.415  1.00  0.00    -0.269 OA
ENDBRANCH  12  28
TORSDOF 6
ENDMDL