MODEL 4
REMARK VINA RESULT: -7.019466755      6.444      8.791
REMARK  6 active torsions:
REMARK  status: ('A' for Active; 'I' for Inactive)
REMARK    1  A    between atoms: C3_11  and  C4_12
REMARK    2  A    between atoms: C5_13  and  S1_14
REMARK    3  A    between atoms: S1_14  and  N4_15
REMARK    4  A    between atoms: N6_22  and  C6_23
REMARK    5  A    between atoms: C6_23  and  N7_24
REMARK       I    between atoms: N7_24  and  C7_25
REMARK       I    between atoms: C7_25  and  N8_27
REMARK    6  A    between atoms: N8_27  and  N9_28
ROOT
HETATM    1  N1  UNL     1      22.694   5.281  -6.287  1.00  0.00    -0.231 N
ATOM      2  H11 UNL     1      23.437   5.061  -5.625  1.00  0.00     0.174 HD
ATOM      3  H12 UNL     1      22.270   6.209  -6.308  1.00  0.00     0.174 HD
HETATM    4  C1  UNL     1      22.317   4.407  -7.095  1.00  0.00     0.713 C
HETATM    5  N2  UNL     1      21.259   4.720  -8.037  1.00  0.00    -0.128 N
ATOM      6  H2  UNL     1      20.552   5.376  -7.706  1.00  0.00     0.205 HD
HETATM    7  N3  UNL     1      21.079   4.236  -9.352  1.00  0.00    -0.250 N
ATOM      8  H3  UNL     1      20.243   4.542  -9.849  1.00  0.00     0.191 HD
HETATM    9  C2  UNL     1      21.969   3.352 -10.051  1.00  0.00     0.288 C
HETATM   10  O1  UNL     1      22.068   3.483 -11.286  1.00  0.00    -0.264 OA
HETATM   11  C3  UNL     1      22.764   2.313  -9.406  1.00  0.00     0.119 C
HETATM   12  N5  UNL     1      23.153   2.233  -8.134  1.00  0.00    -0.273 N
ATOM     13  H5  UNL     1      23.709   1.410  -7.902  1.00  0.00     0.188 HD
HETATM   14  N6  UNL     1      22.909   3.111  -7.067  1.00  0.00    -0.067 N
ENDROOT
BRANCH  11  15
HETATM   15  C4  UNL     1      23.200   1.194 -10.183  1.00  0.00     0.050 C
HETATM   16  C5  UNL     1      24.354   0.945 -10.746  1.00  0.00     0.133 C
BRANCH  16  17
HETATM   17  S1  UNL     1      24.586  -0.539 -11.636  1.00  0.00     0.246 S
HETATM   18  O2  UNL     1      24.105  -0.349 -13.054  1.00  0.00    -0.202 OA
HETATM   19  O3  UNL     1      23.817  -1.633 -10.939  1.00  0.00    -0.202 OA
BRANCH  17  20
HETATM   20  N4  UNL     1      26.235  -1.025 -11.749  1.00  0.00    -0.325 N
ATOM     21  H42 UNL     1      26.727  -1.081 -12.641  1.00  0.00     0.169 HD
ATOM     22  H41 UNL     1      26.659  -1.247 -10.847  1.00  0.00     0.169 HD
ENDBRANCH  17  20
ENDBRANCH  16  17
ENDBRANCH  11  15
BRANCH  14  23
HETATM   23  C6  UNL     1      23.295   2.631  -5.736  1.00  0.00     0.324 C
BRANCH  23  24
HETATM   24  N7  UNL     1      24.170   3.277  -4.979  1.00  0.00    -0.331 NA
HETATM   25  C7  UNL     1      25.103   3.984  -4.175  1.00  0.00     0.492 C
HETATM   26  O4  UNL     1      25.330   5.222  -4.330  1.00  0.00    -0.212 OA
HETATM   27  N8  UNL     1      25.733   3.238  -3.189  1.00  0.00    -0.260 NA
BRANCH  27  28
HETATM   28  N9  UNL     1      26.327   2.536  -2.262  1.00  0.00    -0.274 N
ATOM     29  H92 UNL     1      25.874   3.073  -3.001  1.00  0.00     0.192 HD
ATOM     30  H91 UNL     1      26.790   1.987  -1.538  1.00  0.00     0.192 HD
ENDBRANCH  27  28
ENDBRANCH  23  24
ENDBRANCH  14  23
TORSDOF 6
ENDMDL