MODEL 1
REMARK VINA RESULT: -5.031349610      0.000      0.000
REMARK  9 active torsions:
REMARK  status: ('A' for Active; 'I' for Inactive)
REMARK    1  A    between atoms: C8_8  and  O1_9
REMARK    2  A    between atoms: O1_9  and  C9_10
REMARK    3  A    between atoms: C9_10  and  C10_11
REMARK    4  A    between atoms: C10_11  and  C11_12
REMARK    5  A    between atoms: C11_12  and  C12_13
REMARK    6  A    between atoms: C12_13  and  C13_14
REMARK    7  A    between atoms: C13_14  and  C14_15
REMARK    8  A    between atoms: C14_15  and  C15_16
REMARK    9  A    between atoms: C15_16  and  O2_18
ROOT
HETATM    1  O1  UNL     1      38.352  71.198 106.517  1.00  0.00    -0.385 OA
ENDROOT
BRANCH   1   2
HETATM    2  C8  UNL     1      39.655  70.779 106.530  1.00  0.00     0.126 C
HETATM    3  C7  UNL     1      40.594  71.889 106.007  1.00  0.00     0.033 C
HETATM    4  C6  UNL     1      41.790  71.143 105.454  1.00  0.00     0.016 C
HETATM    5  C4  UNL     1      41.467  69.672 105.573  1.00  0.00    -0.020 C
HETATM    6  C3  UNL     1      41.873  68.906 104.366  1.00  0.00    -0.015 C
HETATM    7  C5  UNL     1      41.987  69.087 106.834  1.00  0.00     0.020 C
HETATM    8  C17 UNL     1      39.942  69.722 105.507  1.00  0.00     0.027 C
HETATM    9  C2  UNL     1      41.112  67.879 103.999  1.00  0.00    -0.087 C
HETATM   10  C1  UNL     1      41.491  67.071 102.772  1.00  0.00     0.043 C
HETATM   11  C19 UNL     1      39.887  67.431 104.702  1.00  0.00     0.034 C
HETATM   12  C18 UNL     1      39.390  68.380 105.761  1.00  0.00     0.012 C
ENDBRANCH   1   2
BRANCH   1  13
HETATM   13  C9  UNL     1      37.962  71.772 105.342  1.00  0.00     0.168 C
BRANCH  13  14
HETATM   14  C10 UNL     1      36.578  71.387 104.870  1.00  0.00     0.026 C
BRANCH  14  15
HETATM   15  C11 UNL     1      36.753  70.530 103.643  1.00  0.00     0.002 C
BRANCH  15  16
HETATM   16  C12 UNL     1      35.749  69.388 103.577  1.00  0.00     0.000 C
BRANCH  16  17
HETATM   17  C13 UNL     1      36.418  68.051 103.567  1.00  0.00     0.006 C
BRANCH  17  18
HETATM   18  C14 UNL     1      35.969  67.107 102.520  1.00  0.00     0.073 C
BRANCH  18  19
HETATM   19  C15 UNL     1      37.032  66.741 101.549  1.00  0.00     0.199 C
HETATM   20  C16 UNL     1      37.236  65.207 101.614  1.00  0.00     0.084 C
HETATM   21  F1  UNL     1      38.216  67.363 101.758  1.00  0.00    -0.212 F
BRANCH  19  22
HETATM   22  O2  UNL     1      36.632  66.950 100.214  1.00  0.00    -0.362 OA
ATOM     23  H2  UNL     1      37.368  67.133  99.641  1.00  0.00     0.213 HD
ENDBRANCH  19  22
ENDBRANCH  18  19
ENDBRANCH  17  18
ENDBRANCH  16  17
ENDBRANCH  15  16
ENDBRANCH  14  15
ENDBRANCH  13  14
ENDBRANCH   1  13
TORSDOF 9
ENDMDL