MODEL 4
REMARK VINA RESULT: -4.611008646      4.323      6.738
REMARK  9 active torsions:
REMARK  status: ('A' for Active; 'I' for Inactive)
REMARK    1  A    between atoms: C3_3  and  C4_4
REMARK    2  A    between atoms: C5_5  and  C6_6
REMARK    3  A    between atoms: C6_6  and  C7_7
REMARK    4  A    between atoms: C12_12  and  C13_13
REMARK    5  A    between atoms: C13_13  and  C14_14
REMARK    6  A    between atoms: C14_14  and  C15_15
REMARK    7  A    between atoms: C15_15  and  C16_16
REMARK    8  A    between atoms: C17_21  and  C18_22
REMARK    9  A    between atoms: C18_22  and  O2_23
ROOT
HETATM    1  C4  UNL     1      36.148  64.640 101.175  1.00  0.00     0.028 C
HETATM    2  C5  UNL     1      35.002  64.927 101.721  1.00  0.00    -0.024 C
ENDROOT
BRANCH   2   3
HETATM    3  C6  UNL     1      34.500  66.202 102.224  1.00  0.00     0.032 C
BRANCH   3   4
HETATM    4  C7  UNL     1      34.821  66.449 103.668  1.00  0.00    -0.007 C
HETATM    5  C8  UNL     1      34.842  65.188 104.457  1.00  0.00     0.005 C
HETATM    6  C9  UNL     1      36.176  64.813 105.012  1.00  0.00     0.000 C
HETATM    7  C10 UNL     1      36.900  65.896 105.717  1.00  0.00     0.000 C
HETATM    8  C11 UNL     1      36.274  67.267 105.328  1.00  0.00     0.005 C
HETATM    9  C12 UNL     1      36.180  67.197 103.848  1.00  0.00    -0.010 C
BRANCH   9  10
HETATM   10  C13 UNL     1      36.165  68.386 103.018  1.00  0.00     0.005 C
BRANCH  10  11
HETATM   11  C14 UNL     1      36.164  69.750 103.537  1.00  0.00     0.001 C
BRANCH  11  12
HETATM   12  C15 UNL     1      34.895  70.522 103.473  1.00  0.00     0.015 C
BRANCH  12  13
HETATM   13  C16 UNL     1      34.118  70.343 104.763  1.00  0.00     0.114 C
HETATM   14 CL1  UNL     1      32.729  69.280 104.585  1.00  0.00    -0.130 Cl
ENDBRANCH  12  13
ENDBRANCH  11  12
ENDBRANCH  10  11
ENDBRANCH   9  10
ENDBRANCH   3   4
ENDBRANCH   2   3
BRANCH   1  15
HETATM   15  C3  UNL     1      37.266  65.510 100.906  1.00  0.00     0.063 A
HETATM   16  C2  UNL     1      38.504  65.375 101.554  1.00  0.00     0.001 A
HETATM   17  C1  UNL     1      38.902  64.381 102.577  1.00  0.00     0.053 C
HETATM   18  C17 UNL     1      39.314  66.350 101.066  1.00  0.00     0.107 A
HETATM   19  O1  UNL     1      38.626  67.029 100.188  1.00  0.00    -0.239 OA
HETATM   20  N1  UNL     1      37.430  66.538 100.096  1.00  0.00    -0.261 N
ATOM     21  H1  UNL     1      36.707  66.900  99.474  1.00  0.00     0.195 HD
BRANCH  18  22
HETATM   22  C18 UNL     1      40.730  66.607 101.454  1.00  0.00     0.231 C
BRANCH  22  23
HETATM   23  O2  UNL     1      41.582  65.853 100.658  1.00  0.00    -0.394 OA
ATOM     24  H2  UNL     1      42.345  65.590 101.160  1.00  0.00     0.209 HD
ENDBRANCH  22  23
ENDBRANCH  18  22
ENDBRANCH   1  15
TORSDOF 9
ENDMDL