MODEL 2
REMARK VINA RESULT: -4.657696126      1.379      2.233
REMARK  10 active torsions:
REMARK  status: ('A' for Active; 'I' for Inactive)
REMARK    1  A    between atoms: C5_5  and  C6_6
REMARK    2  A    between atoms: C6_6  and  C7_7
REMARK    3  A    between atoms: C7_7  and  C8_8
REMARK    4  A    between atoms: C8_8  and  N1_9
REMARK    5  A    between atoms: N1_9  and  C9_12
REMARK    6  A    between atoms: C9_12  and  C10_13
REMARK    7  A    between atoms: C10_13  and  C11_14
REMARK    8  A    between atoms: C11_14  and  C12_15
REMARK    9  A    between atoms: C12_15  and  O2_17
REMARK   10  A    between atoms: O2_17  and  C13_18
ROOT
HETATM    1  N1  UNL     1      35.662  68.893 102.931  1.00  0.00    -0.075 N
ATOM      2  H11 UNL     1      35.814  69.148 101.956  1.00  0.00     0.277 HD
ATOM      3  H12 UNL     1      34.850  68.285 102.827  1.00  0.00     0.277 HD
ENDROOT
BRANCH   1   4
HETATM    4  C8  UNL     1      35.327  70.044 103.701  1.00  0.00     0.232 C
BRANCH   4   5
HETATM    5  C7  UNL     1      34.565  69.757 104.975  1.00  0.00     0.028 C
BRANCH   5   6
HETATM    6  C6  UNL     1      33.164  69.375 104.602  1.00  0.00     0.006 C
BRANCH   6   7
HETATM    7  C5  UNL     1      32.822  67.955 104.976  1.00  0.00    -0.012 C
HETATM    8  C4  UNL     1      31.344  67.719 105.082  1.00  0.00     0.005 C
HETATM    9  C3  UNL     1      30.898  67.232 106.442  1.00  0.00     0.007 C
HETATM   10  C2  UNL     1      31.721  66.097 106.959  1.00  0.00     0.015 C
HETATM   11  C1  UNL     1      31.140  64.744 106.550  1.00  0.00     0.012 C
HETATM   12  C18 UNL     1      33.173  66.157 106.571  1.00  0.00     0.174 C
HETATM   13  C17 UNL     1      33.517  67.602 106.272  1.00  0.00     0.042 C
HETATM   14  F1  UNL     1      33.336  65.377 105.426  1.00  0.00    -0.249 F
ENDBRANCH   6   7
ENDBRANCH   5   6
ENDBRANCH   4   5
ENDBRANCH   1   4
BRANCH   1  15
HETATM   15  C9  UNL     1      36.790  68.148 103.441  1.00  0.00     0.232 C
BRANCH  15  16
HETATM   16  C10 UNL     1      36.232  66.751 103.767  1.00  0.00     0.037 C
BRANCH  16  17
HETATM   17  C11 UNL     1      35.103  66.505 102.763  1.00  0.00     0.113 C
BRANCH  17  18
HETATM   18  C12 UNL     1      35.431  65.223 102.103  1.00  0.00     0.259 C
HETATM   19  O1  UNL     1      34.554  64.436 101.662  1.00  0.00    -0.265 OA
BRANCH  18  20
HETATM   20  O2  UNL     1      36.758  64.868 101.958  1.00  0.00    -0.311 OA
BRANCH  20  21
HETATM   21  C13 UNL     1      37.469  65.015 100.768  1.00  0.00     0.060 C
HETATM   22  C14 UNL     1      36.937  66.133  99.888  1.00  0.00     0.045 C
HETATM   23  C15 UNL     1      37.492  63.701 100.048  1.00  0.00     0.045 C
HETATM   24  C16 UNL     1      38.887  65.465 101.154  1.00  0.00     0.045 C
ENDBRANCH  20  21
ENDBRANCH  18  20
ENDBRANCH  17  18
ENDBRANCH  16  17
ENDBRANCH  15  16
ENDBRANCH   1  15
TORSDOF 10
ENDMDL