MODEL 5
REMARK VINA RESULT: -5.105516593      3.070      6.109
REMARK  8 active torsions:
REMARK  status: ('A' for Active; 'I' for Inactive)
REMARK    1  A    between atoms: C8_8  and  C9_9
REMARK    2  A    between atoms: C9_9  and  C10_10
REMARK    3  A    between atoms: C10_10  and  C11_11
REMARK    4  A    between atoms: C11_11  and  C12_12
REMARK    5  A    between atoms: C12_12  and  C13_13
REMARK    6  A    between atoms: C13_13  and  C14_14
REMARK    7  A    between atoms: C14_14  and  N1_15
REMARK    8  A    between atoms: C16_17  and  C17_18
ROOT
HETATM    1  C12 UNL     1      35.693  65.413 102.921  1.00  0.00     0.002 C
ENDROOT
BRANCH   1   2
HETATM    2  C11 UNL     1      34.787  65.123 104.073  1.00  0.00     0.000 C
BRANCH   2   3
HETATM    3  C10 UNL     1      35.378  65.589 105.365  1.00  0.00     0.000 C
BRANCH   3   4
HETATM    4  C9  UNL     1      34.334  66.167 106.292  1.00  0.00     0.005 C
BRANCH   4   5
HETATM    5  C8  UNL     1      33.369  67.081 105.621  1.00  0.00    -0.011 C
HETATM    6  C2  UNL     1      34.044  68.452 105.532  1.00  0.00    -0.015 C
HETATM    7  C1  UNL     1      34.233  69.064 106.892  1.00  0.00     0.010 C
HETATM    8  C3  UNL     1      33.321  69.347 104.579  1.00  0.00     0.004 C
HETATM    9  C4  UNL     1      31.910  69.648 104.995  1.00  0.00     0.000 C
HETATM   10  C5  UNL     1      30.914  68.626 104.533  1.00  0.00     0.000 C
HETATM   11  C6  UNL     1      30.969  67.324 105.241  1.00  0.00     0.000 C
HETATM   12  C7  UNL     1      32.048  67.221 106.288  1.00  0.00     0.005 C
ENDBRANCH   4   5
ENDBRANCH   3   4
ENDBRANCH   2   3
ENDBRANCH   1   2
BRANCH   1  13
HETATM   13  C13 UNL     1      35.707  66.878 102.590  1.00  0.00     0.022 C
BRANCH  13  14
HETATM   14  C14 UNL     1      37.107  67.465 102.756  1.00  0.00     0.148 C
BRANCH  14  15
HETATM   15  N1  UNL     1      37.072  68.714 103.487  1.00  0.00    -0.303 N
HETATM   16  C15 UNL     1      37.659  68.891 104.686  1.00  0.00     0.130 A
HETATM   17  C16 UNL     1      37.442  70.184 105.107  1.00  0.00     0.074 A
HETATM   18  C18 UNL     1      36.699  70.775 104.108  1.00  0.00     0.127 A
HETATM   19  N2  UNL     1      36.500  69.854 103.151  1.00  0.00    -0.309 N
ATOM     20  H2  UNL     1      35.980  70.013 102.288  1.00  0.00     0.186 HD
BRANCH  17  21
HETATM   21  C17 UNL     1      37.890  70.801 106.330  1.00  0.00     0.212 C
HETATM   22  O1  UNL     1      37.036  71.269 107.126  1.00  0.00    -0.644 OA
HETATM   23  O2  UNL     1      39.224  70.898 106.659  1.00  0.00    -0.644 OA
ENDBRANCH  17  21
ENDBRANCH  14  15
ENDBRANCH  13  14
ENDBRANCH   1  13
TORSDOF 8
ENDMDL