MODEL 3
REMARK VINA RESULT: -4.843530024      2.524      5.444
REMARK  8 active torsions:
REMARK  status: ('A' for Active; 'I' for Inactive)
REMARK    1  A    between atoms: C2_2  and  C3_4
REMARK    2  A    between atoms: C3_4  and  C4_5
REMARK    3  A    between atoms: C4_5  and  C5_6
REMARK    4  A    between atoms: C5_6  and  O1_7
REMARK    5  A    between atoms: O1_7  and  N2_8
REMARK    6  A    between atoms: C6_10  and  C7_11
REMARK    7  A    between atoms: C6_10  and  C14_18
REMARK    8  A    between atoms: C7_11  and  C8_12
ROOT
HETATM    1  N2  UNL     1      36.727  68.793 103.063  1.00  0.00    -0.270 N
ATOM      2  H2  UNL     1      36.054  68.451 102.377  1.00  0.00     0.194 HD
HETATM    3  C6  UNL     1      36.360  69.858 103.606  1.00  0.00     0.049 C
ENDROOT
BRANCH   3   4
HETATM    4  C7  UNL     1      35.083  70.523 103.268  1.00  0.00     0.065 C
BRANCH   4   5
HETATM    5  C8  UNL     1      33.939  70.159 104.119  1.00  0.00    -0.009 C
HETATM    6  C9  UNL     1      33.858  68.738 104.569  1.00  0.00     0.005 C
HETATM    7  C10 UNL     1      32.374  68.464 104.868  1.00  0.00     0.000 C
HETATM    8  C11 UNL     1      31.971  69.382 106.001  1.00  0.00     0.000 C
HETATM    9  C12 UNL     1      32.287  70.820 105.754  1.00  0.00     0.000 C
HETATM   10  C13 UNL     1      33.752  71.033 105.340  1.00  0.00     0.005 C
ENDBRANCH   4   5
ENDBRANCH   3   4
BRANCH   3  11
HETATM   11  C14 UNL     1      37.183  70.518 104.626  1.00  0.00     0.029 A
HETATM   12  C15 UNL     1      37.861  71.701 104.596  1.00  0.00     0.021 A
HETATM   13  C16 UNL     1      38.544  72.066 105.691  1.00  0.00     0.008 A
HETATM   14  C17 UNL     1      38.516  71.226 106.768  1.00  0.00     0.050 A
HETATM   15  S1  UNL     1      37.536  69.947 106.226  1.00  0.00    -0.100 SA
ENDBRANCH   3  11
BRANCH   1  16
HETATM   16  O1  UNL     1      37.788  68.004 103.170  1.00  0.00    -0.280 OA
BRANCH  16  17
HETATM   17  C5  UNL     1      37.839  66.755 103.835  1.00  0.00     0.201 C
BRANCH  17  18
HETATM   18  C4  UNL     1      36.602  65.936 103.532  1.00  0.00     0.034 C
BRANCH  18  19
HETATM   19  C3  UNL     1      36.788  65.192 102.245  1.00  0.00     0.055 C
BRANCH  19  20
HETATM   20  C2  UNL     1      35.876  65.738 101.202  1.00  0.00     0.015 C
HETATM   21  C1  UNL     1      34.572  65.572 101.321  1.00  0.00     0.035 C
HETATM   22  N1  UNL     1      36.370  66.438 100.071  1.00  0.00    -0.108 NA
ENDBRANCH  19  20
ENDBRANCH  18  19
ENDBRANCH  17  18
ENDBRANCH  16  17
ENDBRANCH   1  16
TORSDOF 8
ENDMDL