MODEL 3
REMARK VINA RESULT: -4.736005053      2.650      3.697
REMARK  8 active torsions:
REMARK  status: ('A' for Active; 'I' for Inactive)
REMARK    1  A    between atoms: C5_5  and  C6_6
REMARK    2  A    between atoms: C6_6  and  C7_7
REMARK    3  A    between atoms: C7_7  and  C8_8
REMARK    4  A    between atoms: C8_8  and  C9_9
REMARK    5  A    between atoms: C9_9  and  C10_10
REMARK    6  A    between atoms: C10_10  and  O1_11
REMARK    7  A    between atoms: O1_11  and  C11_12
REMARK    8  A    between atoms: C11_12  and  C12_13
ROOT
HETATM    1  C1  UNL     1      34.500  65.663 101.398  1.00  0.00     0.019 C
HETATM    2  C2  UNL     1      35.633  65.864 102.409  1.00  0.00    -0.028 C
HETATM    3  C3  UNL     1      35.186  65.083 103.652  1.00  0.00     0.019 C
HETATM    4  C4  UNL     1      35.678  67.324 102.699  1.00  0.00    -0.004 C
HETATM    5  C5  UNL     1      36.706  67.898 103.304  1.00  0.00    -0.024 C
HETATM    6  S1  UNL     1      38.030  66.797 103.729  1.00  0.00    -0.125 SA
HETATM    7  C13 UNL     1      38.176  65.705 102.287  1.00  0.00     0.006 C
HETATM    8  C14 UNL     1      39.099  64.549 102.679  1.00  0.00     0.027 C
HETATM    9  C15 UNL     1      38.917  66.425 101.155  1.00  0.00     0.027 C
HETATM   10  C16 UNL     1      36.846  65.254 101.846  1.00  0.00     0.033 C
ENDROOT
BRANCH   5  11
HETATM   11  C6  UNL     1      36.751  69.326 103.591  1.00  0.00     0.045 C
BRANCH  11  12
HETATM   12  C7  UNL     1      35.471  70.069 103.595  1.00  0.00     0.005 C
BRANCH  12  13
HETATM   13  C8  UNL     1      35.281  71.139 104.588  1.00  0.00     0.002 C
BRANCH  13  14
HETATM   14  C9  UNL     1      36.317  71.198 105.676  1.00  0.00     0.026 C
BRANCH  14  15
HETATM   15  C10 UNL     1      37.177  72.443 105.587  1.00  0.00     0.168 C
BRANCH  15  16
HETATM   16  O1  UNL     1      38.413  72.205 105.079  1.00  0.00    -0.381 OA
BRANCH  16  17
HETATM   17  C11 UNL     1      39.502  72.555 105.796  1.00  0.00     0.280 C
BRANCH  17  18
HETATM   18  C12 UNL     1      40.768  71.902 105.532  1.00  0.00     0.197 C
HETATM   19  O2  UNL     1      41.841  72.553 105.475  1.00  0.00    -0.646 OA
HETATM   20  O3  UNL     1      40.846  70.539 105.332  1.00  0.00    -0.646 OA
ENDBRANCH  17  18
ENDBRANCH  16  17
ENDBRANCH  15  16
ENDBRANCH  14  15
ENDBRANCH  13  14
ENDBRANCH  12  13
ENDBRANCH  11  12
ENDBRANCH   5  11
TORSDOF 8
ENDMDL