MODEL 3
REMARK VINA RESULT: -5.380698748      2.799      6.054
REMARK  8 active torsions:
REMARK  status: ('A' for Active; 'I' for Inactive)
REMARK    1  A    between atoms: C2_2  and  C3_3
REMARK    2  A    between atoms: C3_3  and  C4_4
REMARK    3  A    between atoms: C4_4  and  C5_5
REMARK    4  A    between atoms: C5_5  and  C6_6
REMARK    5  A    between atoms: C6_6  and  C7_7
REMARK    6  A    between atoms: C7_7  and  C8_8
REMARK    7  A    between atoms: C9_11  and  C10_12
REMARK    8  A    between atoms: C10_12  and  C11_13
ROOT
HETATM    1  C8  UNL     1      37.047  68.669 103.652  1.00  0.00     0.080 A
HETATM    2  N1  UNL     1      35.928  69.084 103.194  1.00  0.00    -0.366 N
ATOM      3  H1  UNL     1      35.280  68.514 102.649  1.00  0.00     0.161 HD
HETATM    4  C9  UNL     1      35.706  70.444 103.544  1.00  0.00     0.177 A
HETATM    5  C18 UNL     1      36.936  70.852 104.242  1.00  0.00     0.245 A
HETATM    6  O2  UNL     1      37.293  71.979 104.709  1.00  0.00    -0.271 OA
HETATM    7  N2  UNL     1      37.756  69.693 104.328  1.00  0.00    -0.315 N
ATOM      8  H2  UNL     1      38.666  69.614 104.782  1.00  0.00     0.170 HD
ENDROOT
BRANCH   4   9
HETATM    9  C10 UNL     1      34.553  70.475 104.535  1.00  0.00     0.066 C
BRANCH   9  10
HETATM   10  C11 UNL     1      33.976  69.109 104.664  1.00  0.00     0.123 C
HETATM   11  C12 UNL     1      32.504  69.246 104.653  1.00  0.00     0.032 C
HETATM   12  C13 UNL     1      31.600  68.056 104.409  1.00  0.00     0.002 C
HETATM   13  C14 UNL     1      31.201  67.350 105.680  1.00  0.00     0.000 C
HETATM   14  C15 UNL     1      31.934  66.187 106.193  1.00  0.00     0.002 C
HETATM   15  C16 UNL     1      33.290  66.492 106.907  1.00  0.00     0.026 C
HETATM   16  C17 UNL     1      33.806  67.571 106.171  1.00  0.00     0.168 C
HETATM   17  O1  UNL     1      34.591  68.538 105.824  1.00  0.00    -0.386 OA
ENDBRANCH   9  10
ENDBRANCH   4   9
BRANCH   1  18
HETATM   18  C7  UNL     1      37.541  67.261 103.440  1.00  0.00     0.076 C
BRANCH  18  19
HETATM   19  C6  UNL     1      37.984  67.060 102.050  1.00  0.00     0.007 C
BRANCH  19  20
HETATM   20  C5  UNL     1      37.388  65.824 101.389  1.00  0.00     0.000 C
BRANCH  20  21
HETATM   21  C4  UNL     1      36.051  66.215 100.842  1.00  0.00     0.000 C
BRANCH  21  22
HETATM   22  C3  UNL     1      34.849  65.558 101.372  1.00  0.00    -0.000 C
BRANCH  22  23
HETATM   23  C2  UNL     1      34.377  65.890 102.735  1.00  0.00    -0.005 C
HETATM   24  C1  UNL     1      34.756  64.959 103.830  1.00  0.00     0.005 C
ENDBRANCH  22  23
ENDBRANCH  21  22
ENDBRANCH  20  21
ENDBRANCH  19  20
ENDBRANCH  18  19
ENDBRANCH   1  18
TORSDOF 8
ENDMDL