MODEL 5
REMARK VINA RESULT: -4.532693360      3.213      5.007
REMARK  9 active torsions:
REMARK  status: ('A' for Active; 'I' for Inactive)
REMARK    1  A    between atoms: C2_2  and  C3_3
REMARK    2  A    between atoms: C4_4  and  C5_5
REMARK    3  A    between atoms: C8_9  and  C9_10
REMARK    4  A    between atoms: C9_10  and  C10_11
REMARK    5  A    between atoms: C10_11  and  C11_12
REMARK    6  A    between atoms: C11_12  and  C13_14
REMARK    7  A    between atoms: C13_14  and  C14_15
REMARK    8  A    between atoms: C14_15  and  C15_16
REMARK    9  A    between atoms: C16_18  and  C17_19
ROOT
HETATM    1  C5  UNL     1      32.974  66.687 105.993  1.00  0.00    -0.006 A
HETATM    2  C6  UNL     1      32.053  65.752 106.365  1.00  0.00     0.153 A
HETATM    3  O1  UNL     1      31.110  66.351 107.049  1.00  0.00    -0.333 OA
HETATM    4  C7  UNL     1      31.343  67.621 107.155  1.00  0.00     0.149 A
HETATM    5  C8  UNL     1      32.511  67.914 106.508  1.00  0.00    -0.023 A
ENDROOT
BRANCH   1   6
HETATM    6  C4  UNL     1      34.228  66.493 105.221  1.00  0.00     0.014 C
HETATM    7  C3  UNL     1      34.154  66.496 103.917  1.00  0.00     0.008 C
BRANCH   7   8
HETATM    8  C2  UNL     1      35.267  66.321 103.005  1.00  0.00    -0.056 C
HETATM    9  C1  UNL     1      36.645  66.612 103.438  1.00  0.00     0.048 C
HETATM   10  C16 UNL     1      35.018  65.893 101.763  1.00  0.00     0.091 C
BRANCH  10  11
HETATM   11  C17 UNL     1      36.018  65.678 100.758  1.00  0.00     0.199 C
HETATM   12  O2  UNL     1      36.384  66.563  99.947  1.00  0.00    -0.644 OA
HETATM   13  O3  UNL     1      36.633  64.405 100.662  1.00  0.00    -0.644 OA
ENDBRANCH  10  11
ENDBRANCH   7   8
ENDBRANCH   1   6
BRANCH   5  14
HETATM   14  C9  UNL     1      33.273  69.176 106.308  1.00  0.00     0.045 C
BRANCH  14  15
HETATM   15  C10 UNL     1      32.916  69.894 105.070  1.00  0.00     0.038 C
BRANCH  15  16
HETATM   16  C11 UNL     1      33.944  70.673 104.339  1.00  0.00    -0.084 C
HETATM   17  C12 UNL     1      33.747  72.166 104.459  1.00  0.00     0.043 C
BRANCH  16  18
HETATM   18  C13 UNL     1      34.902  70.172 103.637  1.00  0.00    -0.001 C
BRANCH  18  19
HETATM   19  C14 UNL     1      36.327  70.302 103.496  1.00  0.00    -0.012 C
BRANCH  19  20
HETATM   20  C15 UNL     1      37.253  70.439 104.622  1.00  0.00     0.141 C
HETATM   21 CL1  UNL     1      36.886  69.252 105.893  1.00  0.00    -0.126 Cl
ENDBRANCH  19  20
ENDBRANCH  18  19
ENDBRANCH  16  18
ENDBRANCH  15  16
ENDBRANCH  14  15
ENDBRANCH   5  14
TORSDOF 9
ENDMDL