MODEL 2
REMARK VINA RESULT: -4.969128134      2.418      5.019
REMARK  9 active torsions:
REMARK  status: ('A' for Active; 'I' for Inactive)
REMARK    1  A    between atoms: C2_2  and  C3_3
REMARK    2  A    between atoms: C3_3  and  C4_4
REMARK    3  A    between atoms: C4_4  and  C5_5
REMARK    4  A    between atoms: C5_5  and  C6_6
REMARK    5  A    between atoms: C6_6  and  C7_7
REMARK    6  A    between atoms: C7_7  and  C17_21
REMARK    7  A    between atoms: C8_8  and  C9_9
REMARK    8  A    between atoms: C10_10  and  C11_11
REMARK    9  A    between atoms: C17_21  and  O2_23
ROOT
HETATM    1  C7  UNL     1      36.521  66.445 102.364  1.00  0.00     0.017 C
HETATM    2  C8  UNL     1      35.229  66.310 102.481  1.00  0.00     0.013 C
ENDROOT
BRANCH   2   3
HETATM    3  C9  UNL     1      34.553  66.225 103.748  1.00  0.00    -0.001 C
HETATM    4  C10 UNL     1      33.790  67.234 104.183  1.00  0.00     0.007 C
BRANCH   4   5
HETATM    5  C11 UNL     1      33.113  67.137 105.464  1.00  0.00     0.227 C
HETATM    6  N1  UNL     1      32.907  65.770 105.908  1.00  0.00    -0.062 N
HETATM    7  C12 UNL     1      32.547  65.733 107.289  1.00  0.00     0.182 C
ATOM      8  H12 UNL     1      32.223  65.284 105.328  1.00  0.00     0.278 HD
ATOM      9  H11 UNL     1      33.718  65.185 105.714  1.00  0.00     0.278 HD
HETATM   10  C13 UNL     1      31.516  64.625 107.473  1.00  0.00     0.040 C
HETATM   11  C14 UNL     1      32.003  66.981 107.855  1.00  0.00     0.034 C
HETATM   12  C15 UNL     1      31.351  67.923 106.923  1.00  0.00     0.024 C
HETATM   13  C16 UNL     1      31.743  67.786 105.489  1.00  0.00     0.116 C
HETATM   14 CL1  UNL     1      31.758  69.376 104.703  1.00  0.00    -0.123 Cl
ENDBRANCH   4   5
ENDBRANCH   2   3
BRANCH   1  15
HETATM   15  C6  UNL     1      37.449  66.528 103.456  1.00  0.00     0.045 C
BRANCH  15  16
HETATM   16  C5  UNL     1      37.904  67.836 103.927  1.00  0.00     0.005 C
BRANCH  16  17
HETATM   17  C4  UNL     1      37.425  68.449 105.175  1.00  0.00     0.000 C
BRANCH  17  18
HETATM   18  C3  UNL     1      36.536  69.621 105.059  1.00  0.00    -0.000 C
BRANCH  18  19
HETATM   19  C2  UNL     1      36.451  70.120 103.608  1.00  0.00    -0.005 C
HETATM   20  C1  UNL     1      35.062  70.542 103.246  1.00  0.00     0.005 C
ENDBRANCH  18  19
ENDBRANCH  17  18
ENDBRANCH  16  17
ENDBRANCH  15  16
ENDBRANCH   1  15
BRANCH   1  21
HETATM   21  C17 UNL     1      37.045  66.542 100.970  1.00  0.00     0.288 C
HETATM   22  O1  UNL     1      36.315  66.509  99.967  1.00  0.00    -0.260 OA
BRANCH  21  23
HETATM   23  O2  UNL     1      38.408  66.676 100.747  1.00  0.00    -0.323 OA
HETATM   24  C18 UNL     1      39.051  65.844  99.802  1.00  0.00     0.213 C
ENDBRANCH  21  23
ENDBRANCH   1  21
TORSDOF 9
ENDMDL