MODEL 5
REMARK VINA RESULT: -6.160008804      2.471      3.708
REMARK  7 active torsions:
REMARK  status: ('A' for Active; 'I' for Inactive)
REMARK    1  A    between atoms: C2_2  and  C3_3
REMARK    2  A    between atoms: C3_3  and  O1_4
REMARK    3  A    between atoms: C3_3  and  C4_6
REMARK    4  A    between atoms: C4_6  and  C5_7
REMARK    5  A    between atoms: C6_10  and  O4_11
REMARK    6  A    between atoms: C21_27  and  C23_29
REMARK       I    between atoms: C23_29  and  N1_31
REMARK    7  A    between atoms: N1_31  and  C24_33
ROOT
HETATM    1  C4  UNL     1      -5.769  -8.096  -6.152  1.00  0.00     0.111 C
HETATM    2  C6  UNL     1      -6.814  -8.511  -5.186  1.00  0.00     0.141 C
HETATM    3  C7  UNL     1      -8.156  -9.083  -5.704  1.00  0.00     0.043 C
HETATM    4  C8  UNL     1      -8.397  -8.176  -6.835  1.00  0.00    -0.033 C
HETATM    5  C9  UNL     1      -8.568  -6.951  -6.078  1.00  0.00     0.016 C
HETATM    6  C10 UNL     1      -9.391  -8.051  -7.873  1.00  0.00     0.002 C
HETATM    7  C11 UNL     1      -9.317  -9.337  -8.715  1.00  0.00     0.006 C
HETATM    8  C12 UNL     1      -7.826  -9.209  -9.003  1.00  0.00     0.007 C
HETATM    9  C13 UNL     1      -7.346  -8.731  -7.682  1.00  0.00     0.007 C
HETATM   10  C14 UNL     1      -6.152  -7.873  -7.585  1.00  0.00     0.001 C
HETATM   11  C15 UNL     1      -5.108  -8.575  -8.481  1.00  0.00     0.021 C
HETATM   12  C16 UNL     1      -6.462  -6.566  -8.146  1.00  0.00    -0.011 C
HETATM   13  C17 UNL     1      -7.760  -6.158  -8.665  1.00  0.00    -0.061 C
HETATM   14  C18 UNL     1      -8.937  -6.976  -8.836  1.00  0.00     0.020 C
HETATM   15  C19 UNL     1     -10.005  -5.881  -9.055  1.00  0.00     0.011 C
HETATM   16  C20 UNL     1      -9.288  -5.121 -10.194  1.00  0.00     0.024 C
HETATM   17  C21 UNL     1      -7.786  -5.373  -9.964  1.00  0.00     0.061 C
HETATM   18  C22 UNL     1      -7.172  -3.972  -9.759  1.00  0.00     0.030 C
ENDROOT
BRANCH   1  19
HETATM   19  C3  UNL     1      -4.892  -6.994  -5.584  1.00  0.00     0.140 C
BRANCH  19  20
HETATM   20  C2  UNL     1      -5.413  -5.637  -5.885  1.00  0.00     0.028 C
HETATM   21  C1  UNL     1      -5.721  -4.966  -4.542  1.00  0.00     0.007 C
ENDBRANCH  19  20
BRANCH  19  22
HETATM   22  O1  UNL     1      -4.714  -7.224  -4.226  1.00  0.00    -0.394 OA
ATOM     23  H1  UNL     1      -3.807  -7.384  -3.988  1.00  0.00     0.210 HD
ENDBRANCH  19  22
ENDBRANCH   1  19
BRANCH   1  24
HETATM   24  C5  UNL     1      -4.791  -9.263  -6.130  1.00  0.00     0.188 C
HETATM   25  O2  UNL     1      -3.544  -9.089  -5.897  1.00  0.00    -0.647 OA
HETATM   26  O3  UNL     1      -5.113 -10.569  -6.351  1.00  0.00    -0.647 OA
ENDBRANCH   1  24
BRANCH   2  27
HETATM   27  O4  UNL     1      -6.377  -9.455  -4.245  1.00  0.00    -0.394 OA
ATOM     28  H4  UNL     1      -6.945 -10.211  -4.165  1.00  0.00     0.210 HD
ENDBRANCH   2  27
BRANCH  17  29
HETATM   29  C23 UNL     1      -7.251  -5.880 -11.176  1.00  0.00     0.230 C
HETATM   30  O5  UNL     1      -7.809  -6.608 -12.038  1.00  0.00    -0.272 OA
HETATM   31  N1  UNL     1      -5.906  -5.554 -11.509  1.00  0.00    -0.356 N
ATOM     32  H1  UNL     1      -5.385  -4.962 -10.863  1.00  0.00     0.162 HD
BRANCH  31  33
HETATM   33  C24 UNL     1      -5.226  -6.012 -12.712  1.00  0.00     0.076 C
HETATM   34  C25 UNL     1      -4.385  -7.220 -12.505  1.00  0.00     0.032 C
HETATM   35  C26 UNL     1      -4.347  -4.911 -13.290  1.00  0.00     0.032 C
ENDBRANCH  31  33
ENDBRANCH  17  29
TORSDOF 7
ENDMDL