MODEL 5
REMARK VINA RESULT: -7.897791191      3.030      4.504
REMARK  6 active torsions:
REMARK  status: ('A' for Active; 'I' for Inactive)
REMARK    1  A    between atoms: C8_8  and  O1_9
REMARK    2  A    between atoms: C13_15  and  C14_16
REMARK    3  A    between atoms: C15_17  and  C16_18
REMARK    4  A    between atoms: C20_29  and  N4_30
REMARK       I    between atoms: N4_30  and  C21_32
REMARK    5  A    between atoms: C21_32  and  C22_34
REMARK    6  A    between atoms: C22_34  and  C25_37
ROOT
HETATM    1  C1  UNL     1      -5.526  -9.404  -5.625  1.00  0.00     0.016 C
HETATM    2  C2  UNL     1      -6.561  -8.839  -6.228  1.00  0.00    -0.066 C
HETATM    3  C3  UNL     1      -7.136  -7.614  -5.607  1.00  0.00     0.041 C
HETATM    4  C4  UNL     1      -7.944  -6.778  -6.547  1.00  0.00     0.009 C
HETATM    5  C5  UNL     1      -8.577  -5.686  -5.747  1.00  0.00    -0.017 C
HETATM    6  C6  UNL     1      -9.998  -5.379  -6.182  1.00  0.00     0.018 C
HETATM    7  C7  UNL     1      -8.681  -6.051  -4.260  1.00  0.00     0.018 C
HETATM    8  C8  UNL     1      -7.788  -4.396  -5.762  1.00  0.00     0.126 C
HETATM    9  C9  UNL     1      -7.532  -3.933  -7.162  1.00  0.00     0.033 C
HETATM   10  C10 UNL     1      -6.675  -4.985  -7.811  1.00  0.00     0.012 C
HETATM   11  C11 UNL     1      -7.258  -6.364  -7.798  1.00  0.00    -0.032 C
HETATM   12  C12 UNL     1      -8.193  -6.450  -9.003  1.00  0.00     0.016 C
HETATM   13  C13 UNL     1      -6.115  -7.305  -8.172  1.00  0.00     0.019 C
HETATM   14  C19 UNL     1      -6.576  -8.642  -8.634  1.00  0.00     0.039 C
HETATM   15  C20 UNL     1      -7.094  -9.447  -7.475  1.00  0.00     0.113 C
ENDROOT
BRANCH  13  16
HETATM   16  C14 UNL     1      -5.302  -6.696  -9.271  1.00  0.00    -0.021 C
HETATM   17  C15 UNL     1      -4.827  -7.350 -10.312  1.00  0.00     0.022 C
BRANCH  17  18
HETATM   18  C16 UNL     1      -4.034  -6.600 -11.326  1.00  0.00     0.123 C
HETATM   19  C17 UNL     1      -4.771  -6.299 -12.613  1.00  0.00     0.068 C
HETATM   20  N1  UNL     1      -2.735  -7.218 -11.595  1.00  0.00    -0.333 N
HETATM   21  C18 UNL     1      -2.198  -5.908 -11.660  1.00  0.00     0.173 C
ATOM     22  H1  UNL     1      -2.377  -8.167 -11.692  1.00  0.00     0.165 HD
HETATM   23  N2  UNL     1      -1.177  -5.311 -12.225  1.00  0.00    -0.371 N
HETATM   24  N3  UNL     1      -3.271  -5.491 -10.825  1.00  0.00    -0.333 N
ATOM     25  H22 UNL     1      -0.407  -5.610 -12.825  1.00  0.00     0.159 HD
ATOM     26  H21 UNL     1      -0.790  -4.368 -12.272  1.00  0.00     0.159 HD
ATOM     27  H3  UNL     1      -3.430  -4.733 -10.160  1.00  0.00     0.165 HD
ENDBRANCH  17  18
ENDBRANCH  13  16
BRANCH  15  28
HETATM   28  N4  UNL     1      -6.707 -10.834  -7.617  1.00  0.00    -0.352 N
HETATM   29  C21 UNL     1      -7.433 -11.742  -8.405  1.00  0.00     0.226 C
HETATM   30  O2  UNL     1      -8.455 -11.332  -9.008  1.00  0.00    -0.273 OA
ATOM     31  H4  UNL     1      -5.876 -11.164  -7.126  1.00  0.00     0.163 HD
BRANCH  29  32
HETATM   32  C22 UNL     1      -7.064 -13.170  -8.571  1.00  0.00     0.033 C
HETATM   33  C23 UNL     1      -5.598 -13.258  -8.143  1.00  0.00     0.025 C
HETATM   34  C24 UNL     1      -7.830 -14.073  -7.658  1.00  0.00     0.025 C
BRANCH  32  35
HETATM   35  C25 UNL     1      -7.227 -13.611 -10.010  1.00  0.00     0.014 C
HETATM   36  C26 UNL     1      -8.129 -14.799 -10.109  1.00  0.00     0.006 C
ENDBRANCH  32  35
ENDBRANCH  29  32
ENDBRANCH  15  28
BRANCH   8  37
HETATM   37  O1  UNL     1      -6.530  -4.583  -5.144  1.00  0.00    -0.395 OA
ATOM     38  H1  UNL     1      -5.938  -5.039  -5.731  1.00  0.00     0.210 HD
ENDBRANCH   8  37
TORSDOF 6
ENDMDL