MODEL 5
REMARK VINA RESULT: -7.694504516      1.436      1.852
REMARK  9 active torsions:
REMARK  status: ('A' for Active; 'I' for Inactive)
REMARK    1  A    between atoms: C2_2  and  C3_3
REMARK    2  A    between atoms: C2_2  and  C11_18
REMARK    3  A    between atoms: C3_3  and  N1_4
REMARK    4  A    between atoms: N1_4  and  C4_7
REMARK    5  A    between atoms: C4_7  and  C5_8
REMARK    6  A    between atoms: C8_11  and  N2_12
REMARK    7  A    between atoms: C15_22  and  C17_24
REMARK    8  A    between atoms: C21_30  and  C22_31
REMARK    9  A    between atoms: C23_32  and  C24_33
ROOT
HETATM    1  C11 UNL     1      -5.333 -10.684  -6.806  1.00  0.00     0.004 C
HETATM    2  C12 UNL     1      -4.098 -10.501  -5.908  1.00  0.00     0.006 C
HETATM    3  C13 UNL     1      -3.640  -9.052  -6.180  1.00  0.00     0.007 C
HETATM    4  C14 UNL     1      -4.626  -8.540  -7.161  1.00  0.00     0.017 C
HETATM    5  C15 UNL     1      -4.766  -7.088  -7.311  1.00  0.00     0.050 C
HETATM    6  C16 UNL     1      -4.339  -6.298  -6.082  1.00  0.00     0.027 C
HETATM    7  C18 UNL     1      -6.118  -6.640  -7.808  1.00  0.00     0.025 C
HETATM    8  C19 UNL     1      -6.837  -7.793  -8.482  1.00  0.00     0.037 C
HETATM    9  C20 UNL     1      -7.009  -8.924  -7.540  1.00  0.00    -0.063 C
HETATM   10  C21 UNL     1      -8.173  -9.499  -7.430  1.00  0.00     0.068 C
HETATM   11  C25 UNL     1      -5.866  -9.323  -6.766  1.00  0.00    -0.011 C
HETATM   12  C26 UNL     1      -6.230  -9.057  -5.290  1.00  0.00     0.021 C
ENDROOT
BRANCH   1  13
HETATM   13  C2  UNL     1      -4.929 -11.344  -8.042  1.00  0.00     0.012 C
HETATM   14  C1  UNL     1      -6.050 -12.170  -8.714  1.00  0.00     0.012 C
BRANCH  13  15
HETATM   15  C3  UNL     1      -3.862 -12.408  -7.667  1.00  0.00     0.237 C
BRANCH  15  16
HETATM   16  N1  UNL     1      -2.704 -12.249  -8.531  1.00  0.00    -0.074 N
ATOM     17  H12 UNL     1      -2.915 -12.553  -9.482  1.00  0.00     0.277 HD
ATOM     18  H11 UNL     1      -2.515 -11.263  -8.709  1.00  0.00     0.277 HD
BRANCH  16  19
HETATM   19  C4  UNL     1      -1.547 -12.906  -8.035  1.00  0.00     0.237 C
BRANCH  19  20
HETATM   20  C5  UNL     1      -0.587 -12.033  -7.266  1.00  0.00     0.011 C
HETATM   21  C6  UNL     1       0.839 -12.183  -7.670  1.00  0.00     0.008 C
HETATM   22  C7  UNL     1       1.731 -12.790  -6.624  1.00  0.00     0.033 C
HETATM   23  C8  UNL     1       1.623 -12.174  -5.268  1.00  0.00     0.183 C
HETATM   24  C9  UNL     1       0.230 -11.703  -4.933  1.00  0.00     0.033 C
HETATM   25  C10 UNL     1      -0.817 -12.334  -5.792  1.00  0.00     0.008 C
BRANCH  23  26
HETATM   26  N2  UNL     1       2.586 -11.098  -5.076  1.00  0.00    -0.075 N
ATOM     27  H23 UNL     1       2.130 -10.186  -5.096  1.00  0.00     0.274 HD
ATOM     28  H22 UNL     1       2.937 -11.083  -4.119  1.00  0.00     0.274 HD
ATOM     29  H21 UNL     1       3.352 -11.144  -5.749  1.00  0.00     0.274 HD
ENDBRANCH  23  26
ENDBRANCH  19  20
ENDBRANCH  16  19
ENDBRANCH  15  16
ENDBRANCH  13  15
ENDBRANCH   1  13
BRANCH   5  30
HETATM   30  C17 UNL     1      -3.792  -6.604  -8.370  1.00  0.00     0.181 C
HETATM   31  O1  UNL     1      -3.204  -5.505  -8.207  1.00  0.00    -0.647 OA
HETATM   32  O2  UNL     1      -3.538  -7.347  -9.514  1.00  0.00    -0.647 OA
ENDBRANCH   5  30
BRANCH  10  33
HETATM   33  C22 UNL     1      -9.299  -9.058  -8.208  1.00  0.00    -0.067 C
HETATM   34  C23 UNL     1     -10.243  -8.669  -8.855  1.00  0.00     0.009 C
BRANCH  34  35
HETATM   35  C24 UNL     1     -11.359  -8.183  -9.615  1.00  0.00     0.258 C
HETATM   36  O3  UNL     1     -11.937  -8.947 -10.427  1.00  0.00    -0.637 OA
HETATM   37  O4  UNL     1     -11.841  -6.887  -9.498  1.00  0.00    -0.637 OA
ENDBRANCH  34  35
ENDBRANCH  10  33
TORSDOF 9
ENDMDL