MODEL 5
REMARK VINA RESULT: -7.460500216      4.449     10.520
REMARK  9 active torsions:
REMARK  status: ('A' for Active; 'I' for Inactive)
REMARK    1  A    between atoms: O1_2  and  C2_3
REMARK    2  A    between atoms: C2_3  and  C3_5
REMARK    3  A    between atoms: C3_5  and  C4_6
REMARK    4  A    between atoms: C4_6  and  C5_7
REMARK    5  A    between atoms: C5_7  and  N2_11
REMARK    6  A    between atoms: N2_11  and  C6_13
REMARK    7  A    between atoms: C18_25  and  C19_26
REMARK    8  A    between atoms: C19_26  and  O3_29
REMARK    9  A    between atoms: C24_33  and  O4_34
ROOT
HETATM    1  C6  UNL     1      -3.151 -10.730  -7.464  1.00  0.00     0.093 C
HETATM    2  C7  UNL     1      -2.872 -11.181  -6.046  1.00  0.00     0.026 C
HETATM    3  C8  UNL     1      -4.048 -10.700  -5.184  1.00  0.00     0.008 C
HETATM    4  C9  UNL     1      -4.761  -9.805  -6.133  1.00  0.00     0.003 C
HETATM    5  C10 UNL     1      -6.104  -9.332  -5.766  1.00  0.00    -0.005 C
HETATM    6  C11 UNL     1      -5.993  -7.911  -5.273  1.00  0.00     0.006 C
HETATM    7  C12 UNL     1      -6.889  -6.945  -6.005  1.00  0.00     0.010 C
HETATM    8  C13 UNL     1      -8.284  -7.466  -5.905  1.00  0.00    -0.034 C
HETATM    9  C14 UNL     1      -8.613  -7.580  -4.409  1.00  0.00     0.016 C
HETATM   10  C15 UNL     1      -8.429  -8.813  -6.591  1.00  0.00    -0.001 C
HETATM   11  C16 UNL     1      -9.222  -8.565  -7.837  1.00  0.00     0.006 C
HETATM   12  C17 UNL     1      -9.299  -7.039  -7.978  1.00  0.00     0.009 C
HETATM   13  C18 UNL     1      -9.334  -6.644  -6.532  1.00  0.00     0.028 C
HETATM   14  C22 UNL     1      -7.147  -9.553  -6.815  1.00  0.00    -0.003 C
HETATM   15  C23 UNL     1      -6.663  -9.446  -8.239  1.00  0.00     0.038 C
HETATM   16  C24 UNL     1      -5.231  -9.739  -8.471  1.00  0.00     0.129 C
HETATM   17  C25 UNL     1      -4.681 -10.608  -7.414  1.00  0.00     0.006 C
HETATM   18  C26 UNL     1      -5.209 -11.978  -7.323  1.00  0.00     0.020 C
ENDROOT
BRANCH   1  19
HETATM   19  N2  UNL     1      -2.791 -11.716  -8.451  1.00  0.00    -0.375 N
ATOM     20  H2  UNL     1      -3.434 -11.942  -9.211  1.00  0.00     0.161 HD
BRANCH  19  21
HETATM   21  C5  UNL     1      -1.528 -12.374  -8.358  1.00  0.00     0.071 C
HETATM   22  N1  UNL     1      -1.521 -13.604  -7.992  1.00  0.00    -0.389 N
ATOM     23  H12 UNL     1      -0.618 -14.075  -7.925  1.00  0.00     0.157 HD
ATOM     24  H11 UNL     1      -2.400 -14.077  -7.778  1.00  0.00     0.157 HD
BRANCH  21  25
HETATM   25  C4  UNL     1      -0.255 -11.690  -8.668  1.00  0.00     0.085 C
BRANCH  25  26
HETATM   26  C3  UNL     1       0.787 -11.951  -7.596  1.00  0.00     0.118 C
BRANCH  26  27
HETATM   27  C2  UNL     1       1.850 -12.854  -8.104  1.00  0.00     0.258 C
HETATM   28  O2  UNL     1       1.539 -14.046  -8.349  1.00  0.00    -0.265 OA
BRANCH  27  29
HETATM   29  O1  UNL     1       3.153 -12.451  -8.318  1.00  0.00    -0.326 OA
HETATM   30  C1  UNL     1       4.192 -12.878  -7.476  1.00  0.00     0.213 C
ENDBRANCH  27  29
ENDBRANCH  26  27
ENDBRANCH  25  26
ENDBRANCH  21  25
ENDBRANCH  19  21
ENDBRANCH   1  19
BRANCH  16  31
HETATM   31  O4  UNL     1      -5.028 -10.299  -9.753  1.00  0.00    -0.395 OA
ATOM     32  H4  UNL     1      -5.538 -11.092  -9.865  1.00  0.00     0.210 HD
ENDBRANCH  16  31
BRANCH  13  33
HETATM   33  C19 UNL     1      -9.241  -5.167  -6.434  1.00  0.00     0.055 C
HETATM   34  C20 UNL     1      -9.134  -4.655  -7.885  1.00  0.00     0.045 C
HETATM   35  C21 UNL     1     -10.528  -4.510  -5.924  1.00  0.00     0.045 C
BRANCH  33  36
HETATM   36  O3  UNL     1      -8.121  -4.687  -5.797  1.00  0.00    -0.390 OA
ATOM     37  H3  UNL     1      -7.606  -4.061  -6.294  1.00  0.00     0.210 HD
ENDBRANCH  33  36
ENDBRANCH  13  33
TORSDOF 9
ENDMDL