MODEL 3
REMARK VINA RESULT: -6.842801658      2.949      5.256
REMARK  8 active torsions:
REMARK  status: ('A' for Active; 'I' for Inactive)
REMARK    1  A    between atoms: C4_4  and  C5_5
REMARK    2  A    between atoms: C5_5  and  C6_6
REMARK    3  A    between atoms: C6_6  and  C7_7
REMARK    4  A    between atoms: C9_9  and  O1_10
REMARK    5  A    between atoms: C11_13  and  O2_14
REMARK    6  A    between atoms: C15_19  and  O3_20
REMARK    7  A    between atoms: C18_24  and  C19_25
REMARK    8  A    between atoms: C19_25  and  N1_27
REMARK       I    between atoms: N1_27  and  C21_29
REMARK       I    between atoms: C21_29  and  N3_33
ROOT
HETATM    1  C7  UNL     1      -8.130  -7.763  -6.314  1.00  0.00    -0.013 C
HETATM    2  C8  UNL     1      -8.535  -8.381  -4.968  1.00  0.00     0.018 C
HETATM    3  C9  UNL     1      -9.235  -8.145  -7.272  1.00  0.00     0.129 C
HETATM    4  C10 UNL     1      -8.925  -7.927  -8.703  1.00  0.00     0.064 C
HETATM    5  C11 UNL     1      -7.510  -8.288  -9.098  1.00  0.00     0.125 C
HETATM    6  C12 UNL     1      -6.924  -9.100  -7.959  1.00  0.00     0.024 C
HETATM    7  C13 UNL     1      -6.761  -8.234  -6.743  1.00  0.00     0.005 C
HETATM    8  C14 UNL     1      -6.129  -9.147  -5.713  1.00  0.00     0.038 C
HETATM    9  C15 UNL     1      -4.667  -9.322  -6.155  1.00  0.00     0.128 C
HETATM   10  C16 UNL     1      -4.487  -9.779  -7.541  1.00  0.00    -0.005 C
HETATM   11  C17 UNL     1      -3.702  -8.712  -8.333  1.00  0.00     0.019 C
HETATM   12  C18 UNL     1      -3.903 -11.102  -7.797  1.00  0.00     0.042 C
HETATM   13  C24 UNL     1      -5.044 -12.024  -7.293  1.00  0.00     0.011 C
HETATM   14  C25 UNL     1      -6.152 -11.442  -8.146  1.00  0.00     0.007 C
HETATM   15  C26 UNL     1      -5.807  -9.972  -8.311  1.00  0.00     0.004 C
ENDROOT
BRANCH  12  16
HETATM   16  C19 UNL     1      -2.599 -11.560  -7.404  1.00  0.00     0.005 C
HETATM   17  C20 UNL     1      -2.332 -11.604  -5.919  1.00  0.00     0.064 C
BRANCH  16  18
HETATM   18  N1  UNL     1      -1.995 -12.699  -7.994  1.00  0.00    -0.200 N
HETATM   19  C21 UNL     1      -0.658 -13.070  -7.696  1.00  0.00     0.673 C
HETATM   20  N2  UNL     1      -0.347 -14.128  -7.031  1.00  0.00    -0.235 N
HETATM   21  N3  UNL     1       0.426 -12.254  -8.139  1.00  0.00    -0.227 N
ATOM     22  H22 UNL     1      -1.121 -14.712  -6.714  1.00  0.00     0.174 HD
ATOM     23  H21 UNL     1       0.614 -14.395  -6.817  1.00  0.00     0.174 HD
HETATM   24  C22 UNL     1       0.306 -11.380  -9.288  1.00  0.00     0.168 C
HETATM   25  C23 UNL     1       1.704 -12.266  -7.447  1.00  0.00     0.168 C
ATOM     26  H1  UNL     1      -2.535 -13.267  -8.647  1.00  0.00     0.183 HD
ENDBRANCH  16  18
ENDBRANCH  12  16
BRANCH   9  27
HETATM   27  O3  UNL     1      -4.158  -8.001  -6.026  1.00  0.00    -0.395 OA
ATOM     28  H3  UNL     1      -4.230  -7.673  -6.916  1.00  0.00     0.210 HD
ENDBRANCH   9  27
BRANCH   5  29
HETATM   29  O2  UNL     1      -6.855  -7.118  -9.372  1.00  0.00    -0.395 OA
ATOM     30  H2  UNL     1      -7.279  -6.730 -10.128  1.00  0.00     0.210 HD
ENDBRANCH   5  29
BRANCH   1  31
HETATM   31  C6  UNL     1      -8.174  -6.269  -6.154  1.00  0.00     0.016 C
BRANCH  31  32
HETATM   32  C5  UNL     1      -6.847  -5.591  -6.273  1.00  0.00     0.028 C
BRANCH  32  33
HETATM   33  C4  UNL     1      -6.437  -5.162  -4.907  1.00  0.00    -0.025 C
HETATM   34  C2  UNL     1      -5.223  -4.689  -4.645  1.00  0.00    -0.091 C
HETATM   35  C1  UNL     1      -4.801  -4.258  -3.290  1.00  0.00     0.042 C
HETATM   36  C3  UNL     1      -4.236  -4.585  -5.752  1.00  0.00     0.042 C
ENDBRANCH  32  33
ENDBRANCH  31  32
ENDBRANCH   1  31
BRANCH   3  37
HETATM   37  O1  UNL     1     -10.325  -7.299  -6.951  1.00  0.00    -0.395 OA
ATOM     38  H1  UNL     1     -11.104  -7.827  -7.085  1.00  0.00     0.210 HD
ENDBRANCH   3  37
TORSDOF 8
ENDMDL