MODEL 5
REMARK VINA RESULT: -6.354366096      2.420      7.289
REMARK  8 active torsions:
REMARK  status: ('A' for Active; 'I' for Inactive)
REMARK    1  A    between atoms: C2_2  and  C3_3
REMARK       I    between atoms: C3_3  and  N1_5
REMARK    2  A    between atoms: N1_5  and  C4_7
REMARK    3  A    between atoms: C4_7  and  C5_8
REMARK    4  A    between atoms: C5_8  and  C6_9
REMARK    5  A    between atoms: C6_9  and  C7_10
REMARK    6  A    between atoms: C7_10  and  O2_11
REMARK    7  A    between atoms: C19_24  and  O3_25
REMARK    8  A    between atoms: C26_33  and  O4_34
ROOT
HETATM    1  C1  UNL     1      -9.668  -5.320  -7.991  1.00  0.00     0.026 C
HETATM    2  C2  UNL     1      -8.533  -6.281  -7.596  1.00  0.00     0.044 C
HETATM    3  C8  UNL     1      -7.438  -5.969  -8.596  1.00  0.00     0.019 C
HETATM    4  C9  UNL     1      -7.761  -6.464  -9.974  1.00  0.00     0.002 C
HETATM    5  C10 UNL     1      -7.798  -7.954  -9.870  1.00  0.00     0.010 C
HETATM    6  C11 UNL     1      -8.882  -8.372  -8.955  1.00  0.00    -0.033 C
HETATM    7  C12 UNL     1     -10.184  -8.070  -9.727  1.00  0.00     0.016 C
HETATM    8  C13 UNL     1      -8.875  -9.840  -8.805  1.00  0.00    -0.001 C
HETATM    9  C14 UNL     1      -8.542 -10.681  -9.991  1.00  0.00     0.012 C
HETATM   10  C15 UNL     1      -8.363 -11.974  -9.239  1.00  0.00     0.005 C
HETATM   11  C16 UNL     1      -8.166 -13.204  -9.975  1.00  0.00    -0.017 C
HETATM   12  C17 UNL     1      -9.469 -13.503 -10.739  1.00  0.00     0.018 C
HETATM   13  C18 UNL     1      -7.078 -13.226 -11.000  1.00  0.00     0.018 C
HETATM   14  C19 UNL     1      -7.971 -14.314  -8.936  1.00  0.00     0.126 C
HETATM   15  C20 UNL     1      -8.180 -13.828  -7.536  1.00  0.00     0.033 C
HETATM   16  C21 UNL     1      -7.419 -12.617  -7.138  1.00  0.00     0.012 C
HETATM   17  C22 UNL     1      -7.325 -11.597  -8.215  1.00  0.00    -0.035 C
HETATM   18  C23 UNL     1      -5.918 -11.589  -8.745  1.00  0.00     0.016 C
HETATM   19  C24 UNL     1      -7.702 -10.209  -7.877  1.00  0.00     0.001 C
HETATM   20  C25 UNL     1      -8.248  -9.929  -6.545  1.00  0.00     0.038 C
HETATM   21  C26 UNL     1      -8.416  -8.427  -6.443  1.00  0.00     0.124 C
HETATM   22  C27 UNL     1      -8.962  -7.717  -7.616  1.00  0.00     0.040 C
ENDROOT
BRANCH   2  23
HETATM   23  C3  UNL     1      -8.029  -5.785  -6.297  1.00  0.00     0.226 C
HETATM   24  O1  UNL     1      -8.826  -5.592  -5.311  1.00  0.00    -0.273 OA
HETATM   25  N1  UNL     1      -6.665  -5.492  -6.037  1.00  0.00    -0.360 N
ATOM     26  H1  UNL     1      -5.985  -5.628  -6.786  1.00  0.00     0.162 HD
BRANCH  25  27
HETATM   27  C4  UNL     1      -6.192  -5.003  -4.745  1.00  0.00     0.122 C
BRANCH  27  28
HETATM   28  C5  UNL     1      -4.766  -5.319  -4.513  1.00  0.00     0.022 C
BRANCH  28  29
HETATM   29  C6  UNL     1      -4.469  -6.773  -4.651  1.00  0.00     0.028 C
BRANCH  29  30
HETATM   30  C7  UNL     1      -3.598  -7.168  -5.803  1.00  0.00     0.164 C
BRANCH  30  31
HETATM   31  O2  UNL     1      -3.165  -8.458  -5.832  1.00  0.00    -0.401 OA
ATOM     32  H2  UNL     1      -3.306  -8.975  -5.048  1.00  0.00     0.209 HD
ENDBRANCH  30  31
ENDBRANCH  29  30
ENDBRANCH  28  29
ENDBRANCH  27  28
ENDBRANCH  25  27
ENDBRANCH   2  23
BRANCH  21  33
HETATM   33  O4  UNL     1      -9.293  -8.299  -5.326  1.00  0.00    -0.395 OA
ATOM     34  H4  UNL     1      -9.854  -9.060  -5.423  1.00  0.00     0.210 HD
ENDBRANCH  21  33
BRANCH  14  35
HETATM   35  O3  UNL     1      -6.759 -14.980  -9.123  1.00  0.00    -0.395 OA
ATOM     36  H3  UNL     1      -6.233 -14.971  -8.331  1.00  0.00     0.210 HD
ENDBRANCH  14  35
TORSDOF 8
ENDMDL