MODEL 5
REMARK VINA RESULT: -9.242322650      1.403      1.690
REMARK  5 active torsions:
REMARK  status: ('A' for Active; 'I' for Inactive)
REMARK    1  A    between atoms: C1_2  and  C2_3
REMARK       I    between atoms: C1_2  and  N3_28
REMARK    2  A    between atoms: C2_3  and  C3_4
REMARK    3  A    between atoms: C11_15  and  C12_16
REMARK    4  A    between atoms: N3_28  and  C19_30
REMARK    5  A    between atoms: C19_30  and  C20_31
ROOT
HETATM    1  C3  UNL     1      -3.996 -11.978  -7.643  1.00  0.00     0.194 C
HETATM    2  C4  UNL     1      -5.314 -12.684  -7.860  1.00  0.00     0.033 C
HETATM    3  C5  UNL     1      -6.118 -11.836  -8.830  1.00  0.00     0.002 C
HETATM    4  C6  UNL     1      -7.606 -11.970  -8.609  1.00  0.00     0.000 C
HETATM    5  C7  UNL     1      -8.300 -11.294  -9.760  1.00  0.00     0.000 C
HETATM    6  C8  UNL     1      -8.984  -9.997  -9.336  1.00  0.00     0.009 C
HETATM    7  C9  UNL     1      -8.012  -8.864  -9.317  1.00  0.00     0.103 C
HETATM    8  C10 UNL     1      -8.560  -7.628  -9.936  1.00  0.00     0.218 C
HETATM    9  O2  UNL     1      -9.544  -7.824 -10.713  1.00  0.00    -0.274 OA
HETATM   10  N1  UNL     1      -8.076  -6.317  -9.722  1.00  0.00    -0.347 N
ATOM     11  H1  UNL     1      -7.927  -5.740 -10.551  1.00  0.00     0.163 HD
HETATM   12  C11 UNL     1      -7.772  -5.716  -8.446  1.00  0.00     0.185 C
HETATM   13  C13 UNL     1      -6.356  -5.934  -8.017  1.00  0.00     0.036 C
HETATM   14  C14 UNL     1      -6.219  -6.501  -6.622  1.00  0.00     0.002 C
HETATM   15  C15 UNL     1      -4.835  -7.165  -6.540  1.00  0.00     0.000 C
HETATM   16  C16 UNL     1      -4.873  -8.087  -5.332  1.00  0.00     0.002 C
HETATM   17  C17 UNL     1      -5.124  -9.526  -5.796  1.00  0.00     0.027 C
HETATM   18  C18 UNL     1      -3.770 -10.123  -6.119  1.00  0.00     0.232 C
HETATM   19  N2  UNL     1      -3.830 -11.560  -6.264  1.00  0.00    -0.070 N
ATOM     20  H21 UNL     1      -3.014 -12.004  -5.843  1.00  0.00     0.277 HD
ATOM     21  H22 UNL     1      -4.559 -11.957  -5.671  1.00  0.00     0.277 HD
ENDROOT
BRANCH   1  22
HETATM   22  C2  UNL     1      -2.894 -12.917  -8.080  1.00  0.00     0.135 C
BRANCH  22  23
HETATM   23  C1  UNL     1      -1.595 -12.163  -8.225  1.00  0.00     0.219 C
HETATM   24  O1  UNL     1      -1.627 -10.910  -8.203  1.00  0.00    -0.274 OA
HETATM   25  N3  UNL     1      -0.371 -12.825  -8.381  1.00  0.00    -0.361 N
ATOM     26  H3  UNL     1      -0.434 -13.843  -8.376  1.00  0.00     0.162 HD
BRANCH  25  27
HETATM   27  C19 UNL     1       0.940 -12.318  -8.545  1.00  0.00     0.127 C
BRANCH  27  28
HETATM   28  C20 UNL     1       2.024 -12.706  -7.655  1.00  0.00     0.003 C
HETATM   29  C21 UNL     1       3.394 -12.691  -8.324  1.00  0.00     0.006 C
HETATM   30  C22 UNL     1       4.485 -12.839  -7.279  1.00  0.00     0.000 C
HETATM   31  C23 UNL     1       4.022 -13.693  -6.122  1.00  0.00     0.000 C
HETATM   32  C24 UNL     1       2.841 -13.111  -5.379  1.00  0.00     0.000 C
HETATM   33  C25 UNL     1       2.073 -12.139  -6.285  1.00  0.00     0.006 C
ENDBRANCH  27  28
ENDBRANCH  25  27
ENDBRANCH  22  23
ENDBRANCH   1  22
BRANCH  12  34
HETATM   34  C12 UNL     1      -8.741  -6.077  -7.397  1.00  0.00     0.196 C
HETATM   35  O3  UNL     1      -9.624  -5.249  -6.979  1.00  0.00    -0.646 OA
HETATM   36  O4  UNL     1      -8.790  -7.316  -6.777  1.00  0.00    -0.646 OA
ENDBRANCH  12  34
TORSDOF 5
ENDMDL