MODEL 5
REMARK VINA RESULT: -8.933114329      1.947      4.830
REMARK  7 active torsions:
REMARK  status: ('A' for Active; 'I' for Inactive)
REMARK    1  A    between atoms: C2_2  and  C21_37
REMARK    2  A    between atoms: C3_3  and  C4_4
REMARK       I    between atoms: C4_4  and  N1_6
REMARK       I    between atoms: C5_8  and  N2_9
REMARK       I    between atoms: C5_8  and  N4_19
REMARK       I    between atoms: N2_9  and  C6_10
REMARK    3  A    between atoms: C6_10  and  C7_12
REMARK    4  A    between atoms: C7_12  and  C8_13
REMARK    5  A    between atoms: C8_13  and  C9_14
REMARK    6  A    between atoms: C9_14  and  N3_15
REMARK    7  A    between atoms: N4_19  and  C10_21
ROOT
HETATM    1  C4  UNL     1      -3.571 -10.184  -6.021  1.00  0.00     0.248 C
HETATM    2  O1  UNL     1      -4.138 -10.999  -5.192  1.00  0.00    -0.268 OA
HETATM    3  N1  UNL     1      -2.424 -10.653  -6.640  1.00  0.00    -0.283 N
ATOM      4  H1  UNL     1      -1.567 -10.128  -6.465  1.00  0.00     0.173 HD
HETATM    5  C5  UNL     1      -2.317 -11.707  -7.433  1.00  0.00     0.262 C
HETATM    6  N2  UNL     1      -3.331 -12.502  -7.773  1.00  0.00    -0.335 NA
HETATM    7  C6  UNL     1      -4.382 -13.326  -8.126  1.00  0.00     0.294 C
HETATM    8  O2  UNL     1      -4.333 -14.363  -8.868  1.00  0.00    -0.257 OA
HETATM    9  N4  UNL     1      -0.925 -11.857  -7.840  1.00  0.00    -0.329 N
ATOM     10  H4  UNL     1      -0.711 -11.873  -8.837  1.00  0.00     0.165 HD
ENDROOT
BRANCH   9  11
HETATM   11  C10 UNL     1       0.156 -11.982  -6.914  1.00  0.00     0.186 C
HETATM   12  C11 UNL     1       0.762 -13.355  -7.017  1.00  0.00     0.047 C
HETATM   13  C12 UNL     1       1.562 -13.622  -8.237  1.00  0.00     0.004 C
HETATM   14  C13 UNL     1       2.863 -12.934  -8.370  1.00  0.00     0.000 C
HETATM   15  C14 UNL     1       3.983 -13.514  -7.509  1.00  0.00     0.000 C
HETATM   16  C15 UNL     1       4.747 -12.446  -6.816  1.00  0.00     0.000 C
HETATM   17  C16 UNL     1       4.921 -12.507  -5.363  1.00  0.00     0.000 C
HETATM   18  C17 UNL     1       3.963 -13.255  -4.531  1.00  0.00     0.000 C
HETATM   19  C18 UNL     1       3.005 -12.409  -3.711  1.00  0.00     0.007 C
HETATM   20  C19 UNL     1       2.160 -11.513  -4.546  1.00  0.00     0.075 C
HETATM   21  C20 UNL     1       0.702 -11.770  -4.465  1.00  0.00     0.072 C
HETATM   22  N5  UNL     1       0.200 -12.078  -3.322  1.00  0.00    -0.389 N
HETATM   23  N6  UNL     1      -0.202 -11.680  -5.556  1.00  0.00    -0.359 N
ATOM     24  H52 UNL     1       0.850 -12.143  -2.538  1.00  0.00     0.157 HD
ATOM     25  H51 UNL     1      -0.803 -12.255  -3.266  1.00  0.00     0.157 HD
ATOM     26  H6  UNL     1      -1.159 -11.383  -5.365  1.00  0.00     0.162 HD
ENDBRANCH   9  11
BRANCH   1  27
HETATM   27  C3  UNL     1      -4.209  -8.891  -6.189  1.00  0.00     0.077 C
HETATM   28  C2  UNL     1      -4.980  -8.572  -7.204  1.00  0.00    -0.071 C
HETATM   29  C1  UNL     1      -5.290  -9.500  -8.299  1.00  0.00     0.044 C
BRANCH  28  30
HETATM   30  C21 UNL     1      -5.568  -7.196  -7.252  1.00  0.00    -0.028 C
HETATM   31  C22 UNL     1      -6.485  -7.060  -8.448  1.00  0.00     0.019 C
HETATM   32  C23 UNL     1      -4.496  -6.136  -7.396  1.00  0.00     0.019 C
HETATM   33  C24 UNL     1      -6.345  -6.975  -6.000  1.00  0.00     0.019 C
ENDBRANCH  28  30
ENDBRANCH   1  27
BRANCH   7  34
HETATM   34  C7  UNL     1      -5.782 -13.044  -7.625  1.00  0.00     0.121 C
BRANCH  34  35
HETATM   35  C8  UNL     1      -6.793 -13.524  -8.587  1.00  0.00     0.038 C
BRANCH  35  36
HETATM   36  C9  UNL     1      -7.281 -12.537  -9.589  1.00  0.00     0.230 C
BRANCH  36  37
HETATM   37  N3  UNL     1      -6.528 -12.821 -10.833  1.00  0.00    -0.079 N
ATOM     38  H33 UNL     1      -5.561 -13.100 -10.670  1.00  0.00     0.274 HD
ATOM     39  H32 UNL     1      -6.824 -13.676 -11.304  1.00  0.00     0.274 HD
ATOM     40  H31 UNL     1      -6.621 -11.984 -11.409  1.00  0.00     0.274 HD
ENDBRANCH  36  37
ENDBRANCH  35  36
ENDBRANCH  34  35
ENDBRANCH   7  34
TORSDOF 7
ENDMDL