MODEL 2
REMARK VINA RESULT: -6.747336454      1.799      7.279
REMARK  8 active torsions:
REMARK  status: ('A' for Active; 'I' for Inactive)
REMARK    1  A    between atoms: C2_2  and  N1_4
REMARK    2  A    between atoms: N1_4  and  C4_6
REMARK    3  A    between atoms: C7_9  and  O1_10
REMARK    4  A    between atoms: C10_14  and  O2_15
REMARK    5  A    between atoms: C20_26  and  O3_27
REMARK    6  A    between atoms: C21_29  and  C22_30
REMARK    7  A    between atoms: C22_30  and  C24_32
REMARK    8  A    between atoms: C25_33  and  C26_34
ROOT
HETATM    1  C4  UNL     1      -5.165 -11.872  -8.059  1.00  0.00     0.085 C
HETATM    2  C5  UNL     1      -6.092 -12.850  -8.643  1.00  0.00     0.017 C
HETATM    3  C6  UNL     1      -6.701 -12.426  -9.965  1.00  0.00     0.038 C
HETATM    4  C7  UNL     1      -7.768 -13.490 -10.132  1.00  0.00     0.119 C
HETATM    5  C8  UNL     1      -8.329 -13.642  -8.739  1.00  0.00     0.039 C
HETATM    6  C9  UNL     1      -7.232 -13.300  -7.767  1.00  0.00     0.023 C
HETATM    7  C10 UNL     1      -7.623 -12.366  -6.685  1.00  0.00     0.123 C
HETATM    8  C11 UNL     1      -7.832 -10.940  -7.090  1.00  0.00     0.037 C
HETATM    9  C12 UNL     1      -6.552 -10.151  -7.032  1.00  0.00    -0.001 C
HETATM   10  C13 UNL     1      -5.599 -10.415  -8.142  1.00  0.00     0.013 C
HETATM   11  C14 UNL     1      -4.320  -9.640  -7.782  1.00  0.00     0.008 C
HETATM   12  C15 UNL     1      -4.631  -8.204  -7.755  1.00  0.00     0.010 C
HETATM   13  C16 UNL     1      -5.693  -7.793  -6.718  1.00  0.00    -0.033 C
HETATM   14  C17 UNL     1      -5.035  -7.959  -5.404  1.00  0.00     0.016 C
HETATM   15  C18 UNL     1      -6.880  -8.727  -6.763  1.00  0.00     0.001 C
HETATM   16  C19 UNL     1      -7.931  -8.117  -7.630  1.00  0.00     0.038 C
HETATM   17  C20 UNL     1      -7.265  -6.849  -8.144  1.00  0.00     0.124 C
HETATM   18  C21 UNL     1      -6.211  -6.500  -7.153  1.00  0.00     0.030 C
ENDROOT
BRANCH  18  19
HETATM   19  C22 UNL     1      -6.673  -5.466  -6.181  1.00  0.00     0.011 C
HETATM   20  C23 UNL     1      -5.421  -4.610  -5.769  1.00  0.00     0.015 C
BRANCH  19  21
HETATM   21  C24 UNL     1      -7.341  -5.901  -4.984  1.00  0.00    -0.015 C
HETATM   22  C25 UNL     1      -8.574  -5.832  -4.606  1.00  0.00     0.080 C
BRANCH  22  23
HETATM   23  C26 UNL     1      -9.725  -5.273  -5.269  1.00  0.00     0.198 C
HETATM   24  O4  UNL     1     -10.291  -4.250  -4.849  1.00  0.00    -0.645 OA
HETATM   25  O5  UNL     1     -10.286  -5.834  -6.422  1.00  0.00    -0.645 OA
ENDBRANCH  22  23
ENDBRANCH  19  21
ENDBRANCH  18  19
BRANCH  17  26
HETATM   26  O3  UNL     1      -8.114  -5.873  -8.549  1.00  0.00    -0.395 OA
ATOM     27  H3  UNL     1      -8.733  -5.575  -7.891  1.00  0.00     0.210 HD
ENDBRANCH  17  26
BRANCH   1  28
HETATM   28  N1  UNL     1      -3.834 -11.958  -8.558  1.00  0.00    -0.413 N
ATOM     29  H1  UNL     1      -3.541 -11.452  -9.394  1.00  0.00     0.154 HD
BRANCH  28  30
HETATM   30  C2  UNL     1      -2.939 -12.782  -7.836  1.00  0.00     0.068 C
HETATM   31  C1  UNL     1      -2.784 -12.399  -6.367  1.00  0.00     0.031 C
HETATM   32  C3  UNL     1      -1.527 -12.727  -8.441  1.00  0.00     0.031 C
ENDBRANCH  28  30
ENDBRANCH   1  28
BRANCH   7  33
HETATM   33  O2  UNL     1      -8.847 -12.822  -6.158  1.00  0.00    -0.395 OA
ATOM     34  H2  UNL     1      -8.746 -12.877  -5.215  1.00  0.00     0.210 HD
ENDBRANCH   7  33
BRANCH   4  35
HETATM   35  O1  UNL     1      -7.195 -14.678 -10.590  1.00  0.00    -0.396 OA
ATOM     36  H1  UNL     1      -7.767 -15.412 -10.401  1.00  0.00     0.210 HD
ENDBRANCH   4  35
TORSDOF 8
ENDMDL