MODEL 1
REMARK VINA RESULT: -7.729972155      0.000      0.000
REMARK  7 active torsions:
REMARK  status: ('A' for Active; 'I' for Inactive)
REMARK    1  A    between atoms: C2_2  and  C3_3
REMARK    2  A    between atoms: C3_3  and  N1_4
REMARK    3  A    between atoms: N1_4  and  C4_6
REMARK    4  A    between atoms: C4_6  and  C5_10
REMARK    5  A    between atoms: C7_12  and  O1_13
REMARK    6  A    between atoms: C8_15  and  O2_16
REMARK    7  A    between atoms: C20_29  and  C22_31
ROOT
HETATM    1  C5  UNL     1      -7.648  -8.268  -8.850  1.00  0.00     0.061 C
HETATM    2  C6  UNL     1      -7.442  -7.023  -8.007  1.00  0.00     0.053 C
HETATM    3  C7  UNL     1      -7.350  -7.491  -6.551  1.00  0.00     0.089 C
HETATM    4  C8  UNL     1      -7.682  -6.405  -5.597  1.00  0.00     0.153 C
HETATM    5  C9  UNL     1      -6.610  -5.773  -4.824  1.00  0.00     0.039 C
HETATM    6  C10 UNL     1      -5.271  -6.433  -4.857  1.00  0.00    -0.016 C
HETATM    7  C11 UNL     1      -4.209  -5.380  -4.507  1.00  0.00     0.010 C
HETATM    8  C12 UNL     1      -4.993  -7.000  -6.221  1.00  0.00     0.012 C
HETATM    9  C13 UNL     1      -6.022  -8.120  -6.416  1.00  0.00     0.031 C
HETATM   10  C14 UNL     1      -5.566  -8.928  -7.571  1.00  0.00    -0.033 C
HETATM   11  C15 UNL     1      -4.338  -8.334  -8.256  1.00  0.00     0.016 C
HETATM   12  C16 UNL     1      -5.023 -10.251  -6.992  1.00  0.00     0.010 C
HETATM   13  C17 UNL     1      -4.674 -11.216  -8.079  1.00  0.00     0.006 C
HETATM   14  C18 UNL     1      -5.953 -11.647  -8.753  1.00  0.00    -0.009 C
HETATM   15  C19 UNL     1      -6.325 -13.031  -8.298  1.00  0.00     0.025 C
HETATM   16  C20 UNL     1      -7.506 -13.486  -9.108  1.00  0.00     0.045 C
HETATM   17  C21 UNL     1      -7.050 -13.700 -10.533  1.00  0.00     0.027 C
HETATM   18  C23 UNL     1      -8.639 -12.529  -8.994  1.00  0.00     0.020 C
HETATM   19  C24 UNL     1      -8.253 -11.091  -9.242  1.00  0.00     0.007 C
HETATM   20  C25 UNL     1      -7.118 -10.711  -8.365  1.00  0.00    -0.005 C
HETATM   21  C26 UNL     1      -6.597  -9.313  -8.591  1.00  0.00     0.010 C
ENDROOT
BRANCH   1  22
HETATM   22  C4  UNL     1      -7.588  -7.743 -10.269  1.00  0.00     0.075 C
HETATM   23  N2  UNL     1      -8.563  -7.897 -11.090  1.00  0.00    -0.389 N
ATOM     24  H22 UNL     1      -8.523  -7.543 -12.046  1.00  0.00     0.157 HD
ATOM     25  H21 UNL     1      -9.367  -8.402 -10.718  1.00  0.00     0.157 HD
BRANCH  22  26
HETATM   26  N1  UNL     1      -6.473  -7.041 -10.785  1.00  0.00    -0.380 N
ATOM     27  H1  UNL     1      -5.608  -6.994 -10.246  1.00  0.00     0.160 HD
BRANCH  26  28
HETATM   28  C3  UNL     1      -6.553  -6.390 -12.071  1.00  0.00     0.120 C
BRANCH  28  29
HETATM   29  C2  UNL     1      -5.222  -6.504 -12.759  1.00  0.00     0.015 C
HETATM   30  C1  UNL     1      -4.224  -7.035 -11.771  1.00  0.00     0.006 C
ENDBRANCH  28  29
ENDBRANCH  26  28
ENDBRANCH  22  26
ENDBRANCH   1  22
BRANCH   3  31
HETATM   31  O1  UNL     1      -8.347  -8.460  -6.431  1.00  0.00    -0.387 OA
ATOM     32  H1  UNL     1      -8.029  -9.047  -5.756  1.00  0.00     0.210 HD
ENDBRANCH   3  31
BRANCH   4  33
HETATM   33  O2  UNL     1      -8.701  -6.803  -4.693  1.00  0.00    -0.393 OA
ATOM     34  H2  UNL     1      -9.336  -6.109  -4.558  1.00  0.00     0.210 HD
ENDBRANCH   4  33
BRANCH  16  35
HETATM   35  C22 UNL     1      -7.948 -14.810  -8.602  1.00  0.00     0.181 C
HETATM   36  O3  UNL     1      -8.005 -15.810  -9.394  1.00  0.00    -0.647 OA
HETATM   37  O4  UNL     1      -8.314 -15.044  -7.288  1.00  0.00    -0.647 OA
ENDBRANCH  16  35
TORSDOF 7
ENDMDL