MODEL 4
REMARK VINA RESULT: -3.958961300      1.336      2.029
REMARK  0 active torsions:
REMARK  status: ('A' for Active; 'I' for Inactive)
ROOT
HETATM    1  C1  UNL     1     -34.102   4.128   3.819  1.00  0.00     0.015 C
HETATM    2  C2  UNL     1     -34.789   5.382   4.379  1.00  0.00    -0.040 A
HETATM    3  C3  UNL     1     -36.170   5.579   3.850  1.00  0.00     0.015 C
HETATM    4  C4  UNL     1     -33.915   6.533   4.745  1.00  0.00    -0.001 A
HETATM    5  C5  UNL     1     -33.994   7.133   6.140  1.00  0.00     0.011 A
HETATM    6  C6  UNL     1     -34.471   5.721   5.823  1.00  0.00    -0.001 A
ENDROOT
TORSDOF 0
ENDMDL