MODEL 3
REMARK VINA RESULT: -3.739241572      0.069      1.586
REMARK  0 active torsions:
REMARK  status: ('A' for Active; 'I' for Inactive)
ROOT
HETATM    1  C1  UNL     1     -34.107   6.368   5.414  1.00  0.00     0.009 C
HETATM    2  C2  UNL     1     -34.176   5.735   4.054  1.00  0.00    -0.013 C
HETATM    3  C3  UNL     1     -34.028   4.424   4.768  1.00  0.00     0.009 C
HETATM    4  C4  UNL     1     -35.016   5.199   5.617  1.00  0.00    -0.013 C
HETATM    5  C5  UNL     1     -35.656   5.583   4.315  1.00  0.00     0.009 C
ENDROOT
TORSDOF 0
ENDMDL