MODEL 1
REMARK VINA RESULT: -4.750358908      0.000      0.000
REMARK  0 active torsions:
REMARK  status: ('A' for Active; 'I' for Inactive)
ROOT
HETATM    1  C1  UNL     1     -34.101   4.368   4.894  1.00  0.00     0.014 C
HETATM    2  C2  UNL     1     -34.322   5.190   3.721  1.00  0.00    -0.008 C
HETATM    3  C3  UNL     1     -35.719   5.450   4.210  1.00  0.00     0.014 C
HETATM    4  C4  UNL     1     -34.887   5.565   5.494  1.00  0.00    -0.035 A
HETATM    5  C5  UNL     1     -34.067   6.629   5.920  1.00  0.00     0.015 A
HETATM    6  C6  UNL     1     -34.036   6.453   4.487  1.00  0.00    -0.001 A
ENDROOT
TORSDOF 0
ENDMDL