MODEL 1
REMARK VINA RESULT: -4.980937655      0.000      0.000
REMARK  0 active torsions:
REMARK  status: ('A' for Active; 'I' for Inactive)
ROOT
HETATM    1  C1  UNL     1     -32.849   7.037   2.725  1.00  0.00     0.010 C
HETATM    2  C2  UNL     1     -33.203   6.017   3.744  1.00  0.00    -0.014 C
HETATM    3  C3  UNL     1     -34.109   4.901   3.317  1.00  0.00     0.009 C
HETATM    4  C4  UNL     1     -35.115   5.248   4.374  1.00  0.00    -0.009 A
HETATM    5  C5  UNL     1     -34.650   5.597   5.772  1.00  0.00     0.010 A
HETATM    6  C6  UNL     1     -34.336   6.496   4.659  1.00  0.00    -0.006 A
ENDROOT
TORSDOF 0
ENDMDL