MODEL 1
REMARK VINA RESULT: -5.404846919      0.000      0.000
REMARK  0 active torsions:
REMARK  status: ('A' for Active; 'I' for Inactive)
ROOT
HETATM    1  C1  UNL     1     -32.103   7.360   3.337  1.00  0.00     0.036 C
HETATM    2  C2  UNL     1     -33.259   6.444   3.255  1.00  0.00    -0.028 C
HETATM    3  C3  UNL     1     -34.057   6.181   4.283  1.00  0.00    -0.084 C
HETATM    4  C4  UNL     1     -34.126   6.614   5.707  1.00  0.00     0.034 C
HETATM    5  C5  UNL     1     -34.783   5.275   6.011  1.00  0.00     0.009 C
HETATM    6  C6  UNL     1     -35.262   5.350   4.557  1.00  0.00     0.034 C
ENDROOT
TORSDOF 0
ENDMDL