MODEL 4
REMARK VINA RESULT: -3.097940573      0.832      2.587
REMARK  0 active torsions:
REMARK  status: ('A' for Active; 'I' for Inactive)
ROOT
HETATM    1  C1  UNL     1     -33.928   6.879   5.821  1.00  0.00     0.309 C
HETATM    2  N1  UNL     1     -34.446   6.274   4.644  1.00  0.00     0.084 N
HETATM    3  C2  UNL     1     -33.568   5.966   3.574  1.00  0.00     0.273 C
HETATM    4  C3  UNL     1     -34.205   4.568   3.533  1.00  0.00     0.060 C
HETATM    5  C4  UNL     1     -34.860   4.905   4.875  1.00  0.00     0.273 C
ENDROOT
TORSDOF 0
ENDMDL