MODEL 3
REMARK VINA RESULT: -4.981089436      0.667      3.014
REMARK  1 active torsions:
REMARK  status: ('A' for Active; 'I' for Inactive)
REMARK    1  A    between atoms: C2_2  and  C3_3
ROOT
HETATM    1  C3  UNL     1     -34.743   5.451   4.143  1.00  0.00     0.007 C
HETATM    2  C4  UNL     1     -34.118   4.097   3.779  1.00  0.00     0.008 C
HETATM    3  C5  UNL     1     -33.519   4.821   2.569  1.00  0.00     0.001 C
HETATM    4  C6  UNL     1     -33.564   6.081   3.421  1.00  0.00     0.008 C
ENDROOT
BRANCH   1   5
HETATM    5  C2  UNL     1     -34.807   5.703   5.588  1.00  0.00    -0.032 C
HETATM    6  C1  UNL     1     -34.106   6.692   6.097  1.00  0.00     0.007 C
ENDBRANCH   1   5
TORSDOF 1
ENDMDL