MODEL 2
REMARK VINA RESULT: -4.603307904      0.386      2.830
REMARK  0 active torsions:
REMARK  status: ('A' for Active; 'I' for Inactive)
ROOT
HETATM    1  C1  UNL     1     -34.248   6.899   6.107  1.00  0.00     0.014 C
HETATM    2  C2  UNL     1     -34.515   5.843   5.345  1.00  0.00    -0.088 C
HETATM    3  C3  UNL     1     -34.037   4.453   5.196  1.00  0.00     0.037 C
HETATM    4  C4  UNL     1     -34.585   4.453   3.796  1.00  0.00    -0.011 C
HETATM    5  C5  UNL     1     -33.522   4.838   2.804  1.00  0.00     0.010 C
HETATM    6  C6  UNL     1     -35.478   5.601   4.242  1.00  0.00     0.037 C
ENDROOT
TORSDOF 0
ENDMDL