MODEL 3
REMARK VINA RESULT: -5.501726509      0.624      1.202
REMARK  0 active torsions:
REMARK  status: ('A' for Active; 'I' for Inactive)
ROOT
HETATM    1  C1  UNL     1     -34.800   4.964   5.128  1.00  0.00    -0.030 A
HETATM    2  C2  UNL     1     -34.696   5.619   5.723  1.00  0.00    -0.030 A
HETATM    3  C3  UNL     1     -34.153   6.828   6.003  1.00  0.00     0.026 A
HETATM    4  C4  UNL     1     -33.431   6.911   4.498  1.00  0.00     0.004 A
HETATM    5  C5  UNL     1     -33.653   5.876   3.504  1.00  0.00     0.004 A
HETATM    6  C6  UNL     1     -34.530   4.492   3.879  1.00  0.00     0.026 A
ENDROOT
TORSDOF 0
ENDMDL