MODEL 3
REMARK VINA RESULT: -5.028608977      0.757      2.688
REMARK  0 active torsions:
REMARK  status: ('A' for Active; 'I' for Inactive)
ROOT
HETATM    1  C1  UNL     1     -34.434   4.223   3.713  1.00  0.00     0.043 C
HETATM    2  C2  UNL     1     -34.255   5.414   4.614  1.00  0.00    -0.082 A
HETATM    3  C3  UNL     1     -33.582   6.531   4.444  1.00  0.00    -0.082 A
HETATM    4  C4  UNL     1     -32.724   7.146   3.370  1.00  0.00     0.043 C
HETATM    5  C5  UNL     1     -33.992   7.007   5.772  1.00  0.00     0.038 A
HETATM    6  C6  UNL     1     -34.748   5.747   5.958  1.00  0.00     0.038 A
ENDROOT
TORSDOF 0
ENDMDL