MODEL 3
REMARK VINA RESULT: -3.201311541      7.779      7.823
REMARK  0 active torsions:
REMARK  status: ('A' for Active; 'I' for Inactive)
ROOT
HETATM    1  F1  UNL     1      81.841 -14.139  45.118  1.00  0.00    -0.191 F
HETATM    2  C1  UNL     1      82.704 -14.783  44.266  1.00  0.00     0.364 A
HETATM    3 CL1  UNL     1      84.261 -13.916  44.064  1.00  0.00    -0.051 Cl
HETATM    4  C2  UNL     1      82.680 -16.251  44.298  1.00  0.00     0.329 A
HETATM    5  N1  UNL     1      82.192 -15.538  43.150  1.00  0.00    -0.016 N
ATOM      6  H11 UNL     1      82.404 -15.567  42.153  1.00  0.00     0.282 HD
ATOM      7  H12 UNL     1      81.312 -15.537  42.635  1.00  0.00     0.282 HD
ENDROOT
TORSDOF 0
ENDMDL