MODEL 4
REMARK VINA RESULT: -3.338881771      1.235      1.235
REMARK  0 active torsions:
REMARK  status: ('A' for Active; 'I' for Inactive)
ROOT
HETATM    1  N1  UNL     1      87.405 -12.119  46.778  1.00  0.00    -0.111 NA
HETATM    2  C1  UNL     1      86.561 -11.013  47.039  1.00  0.00     0.155 C
HETATM    3  C2  UNL     1      86.976  -9.807  46.795  1.00  0.00     0.199 C
HETATM    4  F1  UNL     1      86.209  -8.729  47.028  1.00  0.00    -0.192 F
HETATM    5 CL1  UNL     1      88.572  -9.584  46.146  1.00  0.00    -0.051 Cl
ENDROOT
TORSDOF 0
ENDMDL