MODEL 5
REMARK VINA RESULT: -4.020928230      1.377      1.815
REMARK  2 active torsions:
REMARK  status: ('A' for Active; 'I' for Inactive)
REMARK    1  A    between atoms: N1_1  and  N2_4
REMARK    2  A    between atoms: N2_4  and  C1_6
ROOT
HETATM    1  C1  UNL     1      87.438 -10.960  47.186  1.00  0.00     0.176 A
HETATM    2  C2  UNL     1      88.960 -10.873  47.114  1.00  0.00     0.114 A
HETATM    3  C3  UNL     1      88.079  -9.783  46.598  1.00  0.00     0.267 A
HETATM    4  F1  UNL     1      88.030  -9.518  45.244  1.00  0.00    -0.204 F
HETATM    5  F2  UNL     1      88.122  -8.624  47.381  1.00  0.00    -0.204 F
ENDROOT
BRANCH   1   6
HETATM    6  N2  UNL     1      86.817 -11.998  46.430  1.00  0.00    -0.332 N
ATOM      7  H2  UNL     1      87.156 -12.960  46.440  1.00  0.00     0.180 HD
BRANCH   6   8
HETATM    8  N1  UNL     1      85.725 -11.608  45.683  1.00  0.00    -0.349 N
ATOM      9  H12 UNL     1      85.076 -10.896  46.019  1.00  0.00     0.176 HD
ATOM     10  H11 UNL     1      85.622 -12.079  44.785  1.00  0.00     0.176 HD
ENDBRANCH   6   8
ENDBRANCH   1   6
TORSDOF 2
ENDMDL