MODEL 4
REMARK VINA RESULT: -3.830849232      5.120      5.579
REMARK  0 active torsions:
REMARK  status: ('A' for Active; 'I' for Inactive)
ROOT
HETATM    1  C1  UNL     1      84.746 -12.410  42.991  1.00  0.00     0.140 C
HETATM    2  N1  UNL     1      85.732 -13.058  43.797  1.00  0.00    -0.149 NA
HETATM    3  N2  UNL     1      85.977 -14.397  43.753  1.00  0.00    -0.067 NA
HETATM    4  C2  UNL     1      85.174 -13.960  44.802  1.00  0.00     0.411 A
HETATM    5  F1  UNL     1      83.815 -14.273  44.701  1.00  0.00    -0.167 F
HETATM    6  F2  UNL     1      85.651 -13.694  46.070  1.00  0.00    -0.167 F
ENDROOT
TORSDOF 0
ENDMDL