MODEL 2
REMARK VINA RESULT: -4.423314482      3.211      3.718
REMARK  0 active torsions:
REMARK  status: ('A' for Active; 'I' for Inactive)
ROOT
HETATM    1  C1  UNL     1      88.426 -10.222  46.945  1.00  0.00     0.195 C
HETATM    2  N1  UNL     1      87.301 -11.167  47.217  1.00  0.00    -0.234 N
HETATM    3  N2  UNL     1      86.945 -12.211  46.671  1.00  0.00    -0.240 N
ATOM      4  H2  UNL     1      87.309 -12.736  45.877  1.00  0.00     0.189 HD
HETATM    5  C2  UNL     1      85.860 -12.417  47.533  1.00  0.00     0.438 A
HETATM    6  F1  UNL     1      84.662 -12.241  46.848  1.00  0.00    -0.162 F
HETATM    7  F2  UNL     1      85.880 -13.557  48.316  1.00  0.00    -0.162 F
HETATM    8  N3  UNL     1      86.286 -11.222  48.140  1.00  0.00    -0.024 NA
ENDROOT
TORSDOF 0
ENDMDL