MODEL 3
REMARK VINA RESULT: -3.659877439      1.550      1.550
REMARK  1 active torsions:
REMARK  status: ('A' for Active; 'I' for Inactive)
REMARK    1  A    between atoms: N1_2  and  N2_4
ROOT
HETATM    1  N2  UNL     1      87.485 -10.955  46.802  1.00  0.00    -0.271 N
ATOM      2  H2  UNL     1      88.227 -11.513  46.380  1.00  0.00     0.190 HD
HETATM    3  C2  UNL     1      87.429  -9.684  46.543  1.00  0.00     0.275 C
HETATM    4  F1  UNL     1      86.440  -8.950  47.109  1.00  0.00    -0.171 F
HETATM    5 CL1  UNL     1      88.563  -8.903  45.512  1.00  0.00    -0.031 Cl
ENDROOT
BRANCH   1   6
HETATM    6  N1  UNL     1      86.567 -11.578  47.634  1.00  0.00    -0.338 N
HETATM    7  C1  UNL     1      85.946 -12.836  47.321  1.00  0.00     0.167 C
ATOM      8  H1  UNL     1      86.321 -11.121  48.512  1.00  0.00     0.179 HD
ENDBRANCH   1   6
TORSDOF 1
ENDMDL