MODEL 5
REMARK VINA RESULT: -3.836901360      1.953      2.406
REMARK  0 active torsions:
REMARK  status: ('A' for Active; 'I' for Inactive)
ROOT
HETATM    1  F1  UNL     1      88.738  -8.253  45.329  1.00  0.00    -0.179 F
HETATM    2  C1  UNL     1      88.204  -9.192  46.177  1.00  0.00     0.274 A
HETATM    3  N1  UNL     1      86.989  -9.329  46.772  1.00  0.00    -0.228 N
ATOM      4  H1  UNL     1      86.120  -8.796  46.774  1.00  0.00     0.197 HD
HETATM    5  O1  UNL     1      87.398 -10.421  47.334  1.00  0.00    -0.200 OA
HETATM    6  C2  UNL     1      88.580 -10.347  46.797  1.00  0.00     0.307 A
HETATM    7  F2  UNL     1      89.689 -11.094  46.840  1.00  0.00    -0.171 F
ENDROOT
TORSDOF 0
ENDMDL