MODEL 1
REMARK VINA RESULT: -3.015345899      0.000      0.000
REMARK  0 active torsions:
REMARK  status: ('A' for Active; 'I' for Inactive)
ROOT
HETATM    1  C1  UNL     1      87.151 -10.579  47.135  1.00  0.00     0.170 C
HETATM    2  N1  UNL     1      88.396 -10.697  46.370  1.00  0.00    -0.064 NA
HETATM    3  F1  UNL     1      89.429 -10.964  47.209  1.00  0.00    -0.117 F
HETATM    4 CL1  UNL     1      88.594  -9.129  45.614  1.00  0.00     0.010 Cl
ENDROOT
TORSDOF 0
ENDMDL