MODEL 4
REMARK VINA RESULT: -3.839402429      8.101      8.310
REMARK  1 active torsions:
REMARK  status: ('A' for Active; 'I' for Inactive)
REMARK    1  A    between atoms: C1_4  and  C2_6
ROOT
HETATM    1  N1  UNL     1      86.881 -12.170  46.764  1.00  0.00    -0.389 N
ATOM      2  H11 UNL     1      87.655 -12.606  46.261  1.00  0.00     0.157 HD
ATOM      3  H12 UNL     1      86.010 -12.650  46.989  1.00  0.00     0.157 HD
HETATM    4  C1  UNL     1      87.043 -10.958  47.120  1.00  0.00     0.139 C
HETATM    5 CL1  UNL     1      85.713 -10.210  47.985  1.00  0.00    -0.064 Cl
ENDROOT
BRANCH   4   6
HETATM    6  C2  UNL     1      88.295 -10.269  46.798  1.00  0.00     0.414 C
HETATM    7  F1  UNL     1      88.307  -9.001  47.345  1.00  0.00    -0.207 F
HETATM    8  F2  UNL     1      89.418 -10.980  47.161  1.00  0.00    -0.207 F
ENDBRANCH   4   6
TORSDOF 1
ENDMDL