MODEL 3
REMARK VINA RESULT: -3.878093199     12.212     12.456
REMARK  0 active torsions:
REMARK  status: ('A' for Active; 'I' for Inactive)
ROOT
HETATM    1  N1  UNL     1      86.012 -14.045  43.390  1.00  0.00    -0.066 NA
HETATM    2  C1  UNL     1      84.836 -14.288  44.143  1.00  0.00     0.248 C
HETATM    3  F1  UNL     1      84.738 -13.906  45.446  1.00  0.00    -0.185 F
HETATM    4  C2  UNL     1      83.836 -14.890  43.560  1.00  0.00     0.238 C
HETATM    5  F2  UNL     1      83.911 -15.273  42.281  1.00  0.00    -0.188 F
HETATM    6 CL1  UNL     1      82.371 -15.211  44.437  1.00  0.00    -0.047 Cl
ENDROOT
TORSDOF 0
ENDMDL