MODEL 4
REMARK VINA RESULT: -6.065956759      3.728      6.198
REMARK  6 active torsions:
REMARK  status: ('A' for Active; 'I' for Inactive)
REMARK    1  A    between atoms: S1_2  and  C2_5
REMARK    2  A    between atoms: C2_5  and  C3_6
REMARK    3  A    between atoms: C3_6  and  C4_7
REMARK    4  A    between atoms: N1_10  and  C7_11
REMARK    5  A    between atoms: C8_14  and  N3_15
REMARK    6  A    between atoms: N3_15  and  C9_17
ROOT
HETATM    1  C7  UNL     1      11.167  51.626  87.116  1.00  0.00     0.129 A
HETATM    2  N2  UNL     1      12.150  52.193  87.835  1.00  0.00    -0.176 N
ATOM      3  H2  UNL     1      13.086  52.246  87.433  1.00  0.00     0.186 HD
HETATM    4  C8  UNL     1      11.942  52.689  89.063  1.00  0.00     0.681 A
HETATM    5  N4  UNL     1      10.723  52.630  89.609  1.00  0.00    -0.176 N
ATOM      6  H4  UNL     1      10.573  53.011  90.544  1.00  0.00     0.186 HD
HETATM    7  C14 UNL     1       9.684  52.074  88.945  1.00  0.00     0.127 A
HETATM    8  C15 UNL     1       9.912  51.572  87.692  1.00  0.00     0.032 A
HETATM    9  C16 UNL     1       8.632  51.001  87.139  1.00  0.00     0.066 C
HETATM   10  C17 UNL     1       7.776  50.862  88.405  1.00  0.00     0.126 C
HETATM   11  N5  UNL     1       8.309  51.879  89.284  1.00  0.00    -0.375 N
ATOM     12  H5  UNL     1       7.795  52.370  90.016  1.00  0.00     0.161 HD
ENDROOT
BRANCH   1  13
HETATM   13  N1  UNL     1      11.338  51.092  85.816  1.00  0.00    -0.366 N
HETATM   14  C6  UNL     1      11.917  49.783  85.679  1.00  0.00     0.125 C
HETATM   15  C5  UNL     1      12.847  49.778  84.484  1.00  0.00     0.024 C
HETATM   16  C4  UNL     1      11.997  50.155  83.292  1.00  0.00    -0.011 C
HETATM   17  C19 UNL     1      11.642  51.601  83.429  1.00  0.00     0.024 C
HETATM   18  C18 UNL     1      10.913  51.909  84.705  1.00  0.00     0.125 C
BRANCH  16  19
HETATM   19  C3  UNL     1      12.648  49.861  81.986  1.00  0.00     0.019 C
BRANCH  19  20
HETATM   20  C2  UNL     1      13.231  51.092  81.326  1.00  0.00     0.140 C
BRANCH  20  21
HETATM   21  S1  UNL     1      14.986  50.872  81.126  1.00  0.00     0.140 S
HETATM   22  C1  UNL     1      15.729  52.323  80.450  1.00  0.00     0.161 C
HETATM   23  O1  UNL     1      15.196  49.674  80.220  1.00  0.00    -0.228 OA
HETATM   24  O2  UNL     1      15.623  50.577  82.457  1.00  0.00    -0.228 OA
ENDBRANCH  20  21
ENDBRANCH  19  20
ENDBRANCH  16  19
ENDBRANCH   1  13
BRANCH   4  25
HETATM   25  N3  UNL     1      12.932  53.213  89.684  1.00  0.00    -0.221 N
ATOM     26  H3  UNL     1      13.723  52.608  89.905  1.00  0.00     0.178 HD
BRANCH  25  27
HETATM   27  C9  UNL     1      13.011  54.584  90.091  1.00  0.00     0.099 C
HETATM   28  C10 UNL     1      14.146  55.340  89.441  1.00  0.00     0.026 C
HETATM   29  C11 UNL     1      15.319  55.212  90.385  1.00  0.00     0.002 C
HETATM   30  C12 UNL     1      14.780  54.785  91.712  1.00  0.00     0.002 C
HETATM   31  C13 UNL     1      13.285  54.669  91.592  1.00  0.00     0.026 C
ENDBRANCH  25  27
ENDBRANCH   4  25
TORSDOF 6
ENDMDL