MODEL 1
REMARK VINA RESULT: -6.886591477      0.000      0.000
REMARK  9 active torsions:
REMARK  status: ('A' for Active; 'I' for Inactive)
REMARK    1  A    between atoms: C3_3  and  C4_4
REMARK    2  A    between atoms: C5_6  and  N1_7
REMARK    3  A    between atoms: N1_7  and  C6_9
REMARK    4  A    between atoms: C6_9  and  N2_11
REMARK    5  A    between atoms: N2_11  and  N3_13
REMARK    6  A    between atoms: C7_15  and  C8_16
REMARK    7  A    between atoms: C11_19  and  O1_20
REMARK    8  A    between atoms: C13_22  and  O2_23
REMARK    9  A    between atoms: O2_23  and  C14_24
ROOT
HETATM    1  C1  UNL     1      14.516  51.942  97.894  1.00  0.00     0.112 C
HETATM    2  C2  UNL     1      14.227  52.467  96.548  1.00  0.00    -0.105 C
HETATM    3  C3  UNL     1      13.966  52.891  95.455  1.00  0.00    -0.058 C
ENDROOT
BRANCH   3   4
HETATM    4  C4  UNL     1      13.647  53.371  94.111  1.00  0.00     0.084 A
HETATM    5  S1  UNL     1      13.841  52.593  92.611  1.00  0.00    -0.043 SA
HETATM    6  C5  UNL     1      13.232  53.819  91.605  1.00  0.00     0.152 A
HETATM    7  N4  UNL     1      12.903  54.785  92.469  1.00  0.00    -0.339 N
HETATM    8  C17 UNL     1      13.107  54.575  93.743  1.00  0.00     0.033 A
ATOM      9  H4  UNL     1      12.501  55.663  92.142  1.00  0.00     0.168 HD
HETATM   10  C18 UNL     1      12.788  55.613  94.809  1.00  0.00     0.070 C
BRANCH   6  11
HETATM   11  N1  UNL     1      13.100  53.843  90.294  1.00  0.00    -0.312 N
ATOM     12  H1  UNL     1      12.324  53.338  89.865  1.00  0.00     0.170 HD
BRANCH  11  13
HETATM   13  C6  UNL     1      14.002  54.545  89.467  1.00  0.00     0.192 C
HETATM   14  S2  UNL     1      15.041  55.637  90.130  1.00  0.00    -0.039 SA
BRANCH  13  15
HETATM   15  N2  UNL     1      13.992  54.314  88.082  1.00  0.00    -0.276 N
ATOM     16  H2  UNL     1      14.842  54.589  87.589  1.00  0.00     0.189 HD
BRANCH  15  17
HETATM   17  N3  UNL     1      13.070  53.805  87.343  1.00  0.00    -0.309 N
HETATM   18  C7  UNL     1      12.739  53.235  86.339  1.00  0.00     0.118 C
ATOM     19  H3  UNL     1      12.204  53.961  87.857  1.00  0.00     0.186 HD
BRANCH  18  20
HETATM   20  C8  UNL     1      13.615  52.774  85.260  1.00  0.00    -0.017 A
HETATM   21  C9  UNL     1      14.742  53.430  84.866  1.00  0.00     0.016 A
HETATM   22  C10 UNL     1      15.515  52.995  83.779  1.00  0.00     0.040 A
HETATM   23  C11 UNL     1      15.120  51.872  83.088  1.00  0.00     0.101 A
HETATM   24  C13 UNL     1      13.958  51.185  83.491  1.00  0.00     0.102 A
HETATM   25  C16 UNL     1      13.247  51.641  84.545  1.00  0.00     0.052 A
BRANCH  23  26
HETATM   26  O1  UNL     1      15.778  51.380  82.031  1.00  0.00    -0.353 OA
HETATM   27  C12 UNL     1      15.794  51.930  80.744  1.00  0.00     0.210 C
ENDBRANCH  23  26
BRANCH  24  28
HETATM   28  O2  UNL     1      13.572  50.060  82.793  1.00  0.00    -0.349 OA
BRANCH  28  29
HETATM   29  C14 UNL     1      12.327  49.864  82.188  1.00  0.00     0.171 C
HETATM   30  C15 UNL     1      12.098  50.898  81.093  1.00  0.00     0.034 C
ENDBRANCH  28  29
ENDBRANCH  24  28
ENDBRANCH  18  20
ENDBRANCH  15  17
ENDBRANCH  13  15
ENDBRANCH  11  13
ENDBRANCH   6  11
ENDBRANCH   3   4
TORSDOF 9
ENDMDL