MODEL 1
REMARK VINA RESULT: -6.909016436      0.000      0.000
REMARK  6 active torsions:
REMARK  status: ('A' for Active; 'I' for Inactive)
REMARK    1  A    between atoms: C6_9  and  N3_10
REMARK    2  A    between atoms: N4_13  and  C9_14
REMARK    3  A    between atoms: C9_14  and  C10_15
REMARK    4  A    between atoms: N5_19  and  C14_20
REMARK    5  A    between atoms: C14_20  and  C15_21
REMARK    6  A    between atoms: C15_21  and  O1_22
ROOT
HETATM    1  N1  UNL     1       8.966  50.942  83.362  1.00  0.00    -0.191 NA
HETATM    2  C1  UNL     1       9.709  51.393  84.123  1.00  0.00     0.099 C
HETATM    3  C2  UNL     1      10.649  51.964  85.068  1.00  0.00     0.045 A
HETATM    4  C3  UNL     1      11.831  52.503  84.592  1.00  0.00     0.025 A
HETATM    5  C4  UNL     1      12.722  53.045  85.492  1.00  0.00     0.032 A
HETATM    6  C5  UNL     1      12.441  53.049  86.844  1.00  0.00     0.044 A
HETATM    7  N2  UNL     1      13.139  53.513  87.913  1.00  0.00    -0.342 N
ATOM      8  H2  UNL     1      14.052  53.963  87.850  1.00  0.00     0.167 HD
HETATM    9  C6  UNL     1      12.481  53.307  89.055  1.00  0.00     0.104 A
HETATM   10  C20 UNL     1      11.296  52.678  88.709  1.00  0.00     0.062 A
HETATM   11  C21 UNL     1      11.269  52.518  87.342  1.00  0.00    -0.004 A
HETATM   12  C22 UNL     1      10.387  51.979  86.428  1.00  0.00     0.036 A
ENDROOT
BRANCH   9  13
HETATM   13  N3  UNL     1      12.868  53.649  90.403  1.00  0.00    -0.364 N
HETATM   14  C7  UNL     1      13.526  54.913  90.646  1.00  0.00     0.154 C
HETATM   15  C8  UNL     1      14.701  54.656  91.528  1.00  0.00     0.292 C
HETATM   16  N4  UNL     1      14.242  54.102  92.766  1.00  0.00     0.095 N
HETATM   17  C18 UNL     1      13.548  52.863  92.650  1.00  0.00     0.292 C
HETATM   18  C19 UNL     1      12.612  52.767  91.488  1.00  0.00     0.154 C
BRANCH  16  19
HETATM   19  C9  UNL     1      13.587  55.059  93.621  1.00  0.00     0.300 C
BRANCH  19  20
HETATM   20  C10 UNL     1      13.312  54.582  94.984  1.00  0.00     0.006 C
HETATM   21  C11 UNL     1      12.410  55.149  95.781  1.00  0.00    -0.079 C
HETATM   22  C12 UNL     1      12.158  54.629  97.170  1.00  0.00     0.064 C
HETATM   23  C17 UNL     1      11.586  56.326  95.393  1.00  0.00     0.064 C
HETATM   24  C13 UNL     1      10.715  54.807  97.518  1.00  0.00     0.277 C
HETATM   25  N5  UNL     1      10.285  56.170  97.445  1.00  0.00     0.091 N
HETATM   26  C16 UNL     1      11.145  57.023  96.688  1.00  0.00     0.277 C
BRANCH  25  27
HETATM   27  C14 UNL     1       9.955  56.743  98.712  1.00  0.00     0.298 C
BRANCH  27  28
HETATM   28  C15 UNL     1      10.423  55.945  99.890  1.00  0.00     0.194 C
BRANCH  28  29
HETATM   29  O1  UNL     1      11.299  56.736 100.640  1.00  0.00    -0.399 OA
ATOM     30  H1  UNL     1      11.779  56.172 101.235  1.00  0.00     0.209 HD
ENDBRANCH  28  29
ENDBRANCH  27  28
ENDBRANCH  25  27
ENDBRANCH  19  20
ENDBRANCH  16  19
ENDBRANCH   9  13
TORSDOF 6
ENDMDL