MODEL 3
REMARK VINA RESULT: -6.139727614      8.678     12.579
REMARK  7 active torsions:
REMARK  status: ('A' for Active; 'I' for Inactive)
REMARK    1  A    between atoms: N1_1  and  C1_5
REMARK    2  A    between atoms: N2_7  and  C3_8
REMARK    3  A    between atoms: C3_8  and  C4_9
REMARK    4  A    between atoms: C11_17  and  C12_18
REMARK    5  A    between atoms: C12_18  and  C13_19
REMARK    6  A    between atoms: C13_19  and  O2_20
REMARK    7  A    between atoms: C14_22  and  C15_23
ROOT
HETATM    1  C4  UNL     1      12.446  49.564  83.564  1.00  0.00     0.057 C
HETATM    2  C5  UNL     1      11.236  50.073  82.862  1.00  0.00    -0.018 A
HETATM    3  C6  UNL     1      10.448  49.192  82.129  1.00  0.00     0.018 A
HETATM    4  C7  UNL     1       9.320  49.573  81.437  1.00  0.00    -0.043 A
HETATM    5  C8  UNL     1       8.925  50.890  81.454  1.00  0.00     0.019 A
HETATM    6  C9  UNL     1       9.703  51.779  82.182  1.00  0.00     0.053 A
HETATM    7  C10 UNL     1      10.834  51.391  82.873  1.00  0.00     0.077 A
HETATM    8  O1  UNL     1      11.609  52.306  83.607  1.00  0.00    -0.345 OA
HETATM    9  C11 UNL     1      12.398  51.713  84.643  1.00  0.00     0.136 C
HETATM   10  C14 UNL     1      13.332  50.682  84.067  1.00  0.00     0.029 C
HETATM   11  C21 UNL     1       7.716  51.035  80.654  1.00  0.00     0.160 C
HETATM   12  O3  UNL     1       7.242  52.126  80.309  1.00  0.00    -0.292 OA
HETATM   13  C22 UNL     1       7.216  49.687  80.366  1.00  0.00     0.088 C
HETATM   14  C23 UNL     1       8.360  48.761  80.602  1.00  0.00     0.047 C
ENDROOT
BRANCH   1  15
HETATM   15  C3  UNL     1      12.071  48.679  84.715  1.00  0.00     0.285 C
BRANCH  15  16
HETATM   16  N2  UNL     1      13.179  48.503  85.664  1.00  0.00     0.125 N
HETATM   17  C1  UNL     1      13.174  47.265  86.439  1.00  0.00     0.445 A
HETATM   18  C2  UNL     1      12.867  48.574  87.085  1.00  0.00     0.340 A
BRANCH  17  19
HETATM   19  N1  UNL     1      14.490  46.693  86.741  1.00  0.00    -0.046 N
ATOM     20  H13 UNL     1      15.165  47.441  86.899  1.00  0.00     0.277 HD
ATOM     21  H12 UNL     1      14.476  46.262  87.666  1.00  0.00     0.277 HD
ATOM     22  H11 UNL     1      14.858  46.033  86.057  1.00  0.00     0.277 HD
ENDBRANCH  17  19
ENDBRANCH  15  16
ENDBRANCH   1  15
BRANCH  10  23
HETATM   23  C15 UNL     1      14.133  51.301  82.955  1.00  0.00    -0.007 C
HETATM   24  C16 UNL     1      15.399  51.947  83.448  1.00  0.00     0.005 C
HETATM   25  C17 UNL     1      16.617  51.556  82.616  1.00  0.00     0.000 C
HETATM   26  C18 UNL     1      16.368  51.967  81.201  1.00  0.00     0.000 C
HETATM   27  C19 UNL     1      15.085  51.362  80.741  1.00  0.00     0.000 C
HETATM   28  C20 UNL     1      14.456  50.431  81.798  1.00  0.00     0.005 C
ENDBRANCH  10  23
BRANCH   9  29
HETATM   29  C12 UNL     1      12.953  52.682  85.617  1.00  0.00     0.059 C
BRANCH  29  30
HETATM   30  C13 UNL     1      11.782  52.985  86.593  1.00  0.00     0.166 C
BRANCH  30  31
HETATM   31  O2  UNL     1      10.858  53.806  85.992  1.00  0.00    -0.401 OA
ATOM     32  H2  UNL     1      10.665  53.499  85.113  1.00  0.00     0.209 HD
ENDBRANCH  30  31
ENDBRANCH  29  30
ENDBRANCH   9  29
TORSDOF 7
ENDMDL