MODEL 3
REMARK VINA RESULT: -6.889780724      3.135     10.222
REMARK  5 active torsions:
REMARK  status: ('A' for Active; 'I' for Inactive)
REMARK    1  A    between atoms: C6_9  and  N3_10
REMARK    2  A    between atoms: N3_10  and  S1_12
REMARK    3  A    between atoms: S1_12  and  N4_15
REMARK    4  A    between atoms: N4_15  and  C7_17
REMARK    5  A    between atoms: C10_20  and  N5_21
ROOT
HETATM    1  N4  UNL     1      11.973  54.025  91.180  1.00  0.00    -0.298 N
ATOM      2  H4  UNL     1      11.261  54.757  91.183  1.00  0.00     0.174 HD
ENDROOT
BRANCH   1   3
HETATM    3  S1  UNL     1      12.604  53.338  89.751  1.00  0.00     0.319 S
HETATM    4  O1  UNL     1      12.783  51.856  89.991  1.00  0.00    -0.182 OA
HETATM    5  O2  UNL     1      13.920  53.998  89.433  1.00  0.00    -0.182 OA
BRANCH   3   6
HETATM    6  N3  UNL     1      11.558  53.508  88.393  1.00  0.00    -0.264 N
ATOM      7  H3  UNL     1      10.874  54.265  88.398  1.00  0.00     0.180 HD
BRANCH   6   8
HETATM    8  C6  UNL     1      11.605  52.644  87.269  1.00  0.00     0.091 A
HETATM    9  C2  UNL     1      12.455  52.678  86.178  1.00  0.00     0.051 A
HETATM   10  C1  UNL     1      13.525  53.682  85.986  1.00  0.00     0.072 C
HETATM   11  N1  UNL     1      12.126  51.646  85.349  1.00  0.00    -0.301 N
HETATM   12  N2  UNL     1      11.113  50.976  85.876  1.00  0.00    -0.299 N
ATOM     13  H1  UNL     1      12.585  51.426  84.465  1.00  0.00     0.187 HD
HETATM   14  C3  UNL     1      10.459  49.808  85.313  1.00  0.00     0.177 C
HETATM   15  C4  UNL     1      10.772  51.554  87.041  1.00  0.00     0.053 A
HETATM   16  C5  UNL     1       9.693  51.138  87.970  1.00  0.00     0.072 C
ENDBRANCH   6   8
ENDBRANCH   3   6
ENDBRANCH   1   3
BRANCH   1  17
HETATM   17  C7  UNL     1      12.553  53.461  92.400  1.00  0.00     0.094 C
HETATM   18  C8  UNL     1      13.639  54.284  92.943  1.00  0.00     0.028 C
HETATM   19  C9  UNL     1      13.372  55.095  94.156  1.00  0.00     0.028 C
HETATM   20  C10 UNL     1      12.230  54.673  95.001  1.00  0.00     0.088 C
HETATM   21  C17 UNL     1      11.021  54.402  94.137  1.00  0.00     0.028 C
HETATM   22  C18 UNL     1      11.396  53.176  93.319  1.00  0.00     0.028 C
BRANCH  20  23
HETATM   23  N5  UNL     1      12.024  55.570  96.067  1.00  0.00    -0.369 N
HETATM   24  C11 UNL     1      12.254  56.940  95.884  1.00  0.00     0.064 C
HETATM   25  C12 UNL     1      11.070  57.845  96.078  1.00  0.00     0.049 C
HETATM   26  C13 UNL     1      10.084  57.416  97.094  1.00  0.00    -0.009 C
HETATM   27  C14 UNL     1       8.707  57.888  96.596  1.00  0.00     0.010 C
HETATM   28  C15 UNL     1       9.963  55.959  97.355  1.00  0.00     0.049 C
HETATM   29  C16 UNL     1      11.208  55.163  97.132  1.00  0.00     0.064 C
ENDBRANCH  20  23
ENDBRANCH   1  17
TORSDOF 5
ENDMDL