MODEL 1
REMARK VINA RESULT: -7.231637278      0.000      0.000
REMARK  6 active torsions:
REMARK  status: ('A' for Active; 'I' for Inactive)
REMARK    1  A    between atoms: C2_2  and  N1_3
REMARK    2  A    between atoms: C5_8  and  N3_9
REMARK    3  A    between atoms: N3_9  and  C6_11
REMARK    4  A    between atoms: C6_11  and  C7_12
REMARK    5  A    between atoms: N4_15  and  C10_16
REMARK    6  A    between atoms: N6_26  and  C18_28
ROOT
HETATM    1  N1  UNL     1       9.039  54.468  89.607  1.00  0.00    -0.301 N
HETATM    2  C3  UNL     1       8.817  53.363  88.877  1.00  0.00     0.142 A
HETATM    3  C4  UNL     1      10.065  52.762  88.780  1.00  0.00     0.098 A
HETATM    4  N2  UNL     1      10.441  51.641  88.173  1.00  0.00    -0.188 N
ATOM      5  H2  UNL     1       9.758  51.073  87.672  1.00  0.00     0.184 HD
HETATM    6  C5  UNL     1      11.743  51.259  88.225  1.00  0.00     0.680 A
HETATM    7  N5  UNL     1      12.655  51.991  88.875  1.00  0.00    -0.175 N
ATOM      8  H5  UNL     1      13.623  51.669  88.889  1.00  0.00     0.186 HD
HETATM    9  C17 UNL     1      12.339  53.166  89.529  1.00  0.00     0.148 A
HETATM   10  N6  UNL     1      13.231  53.754  90.087  1.00  0.00    -0.370 N
ATOM     11  H6  UNL     1      14.037  53.159  89.897  1.00  0.00     0.161 HD
HETATM   12  C21 UNL     1      11.012  53.531  89.462  1.00  0.00     0.121 A
HETATM   13  N7  UNL     1      10.300  54.557  89.938  1.00  0.00    -0.293 N
ATOM     14  H7  UNL     1      10.694  55.318  90.493  1.00  0.00     0.187 HD
ENDROOT
BRANCH   6  15
HETATM   15  N3  UNL     1      12.015  50.167  87.620  1.00  0.00    -0.226 N
ATOM     16  H3  UNL     1      12.639  49.516  88.096  1.00  0.00     0.177 HD
BRANCH  15  17
HETATM   17  C6  UNL     1      11.523  49.779  86.338  1.00  0.00     0.142 C
BRANCH  17  18
HETATM   18  C7  UNL     1      12.541  50.180  85.301  1.00  0.00     0.007 C
HETATM   19  C8  UNL     1      12.373  49.421  84.030  1.00  0.00     0.026 C
HETATM   20  C9  UNL     1      12.641  50.283  82.803  1.00  0.00     0.117 C
HETATM   21  N4  UNL     1      13.714  51.185  82.980  1.00  0.00    -0.408 N
HETATM   22  C15 UNL     1      13.707  51.978  84.146  1.00  0.00     0.117 C
HETATM   23  C16 UNL     1      12.450  51.656  84.957  1.00  0.00     0.026 C
BRANCH  21  24
HETATM   24  C10 UNL     1      14.952  50.649  82.539  1.00  0.00     0.079 C
HETATM   25  C11 UNL     1      14.834  50.290  81.062  1.00  0.00     0.025 C
HETATM   26  C12 UNL     1      15.752  51.214  80.311  1.00  0.00     0.002 C
HETATM   27  C13 UNL     1      16.016  52.326  81.302  1.00  0.00     0.002 C
HETATM   28  C14 UNL     1      16.130  51.561  82.600  1.00  0.00     0.025 C
ENDBRANCH  21  24
ENDBRANCH  17  18
ENDBRANCH  15  17
ENDBRANCH   6  15
BRANCH  10  29
HETATM   29  C18 UNL     1      13.771  54.754  90.822  1.00  0.00     0.075 C
HETATM   30  C19 UNL     1      13.812  54.509  92.336  1.00  0.00     0.031 C
HETATM   31  C20 UNL     1      15.136  55.303  90.458  1.00  0.00     0.031 C
ENDBRANCH  10  29
BRANCH   1  32
HETATM   32  C2  UNL     1       8.015  55.427  89.977  1.00  0.00     0.143 C
HETATM   33  C1  UNL     1       6.683  55.132  89.347  1.00  0.00     0.028 C
ENDBRANCH   1  32
TORSDOF 6
ENDMDL