MODEL 1
REMARK VINA RESULT: -7.896138919      0.000      0.000
REMARK  5 active torsions:
REMARK  status: ('A' for Active; 'I' for Inactive)
REMARK       I    between atoms: C1_2  and  N1_3
REMARK    1  A    between atoms: C1_2  and  C17_26
REMARK    2  A    between atoms: N1_3  and  C2_5
REMARK    3  A    between atoms: C3_6  and  N2_7
REMARK    4  A    between atoms: N2_7  and  C4_9
REMARK       I    between atoms: N3_12  and  C7_13
REMARK    5  A    between atoms: C7_13  and  C8_15
ROOT
HETATM    1  C2  UNL     1       9.525  53.509  88.788  1.00  0.00     0.120 A
HETATM    2  C3  UNL     1       9.265  53.057  87.513  1.00  0.00     0.114 A
HETATM    3  C15 UNL     1       8.165  52.408  88.008  1.00  0.00     0.252 A
HETATM    4  O3  UNL     1       7.224  51.677  87.613  1.00  0.00    -0.281 OA
HETATM    5  C16 UNL     1       8.438  52.866  89.277  1.00  0.00     0.253 A
HETATM    6  O4  UNL     1       7.946  52.777  90.438  1.00  0.00    -0.281 OA
ENDROOT
BRANCH   2   7
HETATM    7  N2  UNL     1       9.899  53.226  86.252  1.00  0.00    -0.380 N
ATOM      8  H2  UNL     1       9.504  53.928  85.626  1.00  0.00     0.160 HD
BRANCH   7   9
HETATM    9  C4  UNL     1      11.035  52.506  85.781  1.00  0.00     0.085 C
HETATM   10  C5  UNL     1      12.364  53.004  86.292  1.00  0.00     0.045 C
HETATM   11  C6  UNL     1      13.425  52.680  85.225  1.00  0.00     0.127 C
HETATM   12  N3  UNL     1      13.134  51.288  84.852  1.00  0.00    -0.352 N
HETATM   13  C7  UNL     1      13.537  50.786  83.610  1.00  0.00     0.224 C
HETATM   14  C13 UNL     1      12.415  50.489  85.839  1.00  0.00     0.127 C
HETATM   15  O2  UNL     1      13.284  49.602  83.302  1.00  0.00    -0.273 OA
HETATM   16  C14 UNL     1      10.987  51.017  86.002  1.00  0.00     0.045 C
BRANCH  13  17
HETATM   17  C8  UNL     1      14.260  51.642  82.653  1.00  0.00     0.078 C
HETATM   18  C9  UNL     1      14.281  50.994  81.272  1.00  0.00     0.014 C
HETATM   19  C10 UNL     1      15.432  51.644  80.575  1.00  0.00     0.001 C
HETATM   20  C11 UNL     1      16.479  51.804  81.676  1.00  0.00     0.001 C
HETATM   21  C12 UNL     1      15.719  51.773  82.968  1.00  0.00     0.014 C
ENDBRANCH  13  17
ENDBRANCH   7   9
ENDBRANCH   2   7
BRANCH   1  22
HETATM   22  N1  UNL     1      10.555  54.338  89.358  1.00  0.00    -0.321 N
HETATM   23  C1  UNL     1      11.743  53.750  89.844  1.00  0.00     0.226 C
HETATM   24  O1  UNL     1      11.903  52.504  89.780  1.00  0.00    -0.273 OA
ATOM     25  H1  UNL     1      10.426  55.348  89.411  1.00  0.00     0.169 HD
BRANCH  23  26
HETATM   26  C17 UNL     1      12.810  54.572  90.429  1.00  0.00     0.078 C
HETATM   27  C18 UNL     1      14.024  54.708  89.563  1.00  0.00     0.014 C
HETATM   28  C19 UNL     1      15.045  55.288  90.523  1.00  0.00     0.001 C
HETATM   29  C20 UNL     1      14.668  54.750  91.871  1.00  0.00     0.001 C
HETATM   30  C21 UNL     1      13.372  53.987  91.704  1.00  0.00     0.014 C
ENDBRANCH  23  26
ENDBRANCH   1  22
TORSDOF 5
ENDMDL