MODEL 2
REMARK VINA RESULT: -6.255180525      6.404     10.289
REMARK  7 active torsions:
REMARK  status: ('A' for Active; 'I' for Inactive)
REMARK    1  A    between atoms: O1_2  and  C2_3
REMARK    2  A    between atoms: C6_7  and  O2_8
REMARK    3  A    between atoms: C8_10  and  O3_11
REMARK    4  A    between atoms: C14_18  and  C15_19
REMARK    5  A    between atoms: C15_19  and  C16_20
REMARK    6  A    between atoms: C18_22  and  O4_23
REMARK    7  A    between atoms: C19_25  and  O5_26
ROOT
HETATM    1  C2  UNL     1      15.104  51.289  96.919  1.00  0.00     0.105 A
HETATM    2  C3  UNL     1      14.482  51.953  95.835  1.00  0.00     0.054 A
HETATM    3  C4  UNL     1      13.547  52.919  96.082  1.00  0.00     0.011 A
HETATM    4  C5  UNL     1      13.236  53.220  97.385  1.00  0.00    -0.008 A
HETATM    5  C6  UNL     1      13.840  52.574  98.438  1.00  0.00     0.111 A
HETATM    6  C8  UNL     1      14.786  51.596  98.224  1.00  0.00     0.135 A
HETATM    7  C10 UNL     1      12.210  54.266  97.625  1.00  0.00     0.070 C
HETATM    8  C11 UNL     1      11.198  54.074  96.531  1.00  0.00     0.248 C
HETATM    9  N1  UNL     1      11.779  54.363  95.212  1.00  0.00    -0.044 N
HETATM   10  C12 UNL     1      12.137  55.826  95.374  1.00  0.00     0.279 C
HETATM   11  C13 UNL     1      10.628  54.464  94.362  1.00  0.00     0.279 C
HETATM   12  C14 UNL     1      12.903  53.633  94.901  1.00  0.00     0.147 C
ENDROOT
BRANCH  12  13
HETATM   13  C15 UNL     1      13.195  52.864  93.708  1.00  0.00     0.050 C
BRANCH  13  14
HETATM   14  C16 UNL     1      13.399  53.424  92.395  1.00  0.00    -0.025 A
HETATM   15  C17 UNL     1      14.378  54.394  92.132  1.00  0.00     0.051 A
HETATM   16  C18 UNL     1      14.558  55.003  90.936  1.00  0.00     0.099 A
HETATM   17  C19 UNL     1      13.735  54.664  89.890  1.00  0.00     0.099 A
HETATM   18  C20 UNL     1      12.763  53.719  90.104  1.00  0.00     0.047 A
HETATM   19  C21 UNL     1      12.592  53.099  91.342  1.00  0.00    -0.049 A
HETATM   20  C22 UNL     1      11.538  52.032  91.351  1.00  0.00     0.049 C
BRANCH  16  21
HETATM   21  O4  UNL     1      15.572  55.952  90.810  1.00  0.00    -0.358 OA
ATOM     22  H4  UNL     1      15.336  56.854  90.629  1.00  0.00     0.217 HD
ENDBRANCH  16  21
BRANCH  17  23
HETATM   23  O5  UNL     1      13.929  55.298  88.672  1.00  0.00    -0.358 OA
ATOM     24  H5  UNL     1      13.792  54.795  87.878  1.00  0.00     0.217 HD
ENDBRANCH  17  23
ENDBRANCH  13  14
ENDBRANCH  12  13
BRANCH   1  25
HETATM   25  O1  UNL     1      16.054  50.306  96.743  1.00  0.00    -0.353 OA
HETATM   26  C1  UNL     1      17.414  50.475  96.516  1.00  0.00     0.210 C
ENDBRANCH   1  25
BRANCH   5  27
HETATM   27  O2  UNL     1      13.490  52.913  99.723  1.00  0.00    -0.352 OA
HETATM   28  C7  UNL     1      12.465  52.132 100.347  1.00  0.00     0.210 C
ENDBRANCH   5  27
BRANCH   6  29
HETATM   29  O3  UNL     1      15.347  50.995  99.338  1.00  0.00    -0.351 OA
HETATM   30  C9  UNL     1      16.504  51.557  99.937  1.00  0.00     0.210 C
ENDBRANCH   6  29
TORSDOF 7
ENDMDL