MODEL 2
REMARK VINA RESULT: -6.264690588      2.535      6.973
REMARK  6 active torsions:
REMARK  status: ('A' for Active; 'I' for Inactive)
REMARK    1  A    between atoms: C2_2  and  C3_3
REMARK    2  A    between atoms: C3_3  and  C4_4
REMARK    3  A    between atoms: C4_4  and  C6_6
REMARK       I    between atoms: C6_6  and  N1_8
REMARK    4  A    between atoms: N1_8  and  C7_10
REMARK    5  A    between atoms: C12_19  and  S1_20
REMARK    6  A    between atoms: S1_20  and  C13_23
ROOT
HETATM    1  C7  UNL     1      11.320  52.329  88.259  1.00  0.00     0.686 A
HETATM    2  N2  UNL     1      10.509  51.505  87.580  1.00  0.00    -0.176 N
ATOM      3  H2  UNL     1       9.760  51.001  88.055  1.00  0.00     0.186 HD
HETATM    4  C8  UNL     1      10.711  51.353  86.229  1.00  0.00     0.126 A
HETATM    5  C9  UNL     1      11.721  52.032  85.601  1.00  0.00     0.028 A
HETATM    6  C10 UNL     1      12.534  52.861  86.288  1.00  0.00     0.034 A
HETATM    7  C11 UNL     1      13.603  53.629  85.646  1.00  0.00     0.069 C
HETATM    8  N3  UNL     1      12.305  52.991  87.639  1.00  0.00    -0.195 N
ATOM      9  H3  UNL     1      12.904  53.611  88.185  1.00  0.00     0.184 HD
HETATM   10  C12 UNL     1      11.874  51.789  84.108  1.00  0.00     0.156 C
HETATM   11  C16 UNL     1      10.517  51.886  83.555  1.00  0.00    -0.010 C
HETATM   12  C17 UNL     1      10.321  51.963  82.095  1.00  0.00     0.018 C
HETATM   13  C18 UNL     1       9.903  53.180  84.137  1.00  0.00     0.018 C
HETATM   14  C19 UNL     1       9.587  50.796  84.103  1.00  0.00     0.131 C
HETATM   15  N4  UNL     1       9.870  50.508  85.479  1.00  0.00    -0.375 N
ATOM     16  H4  UNL     1       9.460  49.685  85.919  1.00  0.00     0.161 HD
ENDROOT
BRANCH   1  17
HETATM   17  N1  UNL     1      11.096  52.442  89.525  1.00  0.00    -0.159 N
HETATM   18  C6  UNL     1      10.951  53.677  90.184  1.00  0.00     0.239 C
HETATM   19  O1  UNL     1       9.947  54.399  89.965  1.00  0.00    -0.272 OA
ATOM     20  H1  UNL     1      11.022  51.589  90.079  1.00  0.00     0.187 HD
BRANCH  18  21
HETATM   21  C4  UNL     1      12.037  54.071  91.138  1.00  0.00     0.078 C
HETATM   22  C5  UNL     1      12.775  52.829  91.576  1.00  0.00     0.020 C
BRANCH  21  23
HETATM   23  C3  UNL     1      13.004  54.940  90.329  1.00  0.00     0.040 C
BRANCH  23  24
HETATM   24  C2  UNL     1      14.301  54.892  91.026  1.00  0.00    -0.036 C
HETATM   25  C1  UNL     1      15.401  55.257  90.397  1.00  0.00     0.007 C
ENDBRANCH  23  24
ENDBRANCH  21  23
ENDBRANCH  18  21
ENDBRANCH   1  17
BRANCH  10  26
HETATM   26  S1  UNL     1      12.819  50.356  83.928  1.00  0.00     0.157 S
HETATM   27  O2  UNL     1      13.265  49.885  85.296  1.00  0.00    -0.227 OA
HETATM   28  O3  UNL     1      12.035  49.154  83.412  1.00  0.00    -0.227 OA
BRANCH  26  29
HETATM   29  C13 UNL     1      14.307  50.529  82.958  1.00  0.00     0.101 C
HETATM   30  C14 UNL     1      13.887  50.635  81.454  1.00  0.00     0.026 C
HETATM   31  C15 UNL     1      15.075  51.777  83.210  1.00  0.00     0.026 C
ENDBRANCH  26  29
ENDBRANCH  10  26
TORSDOF 6
ENDMDL