MODEL 1
REMARK VINA RESULT: -6.114007601      0.000      0.000
REMARK  7 active torsions:
REMARK  status: ('A' for Active; 'I' for Inactive)
REMARK    1  A    between atoms: C2_2  and  C3_3
REMARK    2  A    between atoms: C2_2  and  C6_7
REMARK    3  A    between atoms: C3_3  and  N1_4
REMARK    4  A    between atoms: C10_12  and  O2_13
REMARK    5  A    between atoms: C14_18  and  O3_19
REMARK    6  A    between atoms: O3_19  and  C15_20
REMARK       I    between atoms: C15_20  and  N2_22
REMARK    7  A    between atoms: N2_22  and  C16_24
ROOT
HETATM    1  C6  UNL     1      11.923  51.144  84.965  1.00  0.00    -0.056 C
HETATM    2  C7  UNL     1      11.432  50.206  83.855  1.00  0.00     0.070 C
HETATM    3  C8  UNL     1      10.161  50.593  83.240  1.00  0.00     0.158 A
HETATM    4  O1  UNL     1       9.016  50.032  84.033  1.00  0.00    -0.372 OA
HETATM    5  C9  UNL     1       9.177  51.360  83.847  1.00  0.00     0.187 A
HETATM    6  C10 UNL     1       9.701  52.313  84.851  1.00  0.00     0.103 C
HETATM    7  C11 UNL     1       8.716  52.919  85.772  1.00  0.00     0.022 C
HETATM    8  C12 UNL     1       7.350  52.300  85.800  1.00  0.00     0.013 C
HETATM    9  C13 UNL     1       9.434  52.989  87.068  1.00  0.00     0.041 C
HETATM   10  C14 UNL     1      10.949  52.777  86.704  1.00  0.00     0.149 C
HETATM   11  C20 UNL     1      10.822  51.707  85.708  1.00  0.00     0.041 C
HETATM   12  C21 UNL     1      10.197  50.550  86.539  1.00  0.00     0.026 C
ENDROOT
BRANCH  10  13
HETATM   13  O3  UNL     1      11.442  52.358  87.992  1.00  0.00    -0.297 OA
BRANCH  13  14
HETATM   14  C15 UNL     1      11.726  53.278  88.954  1.00  0.00     0.361 C
HETATM   15  O4  UNL     1      10.849  53.614  89.776  1.00  0.00    -0.238 OA
HETATM   16  N2  UNL     1      13.006  53.869  89.041  1.00  0.00    -0.332 N
ATOM     17  H2  UNL     1      13.737  53.610  88.379  1.00  0.00     0.165 HD
BRANCH  16  18
HETATM   18  C16 UNL     1      13.280  54.859  90.091  1.00  0.00     0.086 C
HETATM   19  C17 UNL     1      13.558  54.152  91.396  1.00  0.00     0.025 C
HETATM   20  C18 UNL     1      14.867  54.924  91.463  1.00  0.00     0.004 C
HETATM   21  C19 UNL     1      14.687  55.425  90.034  1.00  0.00     0.025 C
ENDBRANCH  16  18
ENDBRANCH  13  14
ENDBRANCH  10  13
BRANCH   1  22
HETATM   22  C2  UNL     1      13.124  51.827  84.458  1.00  0.00    -0.043 C
HETATM   23  C1  UNL     1      13.678  52.988  85.168  1.00  0.00     0.050 C
BRANCH  22  24
HETATM   24  C3  UNL     1      14.174  50.935  83.873  1.00  0.00     0.091 C
BRANCH  24  25
HETATM   25  N1  UNL     1      14.727  51.255  82.633  1.00  0.00    -0.398 N
HETATM   26  C4  UNL     1      14.051  50.994  81.433  1.00  0.00     0.148 C
HETATM   27  C5  UNL     1      16.028  51.783  82.550  1.00  0.00     0.148 C
ENDBRANCH  24  25
ENDBRANCH  22  24
ENDBRANCH   1  22
BRANCH   6  28
HETATM   28  O2  UNL     1      10.221  53.391  84.128  1.00  0.00    -0.386 OA
ATOM     29  H2  UNL     1       9.763  54.162  84.441  1.00  0.00     0.210 HD
ENDBRANCH   6  28
TORSDOF 7
ENDMDL