MODEL 2
REMARK VINA RESULT: -7.434065760      1.846      3.051
REMARK  5 active torsions:
REMARK  status: ('A' for Active; 'I' for Inactive)
REMARK    1  A    between atoms: C3_3  and  N1_4
REMARK    2  A    between atoms: C9_13  and  O1_14
REMARK    3  A    between atoms: O1_14  and  C10_15
REMARK    4  A    between atoms: N3_23  and  C18_24
REMARK    5  A    between atoms: C18_24  and  C19_25
ROOT
HETATM    1  C10 UNL     1      10.329  51.682  86.183  1.00  0.00     0.071 C
HETATM    2  C11 UNL     1      11.585  50.942  86.419  1.00  0.00     0.048 C
HETATM    3  C12 UNL     1      12.598  51.003  85.318  1.00  0.00     0.028 C
HETATM    4  C13 UNL     1      12.540  52.263  84.484  1.00  0.00     0.015 C
HETATM    5  C14 UNL     1      11.146  52.703  84.247  1.00  0.00    -0.002 C
HETATM    6  C15 UNL     1      10.564  53.082  85.616  1.00  0.00     0.044 C
HETATM    7  C16 UNL     1      10.240  51.607  83.830  1.00  0.00     0.032 C
HETATM    8  C17 UNL     1      10.802  50.593  82.886  1.00  0.00     0.073 C
HETATM    9  N3  UNL     1      11.978  49.957  83.170  1.00  0.00    -0.353 N
HETATM   10  C23 UNL     1      12.467  49.764  84.463  1.00  0.00     0.072 C
HETATM   11  C24 UNL     1       9.593  51.020  85.042  1.00  0.00     0.049 C
ENDROOT
BRANCH   1  12
HETATM   12  O1  UNL     1       9.554  51.824  87.319  1.00  0.00    -0.324 OA
BRANCH  12  13
HETATM   13  C9  UNL     1       9.578  52.776  88.284  1.00  0.00     0.144 A
HETATM   14  C8  UNL     1      10.741  53.005  88.982  1.00  0.00     0.085 A
HETATM   15  C3  UNL     1      10.830  53.955  89.972  1.00  0.00     0.035 A
HETATM   16  C2  UNL     1       9.666  54.667  90.217  1.00  0.00     0.046 A
HETATM   17  C1  UNL     1       8.504  54.424  89.506  1.00  0.00     0.092 A
HETATM   18  N4  UNL     1       8.493  53.495  88.570  1.00  0.00    -0.347 N
ATOM     19  H4  UNL     1       7.632  53.324  88.051  1.00  0.00     0.167 HD
BRANCH  15  20
HETATM   20  N1  UNL     1      12.020  54.207  90.701  1.00  0.00    -0.378 N
HETATM   21  C4  UNL     1      12.167  54.071  92.126  1.00  0.00     0.150 C
HETATM   22  C5  UNL     1      13.538  53.484  92.446  1.00  0.00     0.252 C
HETATM   23  N2  UNL     1      14.623  54.241  91.910  1.00  0.00    -0.072 N
HETATM   24  C6  UNL     1      14.196  55.207  90.912  1.00  0.00     0.252 C
ATOM     25  H22 UNL     1      15.154  54.694  92.653  1.00  0.00     0.277 HD
ATOM     26  H21 UNL     1      15.348  53.627  91.538  1.00  0.00     0.277 HD
HETATM   27  C7  UNL     1      13.195  54.644  89.951  1.00  0.00     0.150 C
ENDBRANCH  15  20
ENDBRANCH  12  13
ENDBRANCH   1  12
BRANCH   9  28
HETATM   28  C18 UNL     1      12.813  49.605  82.104  1.00  0.00     0.072 C
BRANCH  28  29
HETATM   29  C19 UNL     1      13.608  50.593  81.382  1.00  0.00     0.024 C
HETATM   30  C20 UNL     1      14.402  50.297  80.185  1.00  0.00     0.010 C
HETATM   31  C21 UNL     1      15.536  51.208  80.673  1.00  0.00     0.001 C
HETATM   32  C22 UNL     1      14.854  51.128  82.045  1.00  0.00     0.010 C
ENDBRANCH  28  29
ENDBRANCH   9  28
TORSDOF 5
ENDMDL