MODEL 5
REMARK VINA RESULT: -7.224878133      3.150      8.365
REMARK  6 active torsions:
REMARK  status: ('A' for Active; 'I' for Inactive)
REMARK    1  A    between atoms: C7_12  and  N3_13
REMARK    2  A    between atoms: N3_13  and  C8_15
REMARK    3  A    between atoms: C8_15  and  C9_16
REMARK    4  A    between atoms: C9_16  and  C10_17
REMARK    5  A    between atoms: C10_17  and  N4_18
REMARK    6  A    between atoms: C16_28  and  C17_29
ROOT
HETATM    1  N1  UNL     1       7.269  51.338  83.999  1.00  0.00    -0.401 N
ATOM      2  H11 UNL     1       7.073  51.340  84.999  1.00  0.00     0.156 HD
ATOM      3  H12 UNL     1       6.599  50.978  83.318  1.00  0.00     0.156 HD
HETATM    4  C1  UNL     1       8.377  51.783  83.575  1.00  0.00     0.031 C
HETATM    5  C2  UNL     1       8.663  51.781  82.113  1.00  0.00     0.059 C
HETATM    6  C3  UNL     1      10.142  52.054  81.857  1.00  0.00     0.011 C
HETATM    7  C4  UNL     1      10.936  51.391  82.999  1.00  0.00     0.044 C
HETATM    8  C5  UNL     1      10.689  52.133  84.206  1.00  0.00     0.001 A
HETATM    9  C6  UNL     1       9.335  52.298  84.547  1.00  0.00     0.080 A
HETATM   10  N2  UNL     1       8.979  52.909  85.672  1.00  0.00    -0.188 N
ATOM     11  H2  UNL     1       7.992  53.016  85.901  1.00  0.00     0.184 HD
HETATM   12  C7  UNL     1       9.913  53.382  86.502  1.00  0.00     0.700 A
HETATM   13  N5  UNL     1      11.228  53.242  86.199  1.00  0.00    -0.086 N
HETATM   14  N6  UNL     1      12.322  53.611  86.833  1.00  0.00    -0.290 N
ATOM     15  H6  UNL     1      12.325  54.101  87.728  1.00  0.00     0.187 HD
HETATM   16  C15 UNL     1      13.413  53.273  86.172  1.00  0.00     0.122 A
HETATM   17  C16 UNL     1      13.001  52.620  84.992  1.00  0.00     0.021 A
HETATM   18  C23 UNL     1      11.632  52.618  85.049  1.00  0.00     0.095 A
ENDROOT
BRANCH  12  19
HETATM   19  N3  UNL     1       9.587  53.966  87.583  1.00  0.00    -0.224 N
ATOM     20  H3  UNL     1       9.421  54.969  87.507  1.00  0.00     0.177 HD
BRANCH  19  21
HETATM   21  C8  UNL     1       9.422  53.416  88.879  1.00  0.00     0.140 C
BRANCH  21  22
HETATM   22  C9  UNL     1      10.084  54.310  89.927  1.00  0.00     0.050 C
BRANCH  22  23
HETATM   23  C10 UNL     1      11.429  53.745  90.235  1.00  0.00     0.274 C
BRANCH  23  24
HETATM   24  N4  UNL     1      12.216  54.674  90.988  1.00  0.00     0.092 N
HETATM   25  C11 UNL     1      13.003  55.537  90.108  1.00  0.00     0.298 C
HETATM   26  C12 UNL     1      14.206  54.775  89.634  1.00  0.00     0.198 C
HETATM   27  O1  UNL     1      15.096  54.607  90.697  1.00  0.00    -0.388 OA
HETATM   28  C13 UNL     1      14.422  54.629  91.921  1.00  0.00     0.198 C
HETATM   29  C14 UNL     1      13.126  53.865  91.804  1.00  0.00     0.298 C
ENDBRANCH  23  24
ENDBRANCH  22  23
ENDBRANCH  21  22
ENDBRANCH  19  21
ENDBRANCH  12  19
BRANCH  17  30
HETATM   30  C17 UNL     1      13.895  52.157  83.949  1.00  0.00    -0.022 A
HETATM   31  C18 UNL     1      13.631  51.093  83.095  1.00  0.00     0.012 A
HETATM   32  C19 UNL     1      14.493  50.684  82.118  1.00  0.00     0.001 A
HETATM   33  C20 UNL     1      15.694  51.340  81.946  1.00  0.00     0.000 A
HETATM   34  C21 UNL     1      15.997  52.404  82.773  1.00  0.00     0.001 A
HETATM   35  C22 UNL     1      15.100  52.805  83.765  1.00  0.00     0.012 A
ENDBRANCH  17  30
TORSDOF 6
ENDMDL