MODEL 4
REMARK VINA RESULT: -7.383805880      3.483      8.865
REMARK  6 active torsions:
REMARK  status: ('A' for Active; 'I' for Inactive)
REMARK    1  A    between atoms: O1_2  and  C2_3
REMARK    2  A    between atoms: C5_6  and  N1_7
REMARK    3  A    between atoms: N1_7  and  C6_9
REMARK    4  A    between atoms: C6_9  and  C7_10
REMARK    5  A    between atoms: N4_20  and  C13_22
REMARK    6  A    between atoms: C13_22  and  C14_23
ROOT
HETATM    1  C2  UNL     1       9.155  52.528  83.491  1.00  0.00     0.089 A
HETATM    2  C3  UNL     1      10.514  52.438  83.710  1.00  0.00     0.055 A
HETATM    3  C4  UNL     1      11.055  52.717  84.934  1.00  0.00     0.038 A
HETATM    4  C5  UNL     1      12.407  52.641  85.203  1.00  0.00     0.130 A
HETATM    5  N3  UNL     1      12.939  52.916  86.406  1.00  0.00    -0.176 N
ATOM      6  H3  UNL     1      13.943  52.851  86.573  1.00  0.00     0.186 HD
HETATM    7  C12 UNL     1      12.071  53.287  87.395  1.00  0.00     0.680 A
HETATM    8  N4  UNL     1      12.543  53.560  88.569  1.00  0.00    -0.222 N
ATOM      9  H4  UNL     1      13.543  53.502  88.761  1.00  0.00     0.178 HD
HETATM   10  N5  UNL     1      10.752  53.364  87.145  1.00  0.00    -0.191 N
ATOM     11  H5  UNL     1      10.134  53.644  87.907  1.00  0.00     0.184 HD
HETATM   12  C20 UNL     1      10.198  53.094  85.950  1.00  0.00     0.064 A
HETATM   13  C21 UNL     1       8.821  53.193  85.755  1.00  0.00     0.056 A
HETATM   14  C22 UNL     1       8.287  52.908  84.515  1.00  0.00     0.080 A
HETATM   15  C23 UNL     1       6.861  53.005  84.295  1.00  0.00     0.102 C
HETATM   16  N6  UNL     1       5.721  53.090  84.100  1.00  0.00    -0.191 NA
ENDROOT
BRANCH   1  17
HETATM   17  O1  UNL     1       8.558  52.254  82.267  1.00  0.00    -0.354 OA
HETATM   18  C1  UNL     1       9.252  51.638  81.198  1.00  0.00     0.210 C
ENDBRANCH   1  17
BRANCH   4  19
HETATM   19  N1  UNL     1      13.192  52.286  84.236  1.00  0.00    -0.371 N
ATOM     20  H1  UNL     1      13.447  52.995  83.550  1.00  0.00     0.161 HD
BRANCH  19  21
HETATM   21  C6  UNL     1      13.728  50.975  84.058  1.00  0.00     0.161 C
BRANCH  21  22
HETATM   22  C7  UNL     1      14.168  50.833  82.652  1.00  0.00    -0.025 A
HETATM   23  C8  UNL     1      13.344  50.352  81.657  1.00  0.00     0.011 A
HETATM   24  C9  UNL     1      13.855  50.262  80.384  1.00  0.00     0.018 A
HETATM   25  C10 UNL     1      15.142  50.634  80.091  1.00  0.00     0.087 A
HETATM   26  N2  UNL     1      15.930  51.098  81.064  1.00  0.00    -0.375 N
HETATM   27  C11 UNL     1      15.455  51.197  82.314  1.00  0.00     0.096 A
ATOM     28  H2  UNL     1      16.889  51.376  80.856  1.00  0.00     0.164 HD
ENDBRANCH  21  22
ENDBRANCH  19  21
ENDBRANCH   4  19
BRANCH   8  29
HETATM   29  C13 UNL     1      11.606  53.951  89.600  1.00  0.00     0.176 C
BRANCH  29  30
HETATM   30  C14 UNL     1      12.272  54.228  90.876  1.00  0.00    -0.040 A
HETATM   31  C15 UNL     1      11.657  54.001  92.075  1.00  0.00     0.009 A
HETATM   32  C16 UNL     1      12.316  54.273  93.251  1.00  0.00     0.001 A
HETATM   33  C17 UNL     1      13.595  54.776  93.274  1.00  0.00     0.000 A
HETATM   34  C18 UNL     1      14.218  55.005  92.046  1.00  0.00     0.001 A
HETATM   35  C19 UNL     1      13.557  54.732  90.877  1.00  0.00     0.009 A
ENDBRANCH  29  30
ENDBRANCH   8  29
TORSDOF 6
ENDMDL