MODEL 3
REMARK VINA RESULT: -5.893252265      3.828      8.931
REMARK  8 active torsions:
REMARK  status: ('A' for Active; 'I' for Inactive)
REMARK    1  A    between atoms: O1_3  and  C3_4
REMARK    2  A    between atoms: C3_4  and  C4_5
REMARK    3  A    between atoms: C5_6  and  C6_7
REMARK    4  A    between atoms: C6_7  and  C7_8
REMARK    5  A    between atoms: C6_7  and  N3_22
REMARK    6  A    between atoms: C7_8  and  N1_9
REMARK    7  A    between atoms: N3_22  and  C16_25
REMARK    8  A    between atoms: C16_25  and  C17_26
ROOT
HETATM    1  C1  UNL     1      15.316  51.556  80.703  1.00  0.00     0.044 C
HETATM    2  C2  UNL     1      15.504  51.777  81.883  1.00  0.00     0.043 C
HETATM    3  O1  UNL     1      15.693  52.032  83.208  1.00  0.00    -0.292 OA
ENDROOT
BRANCH   3   4
HETATM    4  C3  UNL     1      15.112  53.176  83.824  1.00  0.00     0.281 C
BRANCH   4   5
HETATM    5  C4  UNL     1      13.992  52.794  84.659  1.00  0.00    -0.077 C
HETATM    6  C5  UNL     1      13.072  52.458  85.363  1.00  0.00    -0.069 C
BRANCH   6   7
HETATM    7  C6  UNL     1      11.990  52.066  86.229  1.00  0.00     0.282 C
BRANCH   7   8
HETATM    8  C7  UNL     1      10.863  51.335  85.559  1.00  0.00     0.180 C
BRANCH   8   9
HETATM    9  N1  UNL     1      10.567  51.792  84.235  1.00  0.00    -0.289 N
HETATM   10  C8  UNL     1       9.862  52.963  83.852  1.00  0.00     0.324 C
HETATM   11  O2  UNL     1       9.342  53.830  84.636  1.00  0.00    -0.247 OA
HETATM   12  N2  UNL     1       9.848  52.981  82.433  1.00  0.00    -0.327 N
HETATM   13  C9  UNL     1      10.103  51.645  81.944  1.00  0.00     0.088 C
ATOM     14  H2  UNL     1       9.685  53.804  81.852  1.00  0.00     0.165 HD
HETATM   15  C10 UNL     1       8.769  50.943  81.900  1.00  0.00     0.038 C
HETATM   16  C14 UNL     1      10.820  51.672  80.639  1.00  0.00     0.038 C
HETATM   17  C15 UNL     1      10.970  51.112  83.029  1.00  0.00     0.112 C
HETATM   18  C11 UNL     1       8.763  49.658  81.153  1.00  0.00     0.003 C
HETATM   19  C12 UNL     1       9.642  49.665  79.926  1.00  0.00     0.000 C
HETATM   20  C13 UNL     1      10.024  51.064  79.510  1.00  0.00     0.003 C
HETATM   21  S1  UNL     1      12.135  50.005  82.929  1.00  0.00    -0.062 SA
ENDBRANCH   8   9
ENDBRANCH   7   8
BRANCH   7  22
HETATM   22  N3  UNL     1      11.467  53.186  87.006  1.00  0.00    -0.054 N
ATOM     23  H32 UNL     1      12.031  54.026  86.877  1.00  0.00     0.279 HD
ATOM     24  H31 UNL     1      10.586  53.528  86.622  1.00  0.00     0.279 HD
BRANCH  22  25
HETATM   25  C16 UNL     1      11.337  52.843  88.406  1.00  0.00     0.280 C
BRANCH  25  26
HETATM   26  C17 UNL     1      12.325  53.736  89.117  1.00  0.00     0.008 A
HETATM   27  C18 UNL     1      13.465  54.296  88.603  1.00  0.00     0.017 A
HETATM   28  C19 UNL     1      14.196  55.057  89.421  1.00  0.00     0.008 A
HETATM   29  C20 UNL     1      13.752  55.218  90.704  1.00  0.00     0.050 A
HETATM   30  S2  UNL     1      12.318  54.296  90.729  1.00  0.00    -0.105 SA
ENDBRANCH  25  26
ENDBRANCH  22  25
ENDBRANCH   7  22
ENDBRANCH   6   7
ENDBRANCH   4   5
ENDBRANCH   3   4
TORSDOF 8
ENDMDL