MODEL 3
REMARK VINA RESULT: -7.118976970      4.749      8.764
REMARK  5 active torsions:
REMARK  status: ('A' for Active; 'I' for Inactive)
REMARK    1  A    between atoms: N1_2  and  C2_5
REMARK    2  A    between atoms: N2_8  and  C5_9
REMARK    3  A    between atoms: C7_13  and  C8_14
REMARK    4  A    between atoms: C13_19  and  C14_20
REMARK    5  A    between atoms: C14_20  and  C15_21
ROOT
HETATM    1  C5  UNL     1      10.058  53.219  87.401  1.00  0.00     0.109 A
HETATM    2  N3  UNL     1       9.738  53.441  86.067  1.00  0.00    -0.351 N
ATOM      3  H3  UNL     1       8.882  53.950  85.848  1.00  0.00     0.166 HD
HETATM    4  C6  UNL     1      10.506  53.016  85.059  1.00  0.00     0.097 A
HETATM    5  C7  UNL     1      11.672  52.325  85.273  1.00  0.00    -0.038 A
HETATM    6  C12 UNL     1      12.029  52.084  86.569  1.00  0.00     0.020 A
HETATM    7  C13 UNL     1      11.215  52.537  87.626  1.00  0.00    -0.008 A
ENDROOT
BRANCH   7   8
HETATM    8  C14 UNL     1      11.795  52.324  88.977  1.00  0.00     0.101 C
BRANCH   8   9
HETATM    9  C15 UNL     1      12.626  53.453  89.479  1.00  0.00     0.037 A
HETATM   10  N4  UNL     1      13.120  54.314  88.540  1.00  0.00    -0.301 N
HETATM   11  N5  UNL     1      13.856  55.357  88.764  1.00  0.00    -0.266 N
ATOM     12  H4  UNL     1      12.886  54.117  87.567  1.00  0.00     0.186 HD
HETATM   13  C16 UNL     1      14.187  55.660  90.008  1.00  0.00     0.266 A
ATOM     14  H5  UNL     1      14.175  55.938  87.990  1.00  0.00     0.190 HD
HETATM   15  O1  UNL     1      14.903  56.675  90.243  1.00  0.00    -0.266 OA
HETATM   16  C17 UNL     1      13.751  54.873  91.034  1.00  0.00     0.019 A
HETATM   17  C18 UNL     1      12.960  53.752  90.762  1.00  0.00    -0.022 A
HETATM   18  C21 UNL     1      13.919  54.957  92.499  1.00  0.00     0.045 C
HETATM   19  C19 UNL     1      12.640  53.057  92.029  1.00  0.00     0.042 C
HETATM   20  C20 UNL     1      13.521  53.634  93.085  1.00  0.00     0.009 C
ENDBRANCH   8   9
ENDBRANCH   7   8
BRANCH   1  21
HETATM   21  N2  UNL     1       9.115  53.645  88.366  1.00  0.00    -0.367 N
HETATM   22  C4  UNL     1       9.290  54.518  89.478  1.00  0.00     0.126 C
HETATM   23  C3  UNL     1       8.218  54.181  90.532  1.00  0.00     0.053 C
HETATM   24  C2  UNL     1       8.003  52.738  90.757  1.00  0.00     0.188 C
HETATM   25  C23 UNL     1       7.744  52.034  89.448  1.00  0.00     0.053 C
HETATM   26  C22 UNL     1       7.761  53.062  88.302  1.00  0.00     0.126 C
BRANCH  24  27
HETATM   27  N1  UNL     1       9.186  52.192  91.437  1.00  0.00    -0.075 N
HETATM   28  C1  UNL     1       9.306  50.775  91.198  1.00  0.00     0.267 C
ATOM     29  H12 UNL     1       9.181  52.408  92.434  1.00  0.00     0.277 HD
ATOM     30  H11 UNL     1      10.036  52.693  91.176  1.00  0.00     0.277 HD
ENDBRANCH  24  27
ENDBRANCH   1  21
BRANCH   5  31
HETATM   31  C8  UNL     1      12.532  51.857  84.173  1.00  0.00     0.020 A
HETATM   32  C9  UNL     1      11.813  51.358  82.937  1.00  0.00     0.009 A
HETATM   33  C10 UNL     1      12.335  49.981  83.204  1.00  0.00     0.001 A
HETATM   34  C11 UNL     1      13.101  50.448  84.417  1.00  0.00     0.009 A
ENDBRANCH   5  31
TORSDOF 5
ENDMDL