MODEL 5
REMARK VINA RESULT: -7.805431918      1.683      2.908
REMARK  5 active torsions:
REMARK  status: ('A' for Active; 'I' for Inactive)
REMARK    1  A    between atoms: C5_5  and  N1_6
REMARK       I    between atoms: N1_6  and  C6_8
REMARK       I    between atoms: C6_8  and  N6_27
REMARK    2  A    between atoms: N2_9  and  C7_11
REMARK    3  A    between atoms: C7_11  and  C8_12
REMARK    4  A    between atoms: C8_12  and  N3_13
REMARK    5  A    between atoms: N4_16  and  C11_17
ROOT
HETATM    1  C11 UNL     1      13.865  51.299  83.073  1.00  0.00     0.051 A
HETATM    2  C12 UNL     1      14.946  52.060  83.532  1.00  0.00     0.031 A
HETATM    3  C13 UNL     1      16.054  52.257  82.746  1.00  0.00     0.002 A
HETATM    4  C14 UNL     1      16.067  51.681  81.492  1.00  0.00     0.002 A
HETATM    5  C15 UNL     1      15.007  50.932  81.036  1.00  0.00     0.025 A
HETATM    6  C16 UNL     1      13.874  50.727  81.832  1.00  0.00     0.071 A
HETATM    7  C17 UNL     1      12.793  49.939  81.328  1.00  0.00     0.102 C
HETATM    8  N5  UNL     1      11.942  49.293  80.925  1.00  0.00    -0.191 NA
ENDROOT
BRANCH   1   9
HETATM    9  N4  UNL     1      12.757  51.144  83.933  1.00  0.00    -0.376 N
HETATM   10  C10 UNL     1      12.677  50.107  84.964  1.00  0.00     0.153 C
HETATM   11  C9  UNL     1      11.743  50.557  86.061  1.00  0.00     0.292 C
HETATM   12  N3  UNL     1      11.809  51.983  86.277  1.00  0.00     0.093 N
HETATM   13  C19 UNL     1      11.516  52.786  85.141  1.00  0.00     0.292 C
HETATM   14  C18 UNL     1      11.602  52.013  83.854  1.00  0.00     0.153 C
BRANCH  12  15
HETATM   15  C8  UNL     1      11.123  52.380  87.492  1.00  0.00     0.292 C
BRANCH  15  16
HETATM   16  C7  UNL     1      12.153  52.515  88.576  1.00  0.00     0.168 C
BRANCH  16  17
HETATM   17  N2  UNL     1      12.475  53.891  88.872  1.00  0.00    -0.224 N
HETATM   18  C6  UNL     1      12.775  54.322  90.048  1.00  0.00     0.683 C
HETATM   19  N1  UNL     1      12.811  53.442  91.167  1.00  0.00    -0.221 N
HETATM   20  N6  UNL     1      13.077  55.698  90.219  1.00  0.00    -0.126 N
ATOM     21  H1  UNL     1      13.565  52.757  91.207  1.00  0.00     0.178 HD
HETATM   22  C20 UNL     1      14.409  56.152  90.264  1.00  0.00     0.196 C
ATOM     23  H6  UNL     1      12.315  56.370  90.310  1.00  0.00     0.197 HD
HETATM   24  N7  UNL     1      15.508  56.546  90.295  1.00  0.00    -0.171 NA
ATOM     25  H2  UNL     1      12.464  54.562  88.104  1.00  0.00     0.177 HD
BRANCH  19  26
HETATM   26  C5  UNL     1      11.865  53.449  92.239  1.00  0.00     0.099 C
HETATM   27  C4  UNL     1      10.447  53.788  91.807  1.00  0.00     0.026 C
HETATM   28  C3  UNL     1       9.587  53.325  92.986  1.00  0.00     0.006 C
HETATM   29  C2  UNL     1       9.874  54.218  94.142  1.00  0.00    -0.019 C
HETATM   30  C1  UNL     1       9.022  53.758  95.309  1.00  0.00     0.010 C
HETATM   31  C22 UNL     1      11.304  54.329  94.531  1.00  0.00     0.006 C
HETATM   32  C21 UNL     1      12.300  54.262  93.429  1.00  0.00     0.026 C
ENDBRANCH  19  26
ENDBRANCH  16  17
ENDBRANCH  15  16
ENDBRANCH  12  15
ENDBRANCH   1   9
TORSDOF 5
ENDMDL