MODEL 3
REMARK VINA RESULT: -4.885738292      2.260      5.918
REMARK  6 active torsions:
REMARK  status: ('A' for Active; 'I' for Inactive)
REMARK    1  A    between atoms: N1_2  and  C2_5
REMARK    2  A    between atoms: C12_16  and  C13_17
REMARK    3  A    between atoms: C13_17  and  O2_18
REMARK    4  A    between atoms: C16_22  and  C17_23
REMARK    5  A    between atoms: C17_23  and  N2_24
REMARK    6  A    between atoms: C20_28  and  C21_29
ROOT
HETATM    1  C2  UNL     1      12.144  54.695  93.359  1.00  0.00     0.200 C
HETATM    2  C3  UNL     1      10.918  53.937  93.697  1.00  0.00     0.066 C
HETATM    3  C4  UNL     1      10.489  53.020  92.571  1.00  0.00     0.129 C
HETATM    4  O1  UNL     1      11.273  52.002  92.550  1.00  0.00    -0.377 OA
HETATM    5  C5  UNL     1      11.138  50.717  92.477  1.00  0.00     0.161 C
HETATM    6  C6  UNL     1      11.962  50.113  93.638  1.00  0.00     0.071 C
HETATM    7  C7  UNL     1      13.347  50.616  93.153  1.00  0.00     0.147 C
HETATM    8  C8  UNL     1      13.615  51.955  93.712  1.00  0.00     0.002 C
HETATM    9  C9  UNL     1      13.983  53.098  92.873  1.00  0.00    -0.016 C
HETATM   10  C10 UNL     1      13.018  54.036  92.278  1.00  0.00     0.012 C
HETATM   11  C11 UNL     1      13.954  55.214  91.925  1.00  0.00     0.022 C
HETATM   12  C12 UNL     1      12.224  53.715  91.022  1.00  0.00    -0.000 C
HETATM   13  C14 UNL     1      12.658  52.462  90.341  1.00  0.00     0.016 C
HETATM   14  C15 UNL     1      11.881  51.256  90.233  1.00  0.00     0.043 C
HETATM   15  C16 UNL     1      12.076  50.243  91.373  1.00  0.00     0.114 C
HETATM   16  O3  UNL     1      13.354  50.457  91.807  1.00  0.00    -0.366 OA
HETATM   17  C20 UNL     1      10.774  53.907  91.302  1.00  0.00     0.030 C
ENDROOT
BRANCH   1  18
HETATM   18  N1  UNL     1      12.859  55.045  94.538  1.00  0.00    -0.074 N
HETATM   19  C1  UNL     1      12.280  56.165  95.260  1.00  0.00     0.267 C
ATOM     20  H12 UNL     1      13.840  55.224  94.324  1.00  0.00     0.277 HD
ATOM     21  H11 UNL     1      12.963  54.236  95.151  1.00  0.00     0.277 HD
ENDBRANCH   1  18
BRANCH  12  22
HETATM   22  C13 UNL     1      12.489  54.763  89.936  1.00  0.00     0.175 C
BRANCH  22  23
HETATM   23  O2  UNL     1      12.934  54.229  88.721  1.00  0.00    -0.400 OA
ATOM     24  H2  UNL     1      13.633  53.591  88.809  1.00  0.00     0.209 HD
ENDBRANCH  22  23
ENDBRANCH  12  22
BRANCH  17  25
HETATM   25  C21 UNL     1       9.640  53.837  90.402  1.00  0.00    -0.015 C
HETATM   26  C22 UNL     1       8.965  55.050  89.853  1.00  0.00     0.010 C
HETATM   27  C23 UNL     1       8.481  53.124  91.188  1.00  0.00     0.010 C
ENDBRANCH  17  25
BRANCH  15  28
HETATM   28  C17 UNL     1      11.767  48.844  90.944  1.00  0.00     0.311 C
BRANCH  28  29
HETATM   29  N2  UNL     1      12.930  48.138  90.538  1.00  0.00     0.083 N
HETATM   30  C18 UNL     1      12.724  47.738  89.138  1.00  0.00     0.309 C
HETATM   31  C19 UNL     1      13.220  46.952  91.275  1.00  0.00     0.309 C
ENDBRANCH  28  29
ENDBRANCH  15  28
TORSDOF 6
ENDMDL