MODEL 1
REMARK VINA RESULT: -7.412551885      0.000      0.000
REMARK  7 active torsions:
REMARK  status: ('A' for Active; 'I' for Inactive)
REMARK    1  A    between atoms: N2_5  and  C3_6
REMARK    2  A    between atoms: C10_14  and  C11_15
REMARK    3  A    between atoms: C11_15  and  C12_16
REMARK    4  A    between atoms: C14_18  and  O2_19
REMARK    5  A    between atoms: C16_21  and  O3_22
REMARK    6  A    between atoms: C17_24  and  O4_25
REMARK    7  A    between atoms: O4_25  and  C18_26
ROOT
HETATM    1  C12 UNL     1       9.616  52.271  85.912  1.00  0.00    -0.030 A
HETATM    2  C13 UNL     1       8.849  53.031  85.079  1.00  0.00     0.051 A
HETATM    3  C14 UNL     1       9.078  53.162  83.729  1.00  0.00     0.104 A
HETATM    4  C16 UNL     1      10.150  52.481  83.194  1.00  0.00     0.133 A
HETATM    5  C17 UNL     1      10.979  51.681  83.996  1.00  0.00     0.106 A
HETATM    6  C23 UNL     1      10.694  51.593  85.340  1.00  0.00     0.051 A
ENDROOT
BRANCH   1   7
HETATM    7  C11 UNL     1       9.348  52.151  87.337  1.00  0.00     0.031 C
BRANCH   7   8
HETATM    8  C10 UNL     1       9.818  52.941  88.249  1.00  0.00     0.062 A
HETATM    9  C2  UNL     1       9.129  53.931  88.916  1.00  0.00     0.055 A
HETATM   10  C1  UNL     1       7.868  54.281  88.777  1.00  0.00     0.045 C
HETATM   11  N1  UNL     1       9.973  54.530  89.788  1.00  0.00    -0.291 N
HETATM   12  N2  UNL     1      11.160  53.962  89.696  1.00  0.00    -0.220 N
ATOM     13  H1  UNL     1       9.731  55.297  90.416  1.00  0.00     0.187 HD
HETATM   14  C9  UNL     1      11.096  52.975  88.752  1.00  0.00     0.279 A
HETATM   15  O1  UNL     1      12.089  52.274  88.465  1.00  0.00    -0.265 OA
BRANCH  12  16
HETATM   16  C3  UNL     1      12.320  54.327  90.465  1.00  0.00     0.060 A
HETATM   17  C4  UNL     1      12.494  53.877  91.757  1.00  0.00     0.031 A
HETATM   18  C5  UNL     1      13.618  54.226  92.512  1.00  0.00     0.002 A
HETATM   19  C6  UNL     1      14.585  55.041  91.962  1.00  0.00     0.000 A
HETATM   20  C7  UNL     1      14.435  55.503  90.673  1.00  0.00     0.002 A
HETATM   21  C8  UNL     1      13.307  55.140  89.946  1.00  0.00     0.031 A
ENDBRANCH  12  16
ENDBRANCH   7   8
ENDBRANCH   1   7
BRANCH   3  22
HETATM   22  O2  UNL     1       8.258  53.957  82.914  1.00  0.00    -0.353 OA
HETATM   23  C15 UNL     1       7.035  53.383  82.492  1.00  0.00     0.210 C
ENDBRANCH   3  22
BRANCH   5  24
HETATM   24  O4  UNL     1      12.020  51.040  83.386  1.00  0.00    -0.343 OA
BRANCH  24  25
HETATM   25  C18 UNL     1      13.368  51.141  83.676  1.00  0.00     0.129 C
HETATM   26  C19 UNL     1      14.201  51.226  82.404  1.00  0.00     0.032 C
HETATM   27  C20 UNL     1      15.501  51.819  82.901  1.00  0.00     0.002 C
HETATM   28  C21 UNL     1      15.092  52.800  83.970  1.00  0.00     0.002 C
HETATM   29  C22 UNL     1      13.630  52.529  84.264  1.00  0.00     0.032 C
ENDBRANCH  24  25
ENDBRANCH   5  24
BRANCH   4  30
HETATM   30  O3  UNL     1      10.381  52.612  81.837  1.00  0.00    -0.356 OA
ATOM     31  H3  UNL     1      11.283  52.608  81.541  1.00  0.00     0.218 HD
ENDBRANCH   4  30
TORSDOF 7
ENDMDL