MODEL 2
REMARK VINA RESULT: -6.683313600      5.566      8.779
REMARK  5 active torsions:
REMARK  status: ('A' for Active; 'I' for Inactive)
REMARK    1  A    between atoms: C10_15  and  O2_16
REMARK    2  A    between atoms: O2_16  and  C11_17
REMARK    3  A    between atoms: C11_17  and  C12_18
REMARK    4  A    between atoms: C12_18  and  C13_19
REMARK    5  A    between atoms: C13_19  and  N3_20
ROOT
HETATM    1  O1  UNL     1      14.208  56.547  90.577  1.00  0.00    -0.247 OA
HETATM    2  C1  UNL     1      13.538  55.492  90.717  1.00  0.00     0.324 C
HETATM    3  N1  UNL     1      13.872  54.572  91.742  1.00  0.00    -0.288 N
ATOM      4  H1  UNL     1      14.653  54.742  92.376  1.00  0.00     0.172 HD
HETATM    5  C2  UNL     1      13.060  53.386  91.849  1.00  0.00     0.157 A
HETATM    6  S1  UNL     1      13.193  52.036  92.888  1.00  0.00    -0.064 SA
HETATM    7  C3  UNL     1      11.892  51.124  92.276  1.00  0.00     0.070 A
HETATM    8  C4  UNL     1      11.416  51.926  91.286  1.00  0.00     0.103 A
HETATM    9  N2  UNL     1      12.030  53.089  91.081  1.00  0.00    -0.305 N
HETATM   10  C5  UNL     1      11.574  54.071  90.063  1.00  0.00     0.144 C
HETATM   11  C6  UNL     1      10.177  54.468  90.508  1.00  0.00     0.064 C
HETATM   12  C7  UNL     1       9.284  54.316  89.312  1.00  0.00     0.044 C
HETATM   13  C8  UNL     1      10.061  53.499  88.333  1.00  0.00    -0.045 A
HETATM   14  C9  UNL     1       9.658  52.916  87.151  1.00  0.00     0.044 A
HETATM   15  C10 UNL     1      10.508  52.177  86.348  1.00  0.00     0.069 A
HETATM   16  C19 UNL     1      11.827  52.050  86.807  1.00  0.00     0.037 A
HETATM   17  C20 UNL     1      12.221  52.637  87.991  1.00  0.00     0.015 A
HETATM   18  C21 UNL     1      11.355  53.365  88.769  1.00  0.00    -0.003 A
HETATM   19  N4  UNL     1      12.446  55.136  89.911  1.00  0.00    -0.311 N
ATOM     20  H4  UNL     1      12.271  55.741  89.108  1.00  0.00     0.167 HD
ENDROOT
BRANCH  15  21
HETATM   21  O2  UNL     1      10.129  51.580  85.154  1.00  0.00    -0.351 OA
BRANCH  21  22
HETATM   22  C11 UNL     1      10.746  52.002  83.965  1.00  0.00     0.177 C
BRANCH  22  23
HETATM   23  C12 UNL     1      11.272  50.830  83.154  1.00  0.00     0.046 C
BRANCH  23  24
HETATM   24  C13 UNL     1      12.247  51.241  82.108  1.00  0.00     0.124 C
BRANCH  24  25
HETATM   25  N3  UNL     1      13.520  50.642  82.342  1.00  0.00    -0.393 N
HETATM   26  C14 UNL     1      14.276  50.345  81.167  1.00  0.00     0.122 C
HETATM   27  C15 UNL     1      15.022  51.604  80.782  1.00  0.00     0.020 C
HETATM   28  C16 UNL     1      15.984  51.944  81.884  1.00  0.00     0.007 C
HETATM   29  C17 UNL     1      15.194  52.223  83.166  1.00  0.00     0.044 C
HETATM   30  C18 UNL     1      14.277  51.045  83.459  1.00  0.00     0.058 C
ENDBRANCH  24  25
ENDBRANCH  23  24
ENDBRANCH  22  23
ENDBRANCH  21  22
ENDBRANCH  15  21
TORSDOF 5
ENDMDL