MODEL 5
REMARK VINA RESULT: -7.457358009      4.272      7.147
REMARK  5 active torsions:
REMARK  status: ('A' for Active; 'I' for Inactive)
REMARK    1  A    between atoms: O1_2  and  C2_3
REMARK    2  A    between atoms: C5_6  and  S1_7
REMARK    3  A    between atoms: S1_7  and  N1_10
REMARK    4  A    between atoms: N1_10  and  C7_12
REMARK    5  A    between atoms: N3_18  and  C11_20
ROOT
HETATM    1  C7  UNL     1      11.299  50.712  87.905  1.00  0.00     0.049 A
HETATM    2  C8  UNL     1      10.388  51.367  88.713  1.00  0.00     0.047 A
HETATM    3  C9  UNL     1      10.164  52.715  88.523  1.00  0.00     0.092 A
HETATM    4  N2  UNL     1      10.805  53.441  87.564  1.00  0.00    -0.352 N
ATOM      5  H2  UNL     1      10.615  54.437  87.450  1.00  0.00     0.166 HD
HETATM    6  C10 UNL     1      11.690  52.816  86.774  1.00  0.00     0.107 A
HETATM    7  N3  UNL     1      12.287  53.513  85.874  1.00  0.00    -0.342 N
ATOM      8  H3  UNL     1      12.055  54.504  85.809  1.00  0.00     0.167 HD
HETATM    9  C18 UNL     1      11.928  51.472  86.949  1.00  0.00     0.078 A
ENDROOT
BRANCH   1  10
HETATM   10  N1  UNL     1      11.520  49.324  88.111  1.00  0.00    -0.276 N
HETATM   11  C6  UNL     1      10.806  48.402  87.248  1.00  0.00     0.170 C
BRANCH  10  12
HETATM   12  S1  UNL     1      12.577  48.703  89.319  1.00  0.00     0.264 S
HETATM   13  O2  UNL     1      13.057  49.807  90.246  1.00  0.00    -0.200 OA
HETATM   14  O3  UNL     1      11.781  47.745  90.162  1.00  0.00    -0.200 OA
BRANCH  12  15
HETATM   15  C5  UNL     1      13.936  47.912  88.554  1.00  0.00     0.080 A
HETATM   16  C4  UNL     1      15.202  47.897  89.135  1.00  0.00     0.028 A
HETATM   17  C3  UNL     1      16.278  47.272  88.532  1.00  0.00     0.038 A
HETATM   18  C2  UNL     1      16.120  46.631  87.311  1.00  0.00     0.068 A
HETATM   19  C20 UNL     1      14.856  46.653  86.743  1.00  0.00     0.038 A
HETATM   20  C19 UNL     1      13.790  47.276  87.346  1.00  0.00     0.028 A
BRANCH  18  21
HETATM   21  O1  UNL     1      17.133  45.988  86.646  1.00  0.00    -0.356 OA
HETATM   22  C1  UNL     1      16.982  44.979  85.691  1.00  0.00     0.210 C
ENDBRANCH  18  21
ENDBRANCH  12  15
ENDBRANCH  10  12
ENDBRANCH   1  10
BRANCH   7  23
HETATM   23  C11 UNL     1      13.243  53.002  84.967  1.00  0.00     0.034 A
HETATM   24  C12 UNL     1      14.523  53.454  84.947  1.00  0.00     0.032 A
HETATM   25  C13 UNL     1      15.450  52.939  84.047  1.00  0.00     0.034 A
HETATM   26  C14 UNL     1      15.096  51.947  83.142  1.00  0.00     0.059 A
HETATM   27  N4  UNL     1      15.759  51.280  82.184  1.00  0.00    -0.300 N
HETATM   28  C16 UNL     1      13.793  51.499  83.176  1.00  0.00     0.011 A
HETATM   29  N5  UNL     1      14.916  50.437  81.624  1.00  0.00    -0.311 N
ATOM     30  H4  UNL     1      16.740  51.405  81.934  1.00  0.00     0.187 HD
HETATM   31  C15 UNL     1      13.691  50.531  82.197  1.00  0.00     0.120 A
ATOM     32  H5  UNL     1      15.153  49.799  80.863  1.00  0.00     0.186 HD
HETATM   33  C17 UNL     1      12.857  52.014  84.080  1.00  0.00     0.044 A
ENDBRANCH   7  23
TORSDOF 5
ENDMDL