MODEL 3
REMARK VINA RESULT: -7.285485163      5.847      9.815
REMARK  6 active torsions:
REMARK  status: ('A' for Active; 'I' for Inactive)
REMARK    1  A    between atoms: C1_2  and  C2_3
REMARK       I    between atoms: C1_2  and  N3_28
REMARK    2  A    between atoms: C2_3  and  O2_4
REMARK    3  A    between atoms: O2_4  and  C3_5
REMARK    4  A    between atoms: C4_6  and  C5_7
REMARK    5  A    between atoms: C5_7  and  N1_8
REMARK    6  A    between atoms: N1_8  and  C6_11
ROOT
HETATM    1  C3  UNL     1      -5.403  37.216   4.303  1.00  0.00     0.051 C
HETATM    2  C4  UNL     1      -5.684  37.108   5.581  1.00  0.00    -0.025 C
HETATM    3  C15 UNL     1      -5.816  38.140   6.683  1.00  0.00     0.038 C
HETATM    4  C16 UNL     1      -5.639  39.539   6.224  1.00  0.00     0.004 C
HETATM    5  C17 UNL     1      -4.226  39.786   5.749  1.00  0.00     0.001 C
HETATM    6  C18 UNL     1      -3.930  39.172   4.416  1.00  0.00     0.006 C
HETATM    7  C19 UNL     1      -5.127  38.615   3.726  1.00  0.00     0.065 C
ENDROOT
BRANCH   2   8
HETATM    8  C5  UNL     1      -5.924  35.739   6.087  1.00  0.00     0.272 C
BRANCH   8   9
HETATM    9  N1  UNL     1      -4.692  34.963   5.963  1.00  0.00    -0.039 N
ATOM     10  H12 UNL     1      -4.732  34.318   5.173  1.00  0.00     0.281 HD
ATOM     11  H11 UNL     1      -3.913  35.542   5.651  1.00  0.00     0.281 HD
BRANCH   9  12
HETATM   12  C6  UNL     1      -4.385  34.276   7.195  1.00  0.00     0.229 C
HETATM   13  C7  UNL     1      -5.293  33.081   7.363  1.00  0.00     0.074 C
HETATM   14  C8  UNL     1      -5.205  32.571   8.751  1.00  0.00    -0.000 C
HETATM   15  C9  UNL     1      -5.264  31.065   8.851  1.00  0.00     0.024 C
HETATM   16  C12 UNL     1      -3.841  32.935   9.310  1.00  0.00     0.036 C
HETATM   17  C10 UNL     1      -5.136  30.682  10.292  1.00  0.00     0.114 C
HETATM   18  N2  UNL     1      -4.115  31.336  11.023  1.00  0.00    -0.421 N
HETATM   19  C11 UNL     1      -3.989  32.759  10.807  1.00  0.00     0.121 C
ATOM     20  H2  UNL     1      -3.503  30.831  11.664  1.00  0.00     0.153 HD
HETATM   21  C13 UNL     1      -3.396  34.272   8.861  1.00  0.00     0.135 C
HETATM   22  C14 UNL     1      -4.514  35.180   8.421  1.00  0.00     0.101 C
HETATM   23  O3  UNL     1      -3.085  34.114   7.475  1.00  0.00    -0.348 OA
ENDBRANCH   9  12
ENDBRANCH   8   9
ENDBRANCH   2   8
BRANCH   1  24
HETATM   24  O2  UNL     1      -5.339  36.225   3.495  1.00  0.00    -0.346 OA
BRANCH  24  25
HETATM   25  C2  UNL     1      -5.275  35.218   2.664  1.00  0.00     0.278 C
BRANCH  25  26
HETATM   26  C1  UNL     1      -6.491  34.341   2.640  1.00  0.00     0.243 C
HETATM   27  O1  UNL     1      -6.764  33.720   3.680  1.00  0.00    -0.271 OA
HETATM   28  N3  UNL     1      -7.239  34.280   1.450  1.00  0.00    -0.350 N
HETATM   29  C20 UNL     1      -8.405  33.444   1.373  1.00  0.00     0.126 C
HETATM   30  C24 UNL     1      -6.861  35.038   0.291  1.00  0.00     0.126 C
HETATM   31  C21 UNL     1      -8.180  32.461   0.239  1.00  0.00     0.020 C
HETATM   32  C22 UNL     1      -7.889  33.246  -1.019  1.00  0.00     0.003 C
HETATM   33  C23 UNL     1      -6.637  34.052  -0.853  1.00  0.00     0.020 C
ENDBRANCH  25  26
ENDBRANCH  24  25
ENDBRANCH   1  24
TORSDOF 6
ENDMDL