MODEL 1
REMARK VINA RESULT: -8.950518920      0.000      0.000
REMARK  7 active torsions:
REMARK  status: ('A' for Active; 'I' for Inactive)
REMARK    1  A    between atoms: O1_2  and  C2_3
REMARK    2  A    between atoms: C6_7  and  C7_8
REMARK    3  A    between atoms: C7_8  and  N1_9
REMARK    4  A    between atoms: N1_9  and  C8_11
REMARK    5  A    between atoms: C10_17  and  N4_18
REMARK    6  A    between atoms: N4_18  and  C11_20
REMARK    7  A    between atoms: C11_20  and  C12_21
ROOT
HETATM    1  C8  UNL     1      -5.884  35.034   3.698  1.00  0.00     0.124 A
HETATM    2  N2  UNL     1      -6.786  34.705   2.770  1.00  0.00    -0.327 N
ATOM      3  H2  UNL     1      -7.728  34.441   3.057  1.00  0.00     0.169 HD
HETATM    4  C9  UNL     1      -6.471  34.717   1.455  1.00  0.00     0.120 A
HETATM    5  N3  UNL     1      -7.430  34.375   0.598  1.00  0.00    -0.328 N
ATOM      6  H3  UNL     1      -8.358  34.118   0.933  1.00  0.00     0.169 HD
HETATM    7  C10 UNL     1      -7.153  34.376  -0.718  1.00  0.00     0.104 A
HETATM    8  C18 UNL     1      -5.905  34.723  -1.179  1.00  0.00     0.072 A
HETATM    9  C19 UNL     1      -4.901  35.081  -0.271  1.00  0.00     0.062 A
HETATM   10  C20 UNL     1      -3.590  35.450  -0.679  1.00  0.00     0.100 C
HETATM   11  N5  UNL     1      -2.522  35.759  -1.021  1.00  0.00    -0.191 NA
HETATM   12  C21 UNL     1      -5.194  35.077   1.075  1.00  0.00     0.030 A
HETATM   13  C22 UNL     1      -4.228  35.425   1.992  1.00  0.00     0.043 A
HETATM   14  C23 UNL     1      -4.602  35.396   3.341  1.00  0.00     0.089 A
HETATM   15  C24 UNL     1      -3.682  35.738   4.376  1.00  0.00     0.103 C
HETATM   16  N6  UNL     1      -2.923  36.001   5.211  1.00  0.00    -0.191 NA
ENDROOT
BRANCH   7  17
HETATM   17  N4  UNL     1      -8.062  34.052  -1.541  1.00  0.00    -0.372 N
ATOM     18  H4  UNL     1      -8.948  33.748  -1.138  1.00  0.00     0.161 HD
BRANCH  17  19
HETATM   19  C11 UNL     1      -7.990  34.065  -2.963  1.00  0.00     0.159 C
BRANCH  19  20
HETATM   20  C12 UNL     1      -8.736  35.175  -3.582  1.00  0.00    -0.041 A
HETATM   21  C13 UNL     1      -8.110  36.389  -3.734  1.00  0.00     0.009 A
HETATM   22  C14 UNL     1      -8.789  37.465  -4.318  1.00  0.00     0.001 A
HETATM   23  C15 UNL     1     -10.083  37.309  -4.738  1.00  0.00     0.000 A
HETATM   24  C16 UNL     1     -10.728  36.104  -4.596  1.00  0.00     0.001 A
HETATM   25  C17 UNL     1     -10.031  35.043  -4.011  1.00  0.00     0.009 A
ENDBRANCH  19  20
ENDBRANCH  17  19
ENDBRANCH   7  17
BRANCH   1  26
HETATM   26  N1  UNL     1      -6.204  35.015   4.941  1.00  0.00    -0.371 N
ATOM     27  H1  UNL     1      -5.985  35.808   5.545  1.00  0.00     0.161 HD
BRANCH  26  28
HETATM   28  C7  UNL     1      -6.881  33.853   5.474  1.00  0.00     0.160 C
BRANCH  28  29
HETATM   29  C6  UNL     1      -6.131  33.257   6.598  1.00  0.00    -0.038 A
HETATM   30  C5  UNL     1      -6.506  32.027   7.085  1.00  0.00     0.009 A
HETATM   31  C4  UNL     1      -5.780  31.504   8.136  1.00  0.00     0.003 A
HETATM   32  C3  UNL     1      -4.709  32.204   8.677  1.00  0.00     0.037 A
HETATM   33  C2  UNL     1      -4.343  33.436   8.181  1.00  0.00     0.068 A
HETATM   34  C25 UNL     1      -5.063  33.951   7.140  1.00  0.00     0.045 A
BRANCH  33  35
HETATM   35  O1  UNL     1      -3.256  34.138   8.736  1.00  0.00    -0.356 OA
HETATM   36  C1  UNL     1      -2.956  33.999  10.111  1.00  0.00     0.210 C
ENDBRANCH  33  35
ENDBRANCH  28  29
ENDBRANCH  26  28
ENDBRANCH   1  26
TORSDOF 7
ENDMDL