MODEL 4
REMARK VINA RESULT: -6.004014799      4.515     10.336
REMARK  7 active torsions:
REMARK  status: ('A' for Active; 'I' for Inactive)
REMARK    1  A    between atoms: C2_2  and  O1_3
REMARK    2  A    between atoms: O1_3  and  C3_4
REMARK    3  A    between atoms: C3_4  and  C4_6
REMARK    4  A    between atoms: N1_9  and  C7_10
REMARK    5  A    between atoms: C12_17  and  N3_18
REMARK    6  A    between atoms: N3_18  and  C13_20
REMARK    7  A    between atoms: C18_28  and  C19_29
ROOT
HETATM    1  C7  UNL     1      -5.933  35.098   3.275  1.00  0.00     0.112 A
HETATM    2  N2  UNL     1      -4.913  35.970   3.243  1.00  0.00    -0.345 N
ATOM      3  H2  UNL     1      -4.513  36.309   4.118  1.00  0.00     0.167 HD
HETATM    4  C8  UNL     1      -4.416  36.401   2.085  1.00  0.00     0.015 A
HETATM    5  C9  UNL     1      -3.273  37.373   2.069  1.00  0.00     0.069 C
HETATM    6  C10 UNL     1      -4.948  35.951   0.894  1.00  0.00    -0.013 A
HETATM    7  C11 UNL     1      -4.367  36.488  -0.372  1.00  0.00     0.052 C
HETATM    8  C12 UNL     1      -6.011  35.039   0.890  1.00  0.00     0.046 A
HETATM    9  C18 UNL     1      -6.531  34.594   2.119  1.00  0.00     0.017 A
ENDROOT
BRANCH   1  10
HETATM   10  N1  UNL     1      -6.390  34.654   4.565  1.00  0.00    -0.367 N
HETATM   11  C6  UNL     1      -6.313  35.609   5.650  1.00  0.00     0.125 C
HETATM   12  C5  UNL     1      -5.426  35.106   6.768  1.00  0.00     0.034 C
HETATM   13  C4  UNL     1      -5.288  33.616   6.791  1.00  0.00     0.088 C
HETATM   14  C24 UNL     1      -6.494  32.894   6.256  1.00  0.00     0.034 C
HETATM   15  C23 UNL     1      -6.888  33.350   4.858  1.00  0.00     0.125 C
BRANCH  13  16
HETATM   16  C3  UNL     1      -5.077  33.135   8.178  1.00  0.00     0.263 C
HETATM   17  O2  UNL     1      -4.397  33.795   8.989  1.00  0.00    -0.265 OA
BRANCH  16  18
HETATM   18  O1  UNL     1      -5.639  31.939   8.581  1.00  0.00    -0.322 OA
BRANCH  18  19
HETATM   19  C2  UNL     1      -4.954  30.977   9.355  1.00  0.00     0.174 C
HETATM   20  C1  UNL     1      -5.311  31.040  10.816  1.00  0.00     0.034 C
ENDBRANCH  18  19
ENDBRANCH  16  18
ENDBRANCH  13  16
ENDBRANCH   1  10
BRANCH   9  21
HETATM   21  C19 UNL     1      -7.611  33.650   2.197  1.00  0.00     0.025 C
HETATM   22  C20 UNL     1      -7.451  32.370   1.437  1.00  0.00     0.009 C
HETATM   23  C21 UNL     1      -9.007  32.305   1.381  1.00  0.00     0.001 C
HETATM   24  C22 UNL     1      -8.885  33.822   1.438  1.00  0.00     0.009 C
ENDBRANCH   9  21
BRANCH   8  25
HETATM   25  N3  UNL     1      -6.413  34.611  -0.203  1.00  0.00    -0.384 N
ATOM     26  H3  UNL     1      -7.286  34.129   0.011  1.00  0.00     0.160 HD
BRANCH  25  27
HETATM   27  C13 UNL     1      -6.257  34.472  -1.545  1.00  0.00     0.085 C
HETATM   28  C14 UNL     1      -5.292  33.336  -1.997  1.00  0.00     0.052 C
HETATM   29  C15 UNL     1      -5.149  33.494  -3.492  1.00  0.00     0.234 C
HETATM   30  N4  UNL     1      -6.415  33.224  -4.156  1.00  0.00    -0.075 N
HETATM   31  C16 UNL     1      -7.399  34.200  -3.720  1.00  0.00     0.234 C
ATOM     32  H42 UNL     1      -6.321  33.194  -5.171  1.00  0.00     0.277 HD
ATOM     33  H41 UNL     1      -6.731  32.264  -4.013  1.00  0.00     0.277 HD
HETATM   34  C17 UNL     1      -7.580  34.070  -2.244  1.00  0.00     0.052 C
ENDBRANCH  25  27
ENDBRANCH   8  25
TORSDOF 7
ENDMDL