MODEL 1
REMARK VINA RESULT: -6.453933078      0.000      0.000
REMARK  5 active torsions:
REMARK  status: ('A' for Active; 'I' for Inactive)
REMARK    1  A    between atoms: O1_2  and  C2_3
REMARK    2  A    between atoms: C2_3  and  C3_4
REMARK    3  A    between atoms: C3_4  and  N1_5
REMARK    4  A    between atoms: C3_4  and  C6_10
REMARK       I    between atoms: N1_5  and  C4_7
REMARK    5  A    between atoms: C9_13  and  O3_14
ROOT
HETATM    1  C6  UNL     1      -5.778  34.826   2.136  1.00  0.00     0.017 C
HETATM    2  C7  UNL     1      -7.156  34.178   2.240  1.00  0.00     0.010 C
HETATM    3  C8  UNL     1      -7.920  34.648   1.005  1.00  0.00     0.039 C
HETATM    4  C9  UNL     1      -6.736  34.639   0.010  1.00  0.00     0.067 C
HETATM    5  C10 UNL     1      -5.796  35.530   0.840  1.00  0.00     0.027 C
HETATM    6  C11 UNL     1      -4.502  35.571   0.097  1.00  0.00     0.009 C
HETATM    7  C12 UNL     1      -4.681  36.093  -1.325  1.00  0.00     0.010 C
HETATM    8  C13 UNL     1      -6.043  36.300  -1.779  1.00  0.00    -0.032 C
HETATM    9  C14 UNL     1      -6.504  37.717  -1.351  1.00  0.00     0.016 C
HETATM   10  C15 UNL     1      -6.597  35.953  -3.076  1.00  0.00     0.008 C
HETATM   11  C16 UNL     1      -6.005  35.887  -4.374  1.00  0.00    -0.002 C
HETATM   12  C17 UNL     1      -7.066  35.331  -5.342  1.00  0.00     0.005 C
HETATM   13  C18 UNL     1      -8.452  35.687  -5.028  1.00  0.00     0.000 C
HETATM   14  C19 UNL     1      -9.090  35.031  -3.876  1.00  0.00     0.001 C
HETATM   15  C20 UNL     1      -8.297  34.103  -3.069  1.00  0.00     0.011 C
HETATM   16  C21 UNL     1      -6.960  34.550  -2.560  1.00  0.00    -0.022 C
HETATM   17  C22 UNL     1      -5.929  33.538  -2.805  1.00  0.00     0.088 C
HETATM   18  C23 UNL     1      -5.242  33.630  -4.148  1.00  0.00     0.128 C
HETATM   19  O4  UNL     1      -5.022  32.634  -4.821  1.00  0.00    -0.298 OA
HETATM   20  C24 UNL     1      -4.842  34.973  -4.625  1.00  0.00     0.083 C
HETATM   21  C25 UNL     1      -7.051  35.264  -1.246  1.00  0.00     0.038 C
ENDROOT
BRANCH   1  22
HETATM   22  C3  UNL     1      -5.611  35.673   3.353  1.00  0.00     0.112 C
BRANCH  22  23
HETATM   23  C2  UNL     1      -4.420  36.598   3.312  1.00  0.00     0.192 C
BRANCH  23  24
HETATM   24  O1  UNL     1      -4.826  37.770   3.996  1.00  0.00    -0.394 OA
HETATM   25  C1  UNL     1      -6.014  38.257   3.450  1.00  0.00     0.201 C
ENDBRANCH  23  24
ENDBRANCH  22  23
BRANCH  22  26
HETATM   26  N1  UNL     1      -5.330  34.760   4.476  1.00  0.00    -0.354 N
HETATM   27  C4  UNL     1      -5.914  34.910   5.735  1.00  0.00     0.214 C
HETATM   28  C5  UNL     1      -5.583  33.949   6.816  1.00  0.00     0.117 C
HETATM   29  O2  UNL     1      -6.720  35.843   5.988  1.00  0.00    -0.274 OA
ATOM     30  H1  UNL     1      -4.683  33.987   4.326  1.00  0.00     0.162 HD
ENDBRANCH  22  26
ENDBRANCH   1  22
BRANCH   4  31
HETATM   31  O3  UNL     1      -6.346  33.320   0.015  1.00  0.00    -0.389 OA
ATOM     32  H3  UNL     1      -5.693  33.298   0.704  1.00  0.00     0.210 HD
ENDBRANCH   4  31
TORSDOF 5
ENDMDL