MODEL 4
REMARK VINA RESULT: -7.111081807      1.406      2.043
REMARK  8 active torsions:
REMARK  status: ('A' for Active; 'I' for Inactive)
REMARK    1  A    between atoms: O1_2  and  C2_3
REMARK    2  A    between atoms: C4_5  and  C5_6
REMARK    3  A    between atoms: C5_6  and  N1_7
REMARK    4  A    between atoms: N1_7  and  C6_9
REMARK    5  A    between atoms: C13_20  and  C14_21
REMARK    6  A    between atoms: C15_22  and  C16_23
REMARK    7  A    between atoms: C21_30  and  O2_31
REMARK    8  A    between atoms: C23_33  and  O3_34
ROOT
HETATM    1  C2  UNL     1      -6.151  38.812   3.572  1.00  0.00     0.104 A
HETATM    2  C3  UNL     1      -5.966  37.578   3.003  1.00  0.00     0.050 A
HETATM    3  C4  UNL     1      -5.816  36.468   3.805  1.00  0.00    -0.016 A
HETATM    4  C13 UNL     1      -5.842  36.542   5.192  1.00  0.00     0.062 A
HETATM    5  C21 UNL     1      -6.031  37.799   5.722  1.00  0.00     0.123 A
HETATM    6  C23 UNL     1      -6.185  38.926   4.944  1.00  0.00     0.136 A
ENDROOT
BRANCH   3   7
HETATM    7  C5  UNL     1      -5.612  35.115   3.217  1.00  0.00     0.178 C
BRANCH   7   8
HETATM    8  N1  UNL     1      -6.792  34.714   2.475  1.00  0.00    -0.222 N
ATOM      9  H1  UNL     1      -7.682  34.610   2.963  1.00  0.00     0.178 HD
BRANCH   8  10
HETATM   10  C6  UNL     1      -6.730  34.485   1.190  1.00  0.00     0.679 A
HETATM   11  N2  UNL     1      -5.634  34.338   0.427  1.00  0.00    -0.190 N
HETATM   12  C7  UNL     1      -5.986  34.113  -0.851  1.00  0.00     0.076 A
ATOM     13  H2  UNL     1      -4.674  34.389   0.767  1.00  0.00     0.184 HD
HETATM   14  C8  UNL     1      -5.273  33.900  -2.008  1.00  0.00     0.032 A
HETATM   15  C12 UNL     1      -7.383  34.116  -0.911  1.00  0.00     0.076 A
HETATM   16  C9  UNL     1      -5.948  33.698  -3.182  1.00  0.00     0.002 A
HETATM   17  C10 UNL     1      -7.339  33.699  -3.250  1.00  0.00     0.002 A
HETATM   18  C11 UNL     1      -8.043  33.910  -2.099  1.00  0.00     0.032 A
HETATM   19  N3  UNL     1      -7.775  34.347   0.362  1.00  0.00    -0.190 N
ATOM     20  H3  UNL     1      -8.750  34.409   0.657  1.00  0.00     0.184 HD
ENDBRANCH   8  10
ENDBRANCH   7   8
ENDBRANCH   3   7
BRANCH   4  21
HETATM   21  C14 UNL     1      -5.681  35.363   6.000  1.00  0.00    -0.056 C
HETATM   22  C15 UNL     1      -5.535  34.383   6.693  1.00  0.00    -0.043 C
BRANCH  22  23
HETATM   23  C16 UNL     1      -5.343  33.228   7.527  1.00  0.00     0.086 A
HETATM   24  C17 UNL     1      -6.065  32.069   7.337  1.00  0.00     0.039 A
HETATM   25  C18 UNL     1      -5.852  30.998   8.149  1.00  0.00     0.004 A
HETATM   26  C19 UNL     1      -4.929  31.026   9.174  1.00  0.00     0.017 A
HETATM   27  C20 UNL     1      -4.225  32.199   9.337  1.00  0.00     0.089 A
HETATM   28  N4  UNL     1      -4.445  33.246   8.527  1.00  0.00    -0.359 N
ATOM     29  H4  UNL     1      -3.904  34.098   8.678  1.00  0.00     0.166 HD
ENDBRANCH  22  23
ENDBRANCH   4  21
BRANCH   1  30
HETATM   30  O1  UNL     1      -6.300  39.904   2.729  1.00  0.00    -0.353 OA
HETATM   31  C1  UNL     1      -7.548  40.190   2.132  1.00  0.00     0.210 C
ENDBRANCH   1  30
BRANCH   5  32
HETATM   32  O2  UNL     1      -6.057  37.871   7.123  1.00  0.00    -0.352 OA
HETATM   33  C22 UNL     1      -4.899  38.131   7.884  1.00  0.00     0.210 C
ENDBRANCH   5  32
BRANCH   6  34
HETATM   34  O3  UNL     1      -6.372  40.174   5.511  1.00  0.00    -0.351 OA
HETATM   35  C24 UNL     1      -5.327  41.085   5.761  1.00  0.00     0.210 C
ENDBRANCH   6  34
TORSDOF 8
ENDMDL