MODEL 1
REMARK VINA RESULT: -7.746255861      0.000      0.000
REMARK  7 active torsions:
REMARK  status: ('A' for Active; 'I' for Inactive)
REMARK       I    between atoms: C1_2  and  N1_3
REMARK       I    between atoms: C1_2  and  N4_12
REMARK    1  A    between atoms: N1_3  and  C2_5
REMARK    2  A    between atoms: N4_12  and  C4_14
REMARK    3  A    between atoms: C7_17  and  C8_18
REMARK    4  A    between atoms: C8_18  and  C9_19
REMARK    5  A    between atoms: C9_19  and  N5_20
REMARK    6  A    between atoms: C12_23  and  O3_24
REMARK    7  A    between atoms: C12_23  and  C13_26
ROOT
HETATM    1  C4  UNL     1      -6.253  36.328  -0.074  1.00  0.00     0.086 C
HETATM    2  C5  UNL     1      -5.268  35.309   0.426  1.00  0.00     0.026 C
HETATM    3  C6  UNL     1      -5.411  35.138   1.944  1.00  0.00     0.007 C
HETATM    4  C7  UNL     1      -5.195  36.508   2.528  1.00  0.00    -0.013 C
HETATM    5  C21 UNL     1      -6.474  37.306   2.244  1.00  0.00     0.007 C
HETATM    6  C22 UNL     1      -7.144  36.893   0.980  1.00  0.00     0.026 C
ENDROOT
BRANCH   4   7
HETATM    7  C8  UNL     1      -4.843  36.534   3.975  1.00  0.00     0.034 C
BRANCH   7   8
HETATM    8  C9  UNL     1      -6.010  36.956   4.794  1.00  0.00     0.272 C
BRANCH   8   9
HETATM    9  N5  UNL     1      -6.190  36.094   5.978  1.00  0.00     0.088 N
HETATM   10  C10 UNL     1      -5.082  36.394   6.858  1.00  0.00     0.275 C
HETATM   11  C11 UNL     1      -4.949  35.370   7.982  1.00  0.00     0.068 C
HETATM   12  C12 UNL     1      -4.726  34.035   7.324  1.00  0.00     0.065 C
HETATM   13  C19 UNL     1      -5.976  33.710   6.539  1.00  0.00     0.068 C
HETATM   14  C20 UNL     1      -6.147  34.740   5.476  1.00  0.00     0.275 C
BRANCH  12  15
HETATM   15  O3  UNL     1      -3.676  34.099   6.392  1.00  0.00    -0.389 OA
ATOM     16  H3  UNL     1      -3.995  33.971   5.506  1.00  0.00     0.210 HD
ENDBRANCH  12  15
BRANCH  12  17
HETATM   17  C13 UNL     1      -4.382  33.015   8.343  1.00  0.00     0.020 C
HETATM   18  C14 UNL     1      -4.350  33.589   9.755  1.00  0.00     0.007 C
HETATM   19  C15 UNL     1      -3.910  32.472  10.679  1.00  0.00     0.000 C
HETATM   20  C16 UNL     1      -4.778  31.262  10.593  1.00  0.00     0.000 C
HETATM   21  C17 UNL     1      -4.913  30.791   9.162  1.00  0.00     0.000 C
HETATM   22  C18 UNL     1      -5.496  31.974   8.378  1.00  0.00     0.007 C
ENDBRANCH  12  17
ENDBRANCH   8   9
ENDBRANCH   7   8
ENDBRANCH   4   7
BRANCH   1  23
HETATM   23  N4  UNL     1      -7.111  35.686  -1.054  1.00  0.00    -0.338 N
HETATM   24  C1  UNL     1      -7.010  35.955  -2.444  1.00  0.00     0.322 C
HETATM   25  O1  UNL     1      -6.158  36.772  -2.870  1.00  0.00    -0.247 OA
HETATM   26  N1  UNL     1      -7.857  35.320  -3.389  1.00  0.00    -0.292 N
ATOM     27  H1  UNL     1      -7.652  34.370  -3.697  1.00  0.00     0.172 HD
ATOM     28  H4  UNL     1      -7.811  35.017  -0.732  1.00  0.00     0.164 HD
BRANCH  26  29
HETATM   29  C2  UNL     1      -8.882  35.940  -3.859  1.00  0.00     0.148 A
HETATM   30  C3  UNL     1     -10.075  35.362  -4.222  1.00  0.00     0.166 A
HETATM   31  N2  UNL     1     -10.873  36.364  -4.660  1.00  0.00    -0.249 N
HETATM   32  O2  UNL     1     -10.201  37.467  -4.566  1.00  0.00    -0.156 OA
ATOM     33  H2  UNL     1     -11.829  36.268  -5.004  1.00  0.00     0.196 HD
HETATM   34  N3  UNL     1      -9.008  37.256  -4.092  1.00  0.00    -0.224 N
ATOM     35  H3  UNL     1      -8.293  37.965  -3.926  1.00  0.00     0.198 HD
ENDBRANCH  26  29
ENDBRANCH   1  23
TORSDOF 7
ENDMDL