MODEL 2
REMARK VINA RESULT: -7.850658027      4.638      7.591
REMARK  5 active torsions:
REMARK  status: ('A' for Active; 'I' for Inactive)
REMARK    1  A    between atoms: C5_5  and  N1_6
REMARK    2  A    between atoms: N1_6  and  C6_8
REMARK    3  A    between atoms: C6_8  and  C7_9
REMARK    4  A    between atoms: C7_9  and  C8_10
REMARK    5  A    between atoms: C14_19  and  C15_20
ROOT
HETATM    1  C1  UNL     1      -8.772  37.925  -4.596  1.00  0.00     0.016 C
HETATM    2  C2  UNL     1      -9.424  36.604  -4.812  1.00  0.00    -0.029 C
HETATM    3  C3  UNL     1     -10.925  36.795  -4.666  1.00  0.00     0.016 C
HETATM    4  C4  UNL     1      -9.026  35.519  -3.837  1.00  0.00     0.041 C
HETATM    5  C5  UNL     1      -7.579  35.215  -3.855  1.00  0.00     0.132 C
HETATM    6  C13 UNL     1      -7.107  34.894  -5.264  1.00  0.00     0.044 A
HETATM    7  C14 UNL     1      -5.885  34.191  -5.443  1.00  0.00    -0.022 A
HETATM    8  C18 UNL     1      -5.527  33.978  -6.731  1.00  0.00    -0.038 A
HETATM    9  C19 UNL     1      -6.338  34.444  -7.808  1.00  0.00     0.017 A
HETATM   10  C20 UNL     1      -7.494  35.109  -7.576  1.00  0.00     0.254 A
HETATM   11  O2  UNL     1      -8.218  35.525  -8.540  1.00  0.00    -0.267 OA
HETATM   12  N3  UNL     1      -7.867  35.327  -6.265  1.00  0.00    -0.314 N
HETATM   13  C21 UNL     1      -9.134  36.047  -6.164  1.00  0.00     0.141 C
HETATM   14  C22 UNL     1      -5.907  34.209  -9.235  1.00  0.00     0.045 C
HETATM   15  C23 UNL     1      -5.371  32.821  -9.411  1.00  0.00     0.005 C
HETATM   16  C24 UNL     1      -5.034  32.144  -8.132  1.00  0.00     0.005 C
HETATM   17  C25 UNL     1      -4.405  33.215  -7.198  1.00  0.00     0.040 C
ENDROOT
BRANCH   5  18
HETATM   18  N1  UNL     1      -6.778  36.093  -3.174  1.00  0.00    -0.392 N
ATOM     19  H1  UNL     1      -6.059  36.584  -3.706  1.00  0.00     0.159 HD
BRANCH  18  20
HETATM   20  C6  UNL     1      -6.867  36.362  -1.830  1.00  0.00     0.056 C
BRANCH  20  21
HETATM   21  C7  UNL     1      -6.187  35.609  -0.765  1.00  0.00     0.050 C
BRANCH  21  22
HETATM   22  C8  UNL     1      -7.177  34.549  -0.221  1.00  0.00     0.009 C
HETATM   23  C9  UNL     1      -7.255  34.634   1.268  1.00  0.00     0.015 C
HETATM   24  C10 UNL     1      -8.388  33.760   1.736  1.00  0.00     0.103 C
HETATM   25  C11 UNL     1      -8.457  32.506   0.933  1.00  0.00     0.217 C
HETATM   26  O1  UNL     1      -9.460  31.769   1.099  1.00  0.00    -0.274 OA
HETATM   27  N2  UNL     1      -7.439  32.151   0.017  1.00  0.00    -0.361 N
HETATM   28  C12 UNL     1      -6.827  33.224  -0.778  1.00  0.00     0.127 C
ATOM     29  H2  UNL     1      -7.140  31.182  -0.087  1.00  0.00     0.162 HD
ENDBRANCH  21  22
ENDBRANCH  20  21
ENDBRANCH  18  20
ENDBRANCH   5  18
BRANCH   7  30
HETATM   30  C15 UNL     1      -5.183  33.694  -4.305  1.00  0.00     0.021 A
HETATM   31  C16 UNL     1      -3.883  34.337  -3.824  1.00  0.00     0.010 A
HETATM   32  C17 UNL     1      -3.899  32.981  -4.346  1.00  0.00     0.010 A
ENDBRANCH   7  30
TORSDOF 5
ENDMDL