MODEL 5
REMARK VINA RESULT: -6.444283291      0.721      1.668
REMARK  8 active torsions:
REMARK  status: ('A' for Active; 'I' for Inactive)
REMARK    1  A    between atoms: N2_7  and  C6_8
REMARK    2  A    between atoms: C6_8  and  C7_10
REMARK    3  A    between atoms: C7_10  and  C8_11
REMARK    4  A    between atoms: C13_16  and  C14_17
REMARK    5  A    between atoms: C14_17  and  C15_18
REMARK    6  A    between atoms: C15_18  and  O1_19
REMARK    7  A    between atoms: C18_23  and  N3_24
REMARK    8  A    between atoms: C20_26  and  O2_27
ROOT
HETATM    1  N1  UNL     1      -2.659  32.887  11.750  1.00  0.00    -0.195 NA
HETATM    2  C1  UNL     1      -3.530  32.747  10.991  1.00  0.00     0.084 C
HETATM    3  C2  UNL     1      -4.618  32.539  10.069  1.00  0.00     0.192 C
HETATM    4  C3  UNL     1      -4.594  31.100   9.531  1.00  0.00     0.042 C
HETATM    5  C4  UNL     1      -5.282  31.212   8.208  1.00  0.00     0.023 C
HETATM    6  C5  UNL     1      -5.523  32.666   7.954  1.00  0.00     0.125 C
HETATM    7  N2  UNL     1      -4.583  33.320   8.872  1.00  0.00    -0.358 N
ENDROOT
BRANCH   7   8
HETATM    8  C6  UNL     1      -3.881  34.484   8.496  1.00  0.00     0.077 C
HETATM    9  S1  UNL     1      -2.786  34.395   7.297  1.00  0.00    -0.066 SA
BRANCH   8  10
HETATM   10  C7  UNL     1      -4.137  35.788   9.141  1.00  0.00     0.074 C
BRANCH  10  11
HETATM   11  C8  UNL     1      -4.163  36.890   8.140  1.00  0.00    -0.004 C
HETATM   12  C9  UNL     1      -3.499  38.156   8.508  1.00  0.00     0.005 C
HETATM   13  C10 UNL     1      -4.352  39.115   9.304  1.00  0.00     0.000 C
HETATM   14  C11 UNL     1      -5.733  39.280   8.754  1.00  0.00     0.000 C
HETATM   15  C12 UNL     1      -6.318  37.949   8.429  1.00  0.00     0.005 C
HETATM   16  C13 UNL     1      -5.552  37.084   7.502  1.00  0.00    -0.007 C
BRANCH  16  17
HETATM   17  C14 UNL     1      -5.315  37.518   6.130  1.00  0.00     0.043 C
BRANCH  17  18
HETATM   18  C15 UNL     1      -5.822  36.827   4.950  1.00  0.00     0.058 C
HETATM   19  C16 UNL     1      -6.438  37.653   3.879  1.00  0.00     0.040 C
HETATM   20  C17 UNL     1      -5.900  37.420   2.489  1.00  0.00     0.038 C
HETATM   21  C18 UNL     1      -5.649  36.014   2.124  1.00  0.00     0.223 C
HETATM   22  C22 UNL     1      -5.816  35.053   3.312  1.00  0.00     0.038 C
HETATM   23  C23 UNL     1      -4.940  35.706   4.397  1.00  0.00     0.040 C
BRANCH  18  24
HETATM   24  O1  UNL     1      -6.908  36.027   5.469  1.00  0.00    -0.390 OA
ATOM     25  H1  UNL     1      -6.503  35.183   5.632  1.00  0.00     0.210 HD
ENDBRANCH  18  24
BRANCH  21  26
HETATM   26  N3  UNL     1      -6.316  35.471   1.008  1.00  0.00     0.098 N
HETATM   27  C19 UNL     1      -7.261  34.415   1.216  1.00  0.00     0.306 C
HETATM   28  C20 UNL     1      -6.986  33.988  -0.234  1.00  0.00     0.174 C
HETATM   29  C21 UNL     1      -5.630  34.638   0.083  1.00  0.00     0.306 C
BRANCH  28  30
HETATM   30  O2  UNL     1      -6.947  32.621  -0.409  1.00  0.00    -0.392 OA
ATOM     31  H2  UNL     1      -7.648  32.288  -0.958  1.00  0.00     0.210 HD
ENDBRANCH  28  30
ENDBRANCH  21  26
ENDBRANCH  17  18
ENDBRANCH  16  17
ENDBRANCH  10  11
ENDBRANCH   8  10
ENDBRANCH   7   8
TORSDOF 8
ENDMDL