MODEL 1
REMARK VINA RESULT: -6.310053025      0.000      0.000
REMARK  6 active torsions:
REMARK  status: ('A' for Active; 'I' for Inactive)
REMARK    1  A    between atoms: C2_3  and  C3_4
REMARK    2  A    between atoms: C3_4  and  C4_5
REMARK    3  A    between atoms: C4_5  and  N2_6
REMARK    4  A    between atoms: C9_11  and  C10_12
REMARK    5  A    between atoms: C13_17  and  O1_18
REMARK    6  A    between atoms: C17_24  and  N5_25
ROOT
HETATM    1  N1  UNL     1      -2.866  32.325  11.828  1.00  0.00    -0.197 NA
HETATM    2  C1  UNL     1      -3.894  31.906  11.481  1.00  0.00     0.059 C
HETATM    3  C2  UNL     1      -5.166  31.345  11.086  1.00  0.00     0.125 C
ENDROOT
BRANCH   3   4
HETATM    4  C3  UNL     1      -5.310  30.972   9.663  1.00  0.00     0.034 C
BRANCH   4   5
HETATM    5  C4  UNL     1      -4.511  31.619   8.619  1.00  0.00     0.129 C
BRANCH   5   6
HETATM    6  N2  UNL     1      -5.127  32.564   7.735  1.00  0.00    -0.357 N
HETATM    7  C5  UNL     1      -6.287  32.146   7.146  1.00  0.00     0.091 A
HETATM    8  C6  UNL     1      -6.869  32.998   6.261  1.00  0.00     0.017 A
HETATM    9  C7  UNL     1      -6.355  34.216   5.950  1.00  0.00     0.004 A
HETATM   10  C8  UNL     1      -5.171  34.635   6.555  1.00  0.00     0.030 A
HETATM   11  C9  UNL     1      -4.574  33.768   7.459  1.00  0.00     0.036 A
BRANCH  11  12
HETATM   12  C10 UNL     1      -3.335  34.151   8.081  1.00  0.00     0.066 C
HETATM   13  C11 UNL     1      -3.183  34.864   9.190  1.00  0.00     0.077 A
HETATM   14  N3  UNL     1      -4.141  35.429  10.049  1.00  0.00    -0.347 N
HETATM   15  S1  UNL     1      -1.627  35.307   9.953  1.00  0.00    -0.068 SA
HETATM   16  C12 UNL     1      -3.669  36.083  11.185  1.00  0.00     0.086 A
ATOM     17  H3  UNL     1      -5.139  35.362   9.849  1.00  0.00     0.167 HD
HETATM   18  C13 UNL     1      -4.453  36.674  12.190  1.00  0.00     0.095 A
HETATM   19  C23 UNL     1      -2.332  36.133  11.380  1.00  0.00     0.064 A
HETATM   20  C14 UNL     1      -3.849  37.245  13.270  1.00  0.00     0.064 A
HETATM   21  C15 UNL     1      -2.453  37.277  13.437  1.00  0.00     0.075 A
HETATM   22  C16 UNL     1      -1.942  37.987  14.595  1.00  0.00     0.102 C
HETATM   23  C17 UNL     1      -1.670  36.712  12.480  1.00  0.00     0.071 A
HETATM   24  N4  UNL     1      -1.572  38.572  15.506  1.00  0.00    -0.191 NA
BRANCH  18  25
HETATM   25  O1  UNL     1      -5.852  36.690  12.105  1.00  0.00    -0.358 OA
ATOM     26  H1  UNL     1      -6.333  37.507  12.052  1.00  0.00     0.217 HD
ENDBRANCH  18  25
BRANCH  23  27
HETATM   27  N5  UNL     1      -0.280  36.586  12.619  1.00  0.00    -0.378 N
HETATM   28  C18 UNL     1       0.604  37.615  12.019  1.00  0.00     0.123 C
HETATM   29  C19 UNL     1       1.973  37.553  12.716  1.00  0.00     0.020 C
HETATM   30  C20 UNL     1       1.849  37.308  14.184  1.00  0.00     0.003 C
HETATM   31  C21 UNL     1       1.367  35.876  14.338  1.00  0.00     0.020 C
HETATM   32  C22 UNL     1       0.466  35.503  13.177  1.00  0.00     0.123 C
ENDBRANCH  23  27
ENDBRANCH  11  12
ENDBRANCH   5   6
ENDBRANCH   4   5
ENDBRANCH   3   4
TORSDOF 6
ENDMDL