MODEL 4
REMARK VINA RESULT: -6.879973855      2.073      7.185
REMARK  5 active torsions:
REMARK  status: ('A' for Active; 'I' for Inactive)
REMARK    1  A    between atoms: C2_2  and  C3_3
REMARK    2  A    between atoms: C3_3  and  C4_4
REMARK    3  A    between atoms: C4_4  and  C5_5
REMARK       I    between atoms: C5_5  and  N1_7
REMARK    4  A    between atoms: N1_7  and  C6_9
REMARK    5  A    between atoms: N2_12  and  C9_13
ROOT
HETATM    1  C6  UNL     1      -5.629  36.024   6.424  1.00  0.00     0.185 C
HETATM    2  C7  UNL     1      -6.352  35.981   5.104  1.00  0.00     0.077 C
HETATM    3  C8  UNL     1      -5.464  35.729   3.908  1.00  0.00     0.276 C
HETATM    4  N2  UNL     1      -5.940  36.378   2.717  1.00  0.00     0.095 N
HETATM    5  C17 UNL     1      -4.925  36.986   1.922  1.00  0.00     0.303 C
HETATM    6  C18 UNL     1      -4.466  38.324   2.432  1.00  0.00     0.302 C
HETATM    7  N3  UNL     1      -5.561  39.228   2.717  1.00  0.00     0.087 N
HETATM    8  C19 UNL     1      -5.972  40.018   1.590  1.00  0.00     0.310 C
HETATM    9  C20 UNL     1      -5.169  40.043   3.852  1.00  0.00     0.298 C
HETATM   10  C21 UNL     1      -6.290  40.154   4.875  1.00  0.00     0.198 C
HETATM   11  O2  UNL     1      -5.853  40.114   6.186  1.00  0.00    -0.384 OA
HETATM   12  C22 UNL     1      -5.140  38.982   6.509  1.00  0.00     0.211 C
HETATM   13  C23 UNL     1      -5.702  38.134   7.600  1.00  0.00     0.083 C
HETATM   14  N4  UNL     1      -6.341  36.948   7.253  1.00  0.00    -0.379 N
ATOM     15  H4  UNL     1      -7.286  36.743   7.578  1.00  0.00     0.160 HD
ENDROOT
BRANCH   1  16
HETATM   16  N1  UNL     1      -5.402  34.736   6.999  1.00  0.00    -0.337 N
HETATM   17  C5  UNL     1      -4.342  34.499   7.964  1.00  0.00     0.242 C
HETATM   18  O1  UNL     1      -3.649  35.483   8.276  1.00  0.00    -0.269 OA
ATOM     19  H1  UNL     1      -6.001  33.958   6.724  1.00  0.00     0.164 HD
BRANCH  17  20
HETATM   20  C4  UNL     1      -4.156  33.178   8.488  1.00  0.00     0.070 C
BRANCH  20  21
HETATM   21  C3  UNL     1      -5.081  32.087   8.225  1.00  0.00    -0.022 C
BRANCH  21  22
HETATM   22  C2  UNL     1      -5.294  30.933   9.095  1.00  0.00     0.023 C
HETATM   23  C1  UNL     1      -5.298  31.164  10.565  1.00  0.00     0.009 C
ENDBRANCH  21  22
ENDBRANCH  20  21
ENDBRANCH  17  20
ENDBRANCH   1  16
BRANCH   4  24
HETATM   24  C9  UNL     1      -6.674  35.468   1.840  1.00  0.00     0.223 C
HETATM   25  C10 UNL     1      -6.749  34.086   2.433  1.00  0.00     0.036 C
HETATM   26  C11 UNL     1      -8.034  33.409   2.056  1.00  0.00     0.002 C
HETATM   27  C12 UNL     1      -7.818  32.256   1.095  1.00  0.00     0.000 C
HETATM   28  C13 UNL     1      -8.192  32.614  -0.320  1.00  0.00     0.000 C
HETATM   29  C14 UNL     1      -7.691  33.955  -0.760  1.00  0.00     0.000 C
HETATM   30  C15 UNL     1      -6.272  34.201  -0.308  1.00  0.00     0.002 C
HETATM   31  C16 UNL     1      -6.215  35.506   0.421  1.00  0.00     0.036 C
ENDBRANCH   4  24
TORSDOF 5
ENDMDL