MODEL 2
REMARK VINA RESULT: -6.625769218      4.922      8.983
REMARK  6 active torsions:
REMARK  status: ('A' for Active; 'I' for Inactive)
REMARK    1  A    between atoms: S1_2  and  N1_5
REMARK    2  A    between atoms: N1_5  and  C2_7
REMARK    3  A    between atoms: C2_7  and  C3_8
REMARK    4  A    between atoms: C18_24  and  C19_25
REMARK    5  A    between atoms: C19_25  and  O4_26
REMARK    6  A    between atoms: C21_30  and  C22_31
ROOT
HETATM    1  C3  UNL     1      10.868  52.935  88.006  1.00  0.00     0.012 C
HETATM    2  C4  UNL     1      11.680  52.033  87.085  1.00  0.00     0.014 C
HETATM    3  C5  UNL     1      10.975  51.727  85.800  1.00  0.00     0.025 C
HETATM    4  C6  UNL     1       9.958  52.816  85.548  1.00  0.00    -0.003 C
HETATM    5  C7  UNL     1       9.606  52.650  84.128  1.00  0.00     0.008 C
HETATM    6  C8  UNL     1      10.806  51.936  83.488  1.00  0.00     0.039 C
HETATM    7  C9  UNL     1      11.855  51.880  84.581  1.00  0.00     0.065 C
HETATM    8  C10 UNL     1      12.617  50.598  84.406  1.00  0.00     0.038 C
HETATM    9  C11 UNL     1      13.145  50.403  83.009  1.00  0.00     0.003 C
HETATM   10  C12 UNL     1      14.543  50.992  82.969  1.00  0.00     0.002 C
HETATM   11  C13 UNL     1      14.384  52.497  83.014  1.00  0.00     0.026 C
HETATM   12  C14 UNL     1      13.950  52.862  84.426  1.00  0.00     0.168 C
HETATM   13  O3  UNL     1      12.601  53.010  84.561  1.00  0.00    -0.380 OA
HETATM   14  C15 UNL     1       8.861  52.629  86.555  1.00  0.00    -0.003 C
HETATM   15  C16 UNL     1       8.150  51.333  86.384  1.00  0.00     0.006 C
HETATM   16  C17 UNL     1       6.879  51.359  87.245  1.00  0.00     0.010 C
HETATM   17  C18 UNL     1       7.254  52.107  88.489  1.00  0.00     0.047 C
HETATM   18  C20 UNL     1       8.687  51.784  88.811  1.00  0.00     0.108 A
HETATM   19  O5  UNL     1       9.084  51.570  90.101  1.00  0.00    -0.357 OA
HETATM   20  C21 UNL     1       9.247  50.550  89.209  1.00  0.00     0.258 A
HETATM   21  C23 UNL     1       9.429  52.782  87.940  1.00  0.00     0.034 C
ENDROOT
BRANCH   1  22
HETATM   22  C2  UNL     1      11.529  53.064  89.332  1.00  0.00     0.137 C
BRANCH  22  23
HETATM   23  N1  UNL     1      11.702  54.450  89.720  1.00  0.00    -0.319 N
ATOM     24  H1  UNL     1      10.969  55.155  89.803  1.00  0.00     0.172 HD
BRANCH  23  25
HETATM   25  S1  UNL     1      13.397  54.681  90.018  1.00  0.00     0.222 S
HETATM   26  C1  UNL     1      13.847  54.051  91.599  1.00  0.00     0.185 C
HETATM   27  O1  UNL     1      13.710  56.155  89.966  1.00  0.00    -0.206 OA
HETATM   28  O2  UNL     1      14.153  54.021  88.894  1.00  0.00    -0.206 OA
ENDBRANCH  23  25
ENDBRANCH  22  23
ENDBRANCH   1  22
BRANCH  17  29
HETATM   29  C19 UNL     1       6.234  52.062  89.538  1.00  0.00     0.172 C
BRANCH  29  30
HETATM   30  O4  UNL     1       6.546  52.839  90.666  1.00  0.00    -0.400 OA
ATOM     31  H4  UNL     1       5.882  52.813  91.345  1.00  0.00     0.209 HD
ENDBRANCH  29  30
ENDBRANCH  17  29
BRANCH  20  32
HETATM   32  C22 UNL     1       8.627  49.287  89.558  1.00  0.00     0.206 C
HETATM   33  O6  UNL     1       8.302  48.998  90.715  1.00  0.00    -0.646 OA
HETATM   34  O7  UNL     1       8.355  48.314  88.602  1.00  0.00    -0.646 OA
ENDBRANCH  20  32
TORSDOF 6
ENDMDL