MODEL 2
REMARK VINA RESULT: -6.752555266      2.427      3.395
REMARK  11 active torsions:
REMARK  status: ('A' for Active; 'I' for Inactive)
REMARK    1  A    between atoms: C2_2  and  C3_3
REMARK    2  A    between atoms: C2_2  and  C27_35
REMARK    3  A    between atoms: C4_4  and  C5_5
REMARK    4  A    between atoms: C5_5  and  O1_6
REMARK    5  A    between atoms: C5_5  and  C6_8
REMARK    6  A    between atoms: C6_8  and  O2_9
REMARK    7  A    between atoms: O2_9  and  C7_10
REMARK    8  A    between atoms: C13_19  and  C15_21
REMARK    9  A    between atoms: C19_26  and  C20_27
REMARK   10  A    between atoms: C24_32  and  C26_34
REMARK   11  A    between atoms: C27_35  and  O6_36
ROOT
HETATM    1  C7  UNL     1      13.208  54.455  90.657  1.00  0.00     0.122 C
HETATM    2  C8  UNL     1      13.758  54.058  91.999  1.00  0.00     0.033 C
HETATM    3  C9  UNL     1      13.001  52.726  92.182  1.00  0.00     0.022 C
HETATM    4  C10 UNL     1      11.643  52.917  91.749  1.00  0.00     0.050 C
HETATM    5  C11 UNL     1      11.739  54.154  90.839  1.00  0.00     0.051 C
HETATM    6  C12 UNL     1      11.256  51.787  90.823  1.00  0.00     0.227 C
HETATM    7  O3  UNL     1      11.973  51.430  89.829  1.00  0.00    -0.273 OA
HETATM    8  N1  UNL     1      10.016  51.262  91.277  1.00  0.00    -0.351 N
ATOM      9  H1  UNL     1       9.678  50.303  91.188  1.00  0.00     0.163 HD
HETATM   10  C13 UNL     1       9.345  52.369  91.884  1.00  0.00     0.039 C
HETATM   11  C14 UNL     1       8.872  53.276  90.736  1.00  0.00     0.039 C
HETATM   12  C26 UNL     1      10.502  53.013  92.658  1.00  0.00     0.040 C
ENDROOT
BRANCH  12  13
HETATM   13  C24 UNL     1      10.630  52.615  94.058  1.00  0.00    -0.025 C
HETATM   14  C20 UNL     1      11.508  53.650  94.791  1.00  0.00     0.075 C
HETATM   15  C21 UNL     1      11.747  52.953  96.057  1.00  0.00     0.132 C
HETATM   16  O5  UNL     1      11.808  53.351  97.185  1.00  0.00    -0.298 OA
HETATM   17  C22 UNL     1      11.923  51.509  95.689  1.00  0.00     0.079 C
HETATM   18  C23 UNL     1      11.614  51.438  94.188  1.00  0.00     0.018 C
HETATM   19  C25 UNL     1       9.431  52.431  94.895  1.00  0.00     0.016 C
BRANCH  14  20
HETATM   20  C19 UNL     1      10.751  54.893  94.843  1.00  0.00     0.073 C
HETATM   21  C15 UNL     1      11.804  56.004  94.969  1.00  0.00     0.026 C
HETATM   22  C16 UNL     1      10.930  57.185  95.120  1.00  0.00     0.015 C
HETATM   23  C17 UNL     1       9.867  56.674  96.107  1.00  0.00     0.079 C
HETATM   24  C18 UNL     1       9.956  55.173  96.036  1.00  0.00     0.132 C
HETATM   25  O4  UNL     1       9.452  54.435  96.833  1.00  0.00    -0.298 OA
ENDBRANCH  14  20
ENDBRANCH  12  13
BRANCH   1  26
HETATM   26  O2  UNL     1      13.776  53.776  89.602  1.00  0.00    -0.383 OA
BRANCH  26  27
HETATM   27  C6  UNL     1      13.464  54.427  88.386  1.00  0.00     0.203 C
BRANCH  27  28
HETATM   28  C5  UNL     1      13.015  53.350  87.385  1.00  0.00     0.164 C
BRANCH  28  29
HETATM   29  C4  UNL     1      13.395  53.791  86.034  1.00  0.00     0.003 C
HETATM   30  C3  UNL     1      12.925  53.182  84.963  1.00  0.00    -0.022 C
BRANCH  30  31
HETATM   31  C2  UNL     1      12.002  52.040  85.107  1.00  0.00     0.027 C
HETATM   32  C1  UNL     1      12.616  50.827  84.400  1.00  0.00     0.016 C
BRANCH  31  33
HETATM   33  C27 UNL     1      10.701  52.424  84.421  1.00  0.00     0.172 C
BRANCH  33  34
HETATM   34  O6  UNL     1      10.087  53.396  85.176  1.00  0.00    -0.400 OA
ATOM     35  H6  UNL     1       9.553  52.967  85.834  1.00  0.00     0.209 HD
ENDBRANCH  33  34
ENDBRANCH  31  33
ENDBRANCH  30  31
ENDBRANCH  28  29
BRANCH  28  36
HETATM   36  O1  UNL     1      11.611  53.255  87.523  1.00  0.00    -0.390 OA
ATOM     37  H1  UNL     1      11.349  53.285  88.436  1.00  0.00     0.210 HD
ENDBRANCH  28  36
ENDBRANCH  27  28
ENDBRANCH  26  27
ENDBRANCH   1  26
TORSDOF 11
ENDMDL