MODEL 3
REMARK VINA RESULT: -7.561305230      2.440      4.864
REMARK  6 active torsions:
REMARK  status: ('A' for Active; 'I' for Inactive)
REMARK    1  A    between atoms: C4_5  and  C5_6
REMARK    2  A    between atoms: C6_7  and  C7_8
REMARK    3  A    between atoms: N3_25  and  C18_26
REMARK    4  A    between atoms: C18_26  and  C19_27
REMARK    5  A    between atoms: C19_27  and  C20_28
REMARK    6  A    between atoms: C20_28  and  N4_29
ROOT
HETATM    1  O1  UNL     1       8.155  53.782  82.822  1.00  0.00    -0.273 OA
HETATM    2  C1  UNL     1       8.385  52.934  83.711  1.00  0.00     0.222 C
HETATM    3  C2  UNL     1       9.535  51.994  83.588  1.00  0.00     0.144 C
HETATM    4  C3  UNL     1      10.193  51.978  84.952  1.00  0.00    -0.012 A
HETATM    5  C4  UNL     1      11.492  52.048  85.365  1.00  0.00     0.005 A
HETATM    6  C17 UNL     1      11.458  52.019  86.756  1.00  0.00     0.104 A
HETATM    7  N3  UNL     1      10.181  51.933  87.139  1.00  0.00    -0.357 N
HETATM    8  C25 UNL     1       9.395  51.906  86.066  1.00  0.00     0.036 A
HETATM    9  C26 UNL     1       7.916  51.817  85.844  1.00  0.00     0.180 C
HETATM   10  N5  UNL     1       7.562  52.826  84.880  1.00  0.00    -0.355 N
ATOM     11  H5  UNL     1       6.759  53.439  85.022  1.00  0.00     0.162 HD
ENDROOT
BRANCH   5  12
HETATM   12  C5  UNL     1      12.715  52.108  84.562  1.00  0.00     0.061 A
HETATM   13  C6  UNL     1      13.161  51.301  83.622  1.00  0.00     0.061 A
HETATM   14  C15 UNL     1      14.468  51.785  83.121  1.00  0.00     0.260 A
HETATM   15  O2  UNL     1      15.168  51.248  82.226  1.00  0.00    -0.267 OA
HETATM   16  N2  UNL     1      14.798  52.975  83.836  1.00  0.00    -0.289 N
HETATM   17  C16 UNL     1      13.730  53.178  84.721  1.00  0.00     0.260 A
ATOM     18  H2  UNL     1      15.631  53.552  83.727  1.00  0.00     0.172 HD
HETATM   19  O3  UNL     1      13.623  54.120  85.537  1.00  0.00    -0.267 OA
BRANCH  13  20
HETATM   20  C7  UNL     1      12.501  50.104  83.152  1.00  0.00     0.009 A
HETATM   21  C8  UNL     1      12.022  49.864  81.857  1.00  0.00     0.101 A
HETATM   22  N1  UNL     1      11.476  48.654  81.788  1.00  0.00    -0.364 N
HETATM   23  C9  UNL     1      11.576  48.072  83.010  1.00  0.00     0.043 A
ATOM     24  H1  UNL     1      11.054  48.234  80.959  1.00  0.00     0.165 HD
HETATM   25  C10 UNL     1      11.179  46.829  83.478  1.00  0.00     0.030 A
HETATM   26  C14 UNL     1      12.208  48.960  83.859  1.00  0.00     0.003 A
HETATM   27  C11 UNL     1      11.410  46.471  84.784  1.00  0.00     0.002 A
HETATM   28  C12 UNL     1      12.039  47.325  85.664  1.00  0.00     0.001 A
HETATM   29  C13 UNL     1      12.425  48.561  85.169  1.00  0.00     0.014 A
ENDBRANCH  13  20
ENDBRANCH   5  12
BRANCH   7  30
HETATM   30  C18 UNL     1       9.769  51.880  88.506  1.00  0.00     0.133 C
BRANCH  30  31
HETATM   31  C19 UNL     1       9.838  53.204  89.234  1.00  0.00     0.064 C
BRANCH  31  32
HETATM   32  C20 UNL     1      10.683  52.955  90.462  1.00  0.00     0.060 C
BRANCH  32  33
HETATM   33  N4  UNL     1      11.931  53.578  90.511  1.00  0.00    -0.389 N
HETATM   34  C21 UNL     1      12.231  54.622  89.608  1.00  0.00     0.148 C
HETATM   35  C22 UNL     1      13.677  54.395  89.144  1.00  0.00     0.187 C
HETATM   36  O4  UNL     1      14.538  54.188  90.201  1.00  0.00    -0.388 OA
HETATM   37  C23 UNL     1      13.962  54.349  91.451  1.00  0.00     0.187 C
HETATM   38  C24 UNL     1      12.772  53.395  91.627  1.00  0.00     0.148 C
ENDBRANCH  32  33
ENDBRANCH  31  32
ENDBRANCH  30  31
ENDBRANCH   7  30
TORSDOF 6
ENDMDL