MODEL 1
REMARK VINA RESULT: -8.108589919      0.000      0.000
REMARK  8 active torsions:
REMARK  status: ('A' for Active; 'I' for Inactive)
REMARK    1  A    between atoms: C3_3  and  C4_4
REMARK    2  A    between atoms: C4_4  and  O1_6
REMARK    3  A    between atoms: O1_6  and  C6_7
REMARK    4  A    between atoms: C8_9  and  N1_10
REMARK       I    between atoms: N2_13  and  C11_14
REMARK    5  A    between atoms: C14_23  and  N6_24
REMARK    6  A    between atoms: N6_24  and  C15_26
REMARK    7  A    between atoms: C15_26  and  C16_27
REMARK    8  A    between atoms: N7_30  and  C19_31
ROOT
HETATM    1  C1  UNL     1      11.241  56.045  95.050  1.00  0.00     0.112 C
HETATM    2  C2  UNL     1      12.022  55.180  94.161  1.00  0.00    -0.108 C
HETATM    3  C3  UNL     1      12.646  54.458  93.422  1.00  0.00    -0.075 C
ENDROOT
BRANCH   3   4
HETATM    4  C4  UNL     1      13.414  53.557  92.526  1.00  0.00     0.205 C
HETATM    5  C5  UNL     1      13.872  54.447  91.370  1.00  0.00     0.054 C
BRANCH   4   6
HETATM    6  O1  UNL     1      12.520  52.582  92.093  1.00  0.00    -0.318 OA
BRANCH   6   7
HETATM    7  C6  UNL     1      11.652  52.608  91.051  1.00  0.00     0.162 A
HETATM    8  C7  UNL     1      10.344  53.002  91.224  1.00  0.00     0.105 A
HETATM    9  C8  UNL     1       9.453  53.033  90.178  1.00  0.00     0.123 A
HETATM   10  N5  UNL     1       9.914  52.657  88.952  1.00  0.00    -0.177 N
HETATM   11  C14 UNL     1      11.188  52.270  88.768  1.00  0.00     0.681 A
ATOM     12  H5  UNL     1       9.278  52.669  88.156  1.00  0.00     0.185 HD
HETATM   13  N8  UNL     1      12.045  52.250  89.823  1.00  0.00    -0.170 N
ATOM     14  H8  UNL     1      13.011  51.956  89.675  1.00  0.00     0.186 HD
BRANCH   9  15
HETATM   15  N1  UNL     1       8.104  53.420  90.285  1.00  0.00    -0.364 N
HETATM   16  C9  UNL     1       7.436  54.230  89.292  1.00  0.00     0.144 C
HETATM   17  C10 UNL     1       6.515  53.283  88.538  1.00  0.00     0.145 C
HETATM   18  N2  UNL     1       5.733  52.571  89.543  1.00  0.00    -0.353 N
HETATM   19  C11 UNL     1       4.795  51.615  89.065  1.00  0.00     0.184 C
HETATM   20  C12 UNL     1       5.862  52.782  90.953  1.00  0.00     0.145 C
HETATM   21  N3  UNL     1       4.514  50.600  89.811  1.00  0.00    -0.374 N
HETATM   22  N4  UNL     1       4.166  51.747  87.806  1.00  0.00    -0.064 NA
ATOM     23  H32 UNL     1       4.967  50.506  90.720  1.00  0.00     0.158 HD
ATOM     24  H31 UNL     1       3.841  49.914  89.469  1.00  0.00     0.158 HD
HETATM   25  C13 UNL     1       7.278  53.017  91.420  1.00  0.00     0.144 C
ENDBRANCH   9  15
BRANCH  11  26
HETATM   26  N6  UNL     1      11.669  51.908  87.627  1.00  0.00    -0.226 N
ATOM     27  H6  UNL     1      12.678  51.801  87.518  1.00  0.00     0.177 HD
BRANCH  26  28
HETATM   28  C15 UNL     1      10.790  51.647  86.487  1.00  0.00     0.142 C
BRANCH  28  29
HETATM   29  C16 UNL     1      11.049  52.753  85.454  1.00  0.00     0.007 C
HETATM   30  C17 UNL     1      10.638  52.322  84.082  1.00  0.00     0.036 C
HETATM   31  C18 UNL     1      11.628  51.487  83.368  1.00  0.00     0.273 C
HETATM   32  N7  UNL     1      12.963  51.513  83.904  1.00  0.00     0.093 N
HETATM   33  C25 UNL     1      13.353  52.770  84.450  1.00  0.00     0.273 C
HETATM   34  C26 UNL     1      12.462  53.233  85.544  1.00  0.00     0.036 C
BRANCH  32  35
HETATM   35  C19 UNL     1      13.870  50.975  82.946  1.00  0.00     0.223 C
HETATM   36  C20 UNL     1      13.214  50.396  81.712  1.00  0.00     0.036 C
HETATM   37  C21 UNL     1      13.770  50.998  80.444  1.00  0.00     0.002 C
HETATM   38  C22 UNL     1      15.256  50.975  80.349  1.00  0.00     0.000 C
HETATM   39  C23 UNL     1      15.922  51.193  81.685  1.00  0.00     0.002 C
HETATM   40  C24 UNL     1      14.955  51.982  82.549  1.00  0.00     0.036 C
ENDBRANCH  32  35
ENDBRANCH  28  29
ENDBRANCH  26  28
ENDBRANCH  11  26
ENDBRANCH   6   7
ENDBRANCH   4   6
ENDBRANCH   3   4
TORSDOF 8
ENDMDL