MODEL 5
REMARK VINA RESULT: -8.519375801      3.003      4.465
REMARK  8 active torsions:
REMARK  status: ('A' for Active; 'I' for Inactive)
REMARK    1  A    between atoms: C4_4  and  N1_5
REMARK    2  A    between atoms: N1_5  and  C5_7
REMARK    3  A    between atoms: C6_10  and  N3_11
REMARK    4  A    between atoms: C7_13  and  C8_14
REMARK    5  A    between atoms: C8_14  and  N4_15
REMARK    6  A    between atoms: C13_23  and  N6_24
REMARK    7  A    between atoms: N6_24  and  C14_26
REMARK    8  A    between atoms: C17_29  and  N7_30
ROOT
HETATM    1  C5  UNL     1      11.966  53.395  89.543  1.00  0.00     0.711 A
HETATM    2  N2  UNL     1      10.809  54.036  89.722  1.00  0.00    -0.021 N
ATOM      3  H2  UNL     1      10.735  54.736  90.460  1.00  0.00     0.203 HD
HETATM    4  C6  UNL     1       9.708  53.772  88.927  1.00  0.00     0.711 A
HETATM    5  N5  UNL     1       9.897  52.846  87.991  1.00  0.00    -0.021 N
ATOM      6  H5  UNL     1       9.104  52.627  87.388  1.00  0.00     0.203 HD
HETATM    7  C13 UNL     1      11.048  52.164  87.765  1.00  0.00     0.711 A
HETATM    8  N8  UNL     1      12.079  52.465  88.568  1.00  0.00    -0.021 N
ATOM      9  H8  UNL     1      12.968  51.983  88.440  1.00  0.00     0.203 HD
ENDROOT
BRANCH   7  10
HETATM   10  N6  UNL     1      11.061  51.313  86.836  1.00  0.00    -0.191 N
ATOM     11  H6  UNL     1      10.408  50.542  86.975  1.00  0.00     0.184 HD
BRANCH  10  12
HETATM   12  C14 UNL     1      11.788  51.223  85.666  1.00  0.00     0.049 A
HETATM   13  C15 UNL     1      11.905  50.042  84.969  1.00  0.00     0.032 A
HETATM   14  C16 UNL     1      12.625  49.932  83.804  1.00  0.00     0.031 A
HETATM   15  C17 UNL     1      13.285  51.040  83.265  1.00  0.00     0.030 A
HETATM   16  C23 UNL     1      13.176  52.224  83.950  1.00  0.00     0.031 A
HETATM   17  C24 UNL     1      12.438  52.307  85.131  1.00  0.00     0.032 A
BRANCH  15  18
HETATM   18  N7  UNL     1      14.036  50.911  82.065  1.00  0.00    -0.381 N
HETATM   19  C18 UNL     1      15.462  51.083  82.088  1.00  0.00     0.123 C
HETATM   20  C19 UNL     1      15.790  51.995  80.893  1.00  0.00     0.020 C
HETATM   21  C20 UNL     1      15.436  51.271  79.636  1.00  0.00     0.003 C
HETATM   22  C21 UNL     1      14.497  50.093  79.859  1.00  0.00     0.020 C
HETATM   23  C22 UNL     1      13.401  50.594  80.804  1.00  0.00     0.123 C
ENDBRANCH  15  18
ENDBRANCH  10  12
ENDBRANCH   7  10
BRANCH   4  24
HETATM   24  N3  UNL     1       8.696  54.424  89.187  1.00  0.00    -0.203 N
HETATM   25  C7  UNL     1       7.359  54.425  89.466  1.00  0.00     0.098 C
ATOM     26  H3  UNL     1       8.988  55.402  89.202  1.00  0.00     0.183 HD
BRANCH  25  27
HETATM   27  C8  UNL     1       6.688  53.111  89.399  1.00  0.00     0.167 C
BRANCH  27  28
HETATM   28  N4  UNL     1       6.729  52.314  90.574  1.00  0.00    -0.385 N
HETATM   29  C9  UNL     1       7.386  51.066  90.505  1.00  0.00     0.148 C
HETATM   30  C10 UNL     1       8.750  51.054  91.091  1.00  0.00     0.187 C
HETATM   31  O1  UNL     1       9.186  52.200  91.678  1.00  0.00    -0.385 OA
HETATM   32  C11 UNL     1       8.277  52.961  92.348  1.00  0.00     0.212 C
HETATM   33  C12 UNL     1       6.879  52.929  91.827  1.00  0.00     0.084 C
ENDBRANCH  27  28
ENDBRANCH  25  27
ENDBRANCH   4  24
BRANCH   1  34
HETATM   34  N1  UNL     1      13.004  53.628  90.278  1.00  0.00    -0.191 N
ATOM     35  H1  UNL     1      13.873  53.906  89.823  1.00  0.00     0.184 HD
BRANCH  34  36
HETATM   36  C4  UNL     1      12.982  53.512  91.688  1.00  0.00     0.049 A
HETATM   37  C3  UNL     1      12.979  54.592  92.535  1.00  0.00     0.030 A
HETATM   38  C2  UNL     1      12.957  54.414  93.918  1.00  0.00     0.002 A
HETATM   39  C1  UNL     1      12.938  53.150  94.462  1.00  0.00     0.000 A
HETATM   40  C26 UNL     1      12.941  52.041  93.624  1.00  0.00     0.002 A
HETATM   41  C25 UNL     1      12.963  52.265  92.275  1.00  0.00     0.030 A
ENDBRANCH  34  36
ENDBRANCH   1  34
TORSDOF 8
ENDMDL