MODEL 4
REMARK VINA RESULT: -8.176476616      0.904      1.697
REMARK  8 active torsions:
REMARK  status: ('A' for Active; 'I' for Inactive)
REMARK    1  A    between atoms: C4_4  and  N1_5
REMARK    2  A    between atoms: N1_5  and  C5_7
REMARK    3  A    between atoms: C6_10  and  N3_11
REMARK    4  A    between atoms: N4_14  and  C9_15
REMARK    5  A    between atoms: N7_28  and  C18_30
REMARK    6  A    between atoms: C18_30  and  C19_31
REMARK    7  A    between atoms: C19_31  and  N8_32
REMARK    8  A    between atoms: N8_32  and  C20_34
ROOT
HETATM    1  C5  UNL     1       9.975  53.481  88.973  1.00  0.00     0.167 A
HETATM    2  N2  UNL     1      10.236  52.968  87.769  1.00  0.00    -0.172 N
ATOM      3  H2  UNL     1      11.020  53.356  87.246  1.00  0.00     0.186 HD
HETATM    4  C6  UNL     1       9.521  51.960  87.192  1.00  0.00     0.696 A
HETATM    5  N5  UNL     1       8.504  51.463  87.876  1.00  0.00    -0.130 N
ATOM      6  H5  UNL     1       7.942  50.707  87.484  1.00  0.00     0.205 HD
HETATM    7  N6  UNL     1       8.216  51.956  89.088  1.00  0.00    -0.268 N
ATOM      8  H6  UNL     1       7.427  51.556  89.596  1.00  0.00     0.189 HD
HETATM    9  C17 UNL     1       8.907  52.947  89.670  1.00  0.00     0.162 A
HETATM   10  N7  UNL     1       8.632  53.416  90.820  1.00  0.00    -0.371 N
ATOM     11  H7  UNL     1       9.220  54.171  91.171  1.00  0.00     0.161 HD
ENDROOT
BRANCH   1  12
HETATM   12  N1  UNL     1      10.646  54.430  89.518  1.00  0.00    -0.339 N
ATOM     13  H1  UNL     1      10.159  55.317  89.647  1.00  0.00     0.167 HD
BRANCH  12  14
HETATM   14  C4  UNL     1      11.975  54.379  89.953  1.00  0.00     0.033 A
HETATM   15  C3  UNL     1      12.992  54.835  89.166  1.00  0.00     0.029 A
HETATM   16  C2  UNL     1      14.283  54.766  89.634  1.00  0.00     0.002 A
HETATM   17  C1  UNL     1      14.520  54.230  90.901  1.00  0.00     0.000 A
HETATM   18  C26 UNL     1      13.481  53.771  91.685  1.00  0.00     0.002 A
HETATM   19  C25 UNL     1      12.194  53.840  91.221  1.00  0.00     0.029 A
ENDBRANCH  12  14
ENDBRANCH   1  12
BRANCH  10  20
HETATM   20  C18 UNL     1       7.550  52.962  91.669  1.00  0.00     0.141 C
BRANCH  20  21
HETATM   21  C19 UNL     1       8.101  52.741  93.058  1.00  0.00     0.139 C
BRANCH  21  22
HETATM   22  N8  UNL     1       8.863  53.842  93.553  1.00  0.00    -0.388 N
ATOM     23  H8  UNL     1       8.439  54.765  93.464  1.00  0.00     0.159 HD
BRANCH  22  24
HETATM   24  C20 UNL     1      10.008  53.800  94.090  1.00  0.00     0.030 A
HETATM   25  C21 UNL     1      10.622  52.586  94.319  1.00  0.00     0.046 A
HETATM   26  C22 UNL     1      11.880  52.551  94.908  1.00  0.00     0.089 A
HETATM   27  N9  UNL     1      12.547  53.659  95.277  1.00  0.00    -0.375 N
HETATM   28  C23 UNL     1      11.960  54.848  95.060  1.00  0.00     0.089 A
ATOM     29  H9  UNL     1      13.470  53.598  95.708  1.00  0.00     0.164 HD
HETATM   30  C24 UNL     1      10.695  54.932  94.469  1.00  0.00     0.046 A
ENDBRANCH  22  24
ENDBRANCH  21  22
ENDBRANCH  20  21
ENDBRANCH  10  20
BRANCH   4  31
HETATM   31  N3  UNL     1       9.883  51.488  85.895  1.00  0.00    -0.213 N
HETATM   32  C7  UNL     1      10.200  50.124  85.610  1.00  0.00     0.161 C
HETATM   33  C8  UNL     1      11.614  50.082  85.024  1.00  0.00     0.143 C
HETATM   34  N4  UNL     1      11.744  51.192  84.093  1.00  0.00    -0.378 N
HETATM   35  C15 UNL     1      10.539  51.841  83.617  1.00  0.00     0.143 C
HETATM   36  C16 UNL     1       9.909  52.490  84.831  1.00  0.00     0.161 C
BRANCH  34  37
HETATM   37  C9  UNL     1      13.057  51.577  83.697  1.00  0.00     0.030 A
HETATM   38  C10 UNL     1      13.710  50.850  82.709  1.00  0.00     0.029 A
HETATM   39  C11 UNL     1      14.979  51.144  82.262  1.00  0.00     0.002 A
HETATM   40  C12 UNL     1      15.673  52.206  82.796  1.00  0.00     0.000 A
HETATM   41  C13 UNL     1      15.042  52.938  83.776  1.00  0.00     0.002 A
HETATM   42  C14 UNL     1      13.753  52.635  84.226  1.00  0.00     0.029 A
ENDBRANCH  34  37
ENDBRANCH   4  31
TORSDOF 8
ENDMDL