MODEL 2
REMARK VINA RESULT: -8.148098414      0.855      1.071
REMARK  8 active torsions:
REMARK  status: ('A' for Active; 'I' for Inactive)
REMARK    1  A    between atoms: C1_2  and  C2_4
REMARK    2  A    between atoms: C10_14  and  N3_15
REMARK    3  A    between atoms: N3_15  and  C11_17
REMARK    4  A    between atoms: C11_17  and  C12_18
REMARK    5  A    between atoms: C12_18  and  C13_19
REMARK    6  A    between atoms: C13_19  and  N4_20
REMARK    7  A    between atoms: C18_28  and  N6_29
REMARK    8  A    between atoms: N6_29  and  C19_31
ROOT
HETATM    1  C2  UNL     1       7.123  52.284  83.673  1.00  0.00     0.030 A
HETATM    2  C3  UNL     1       8.338  52.354  83.033  1.00  0.00     0.019 A
HETATM    3  C4  UNL     1       9.530  52.531  83.752  1.00  0.00     0.032 A
HETATM    4  C5  UNL     1       9.540  52.644  85.124  1.00  0.00     0.069 A
HETATM    5  C6  UNL     1       8.309  52.570  85.740  1.00  0.00    -0.004 A
HETATM    6  C7  UNL     1       7.124  52.396  85.045  1.00  0.00     0.030 A
HETATM    7  C8  UNL     1       8.553  52.704  87.091  1.00  0.00     0.064 A
HETATM    8  C9  UNL     1       9.927  52.852  87.232  1.00  0.00     0.145 A
HETATM    9  N2  UNL     1      10.710  53.017  88.318  1.00  0.00    -0.175 N
ATOM     10  H2  UNL     1      10.274  53.048  89.239  1.00  0.00     0.186 HD
HETATM   11  C10 UNL     1      12.035  53.141  88.228  1.00  0.00     0.694 A
HETATM   12  N5  UNL     1      12.604  53.102  87.016  1.00  0.00    -0.022 N
ATOM     13  H5  UNL     1      13.617  53.197  86.945  1.00  0.00     0.203 HD
HETATM   14  C18 UNL     1      11.897  52.942  85.908  1.00  0.00     0.702 A
HETATM   15  N7  UNL     1      10.534  52.818  86.047  1.00  0.00    -0.131 N
ENDROOT
BRANCH  11  16
HETATM   16  N3  UNL     1      12.800  53.292  89.261  1.00  0.00    -0.225 N
ATOM     17  H3  UNL     1      12.745  52.589  89.997  1.00  0.00     0.177 HD
BRANCH  16  18
HETATM   18  C11 UNL     1      13.716  54.372  89.443  1.00  0.00     0.140 C
BRANCH  18  19
HETATM   19  C12 UNL     1      14.165  54.448  90.896  1.00  0.00     0.050 C
BRANCH  19  20
HETATM   20  C13 UNL     1      12.894  54.511  91.726  1.00  0.00     0.274 C
BRANCH  20  21
HETATM   21  N4  UNL     1      13.219  54.072  93.091  1.00  0.00     0.092 N
HETATM   22  C14 UNL     1      12.148  54.562  93.943  1.00  0.00     0.298 C
HETATM   23  C15 UNL     1      12.201  53.933  95.317  1.00  0.00     0.198 C
HETATM   24  O2  UNL     1      13.106  52.875  95.364  1.00  0.00    -0.388 OA
HETATM   25  C16 UNL     1      12.779  51.994  94.339  1.00  0.00     0.198 C
HETATM   26  C17 UNL     1      13.223  52.621  93.033  1.00  0.00     0.298 C
ENDBRANCH  20  21
ENDBRANCH  19  20
ENDBRANCH  18  19
ENDBRANCH  16  18
ENDBRANCH  11  16
BRANCH  14  27
HETATM   27  N6  UNL     1      12.371  52.902  84.798  1.00  0.00    -0.217 N
ATOM     28  H6  UNL     1      12.296  53.854  84.438  1.00  0.00     0.178 HD
BRANCH  27  29
HETATM   29  C19 UNL     1      12.977  52.164  83.769  1.00  0.00     0.123 C
HETATM   30  C20 UNL     1      14.375  52.622  83.698  1.00  0.00    -0.005 C
HETATM   31  C21 UNL     1      15.467  52.089  82.930  1.00  0.00    -0.028 C
HETATM   32  C22 UNL     1      15.558  51.817  81.499  1.00  0.00     0.038 C
HETATM   33  C23 UNL     1      14.830  50.524  80.994  1.00  0.00     0.083 C
HETATM   34  C24 UNL     1      13.753  50.388  81.883  1.00  0.00    -0.183 C
HETATM   35  C25 UNL     1      12.593  49.940  82.530  1.00  0.00     0.082 C
HETATM   36  C26 UNL     1      12.578  50.764  83.870  1.00  0.00     0.041 C
ENDBRANCH  27  29
ENDBRANCH  14  27
BRANCH   1  37
HETATM   37  C1  UNL     1       5.893  52.098  82.914  1.00  0.00     0.265 C
HETATM   38  N1  UNL     1       5.807  51.367  81.725  1.00  0.00    -0.057 NA
HETATM   39  O1  UNL     1       4.847  52.633  83.361  1.00  0.00    -0.271 OA
ENDBRANCH   1  37
TORSDOF 8
ENDMDL