MODEL 4
REMARK VINA RESULT: -7.496754929      2.058     10.126
REMARK  8 active torsions:
REMARK  status: ('A' for Active; 'I' for Inactive)
REMARK    1  A    between atoms: N1_4  and  C4_5
REMARK    2  A    between atoms: C10_11  and  N2_12
REMARK    3  A    between atoms: N2_12  and  C11_14
REMARK    4  A    between atoms: C14_17  and  C15_18
REMARK    5  A    between atoms: C16_19  and  C17_20
REMARK    6  A    between atoms: C17_20  and  N3_21
REMARK    7  A    between atoms: N4_24  and  C20_25
REMARK    8  A    between atoms: C20_25  and  C21_26
ROOT
HETATM    1  C11 UNL     1       9.792  52.349  85.120  1.00  0.00     0.052 A
HETATM    2  C12 UNL     1      10.630  52.105  86.164  1.00  0.00     0.032 A
HETATM    3  C13 UNL     1      10.160  52.163  87.481  1.00  0.00     0.023 A
HETATM    4  C14 UNL     1       8.858  52.462  87.774  1.00  0.00     0.020 A
HETATM    5  C28 UNL     1       7.992  52.713  86.703  1.00  0.00     0.049 A
HETATM    6  C29 UNL     1       8.460  52.654  85.412  1.00  0.00     0.074 A
HETATM    7  N6  UNL     1       7.551  52.916  84.346  1.00  0.00    -0.100 NA
ENDROOT
BRANCH   4   8
HETATM    8  C15 UNL     1       8.345  52.526  89.113  1.00  0.00    -0.061 C
HETATM    9  C16 UNL     1       7.921  52.560  90.257  1.00  0.00    -0.056 C
BRANCH   9  10
HETATM   10  C17 UNL     1       7.439  52.580  91.615  1.00  0.00     0.155 C
BRANCH  10  11
HETATM   11  N3  UNL     1       8.444  52.308  92.539  1.00  0.00    -0.359 N
HETATM   12  C18 UNL     1       8.896  53.306  93.419  1.00  0.00     0.094 C
HETATM   13  C19 UNL     1      10.256  53.779  92.995  1.00  0.00     0.317 C
HETATM   14  N4  UNL     1      11.125  52.676  92.506  1.00  0.00     0.095 N
HETATM   15  C26 UNL     1      10.601  51.424  92.993  1.00  0.00     0.293 C
HETATM   16  C27 UNL     1       9.196  51.123  92.458  1.00  0.00     0.158 C
BRANCH  14  17
HETATM   17  C20 UNL     1      11.338  52.799  91.113  1.00  0.00     0.277 C
BRANCH  17  18
HETATM   18  C21 UNL     1      12.333  53.732  90.573  1.00  0.00     0.017 C
HETATM   19  C22 UNL     1      12.860  53.544  89.205  1.00  0.00     0.034 C
HETATM   20  C23 UNL     1      13.382  54.864  88.620  1.00  0.00     0.232 C
HETATM   21  N5  UNL     1      13.851  55.635  89.747  1.00  0.00    -0.075 N
HETATM   22  C24 UNL     1      14.486  54.836  90.764  1.00  0.00     0.232 C
ATOM     23  H52 UNL     1      14.468  56.385  89.439  1.00  0.00     0.277 HD
ATOM     24  H51 UNL     1      13.094  56.190  90.144  1.00  0.00     0.277 HD
HETATM   25  C25 UNL     1      13.518  53.951  91.523  1.00  0.00     0.034 C
ENDBRANCH  17  18
ENDBRANCH  14  17
ENDBRANCH  10  11
ENDBRANCH   9  10
ENDBRANCH   4   8
BRANCH   1  26
HETATM   26  N2  UNL     1      10.250  52.273  83.790  1.00  0.00    -0.382 N
ATOM     27  H2  UNL     1      10.195  53.095  83.189  1.00  0.00     0.160 HD
BRANCH  26  28
HETATM   28  C10 UNL     1      10.795  51.048  83.272  1.00  0.00     0.115 C
HETATM   29  C2  UNL     1      10.391  50.819  81.829  1.00  0.00     0.034 C
HETATM   30  C1  UNL     1       9.387  51.792  81.313  1.00  0.00     0.014 C
HETATM   31  C3  UNL     1      11.679  50.795  81.052  1.00  0.00     0.279 C
HETATM   32  N1  UNL     1      12.597  50.284  82.043  1.00  0.00     0.095 N
HETATM   33  C9  UNL     1      12.310  51.165  83.163  1.00  0.00     0.298 C
BRANCH  32  34
HETATM   34  C4  UNL     1      13.988  50.456  81.696  1.00  0.00     0.223 C
HETATM   35  C5  UNL     1      14.740  51.379  82.598  1.00  0.00     0.036 C
HETATM   36  C6  UNL     1      16.037  51.586  81.806  1.00  0.00     0.002 C
HETATM   37  C7  UNL     1      15.541  51.731  80.383  1.00  0.00     0.002 C
HETATM   38  C8  UNL     1      14.166  51.088  80.339  1.00  0.00     0.036 C
ENDBRANCH  32  34
ENDBRANCH  26  28
ENDBRANCH   1  26
TORSDOF 8
ENDMDL