MODEL 2
REMARK VINA RESULT: -7.245483814      3.614      6.101
REMARK  6 active torsions:
REMARK  status: ('A' for Active; 'I' for Inactive)
REMARK    1  A    between atoms: C1_4  and  C2_6
REMARK    2  A    between atoms: C7_12  and  S1_13
REMARK    3  A    between atoms: S1_13  and  C8_14
REMARK    4  A    between atoms: C8_14  and  C9_15
REMARK    5  A    between atoms: C15_21  and  C16_22
REMARK    6  A    between atoms: C16_22  and  N4_23
REMARK       I    between atoms: N4_23  and  C17_24
REMARK       I    between atoms: C17_24  and  N5_26
ROOT
HETATM    1  C9  UNL     1      12.467  53.359  93.505  1.00  0.00    -0.030 C
HETATM    2  C10 UNL     1      12.857  54.700  94.114  1.00  0.00     0.015 C
HETATM    3  C11 UNL     1      11.865  55.053  95.161  1.00  0.00    -0.012 C
HETATM    4  C12 UNL     1      10.457  55.204  94.588  1.00  0.00     0.009 C
HETATM    5  C13 UNL     1      10.085  53.866  94.016  1.00  0.00    -0.012 C
HETATM    6  C14 UNL     1      10.134  52.775  95.065  1.00  0.00     0.020 C
HETATM    7  C15 UNL     1      11.516  52.674  95.680  1.00  0.00     0.006 C
HETATM    8  C22 UNL     1      11.771  54.047  96.284  1.00  0.00     0.020 C
HETATM    9  C23 UNL     1      12.484  52.335  94.583  1.00  0.00     0.026 C
HETATM   10  C24 UNL     1      11.063  53.524  92.923  1.00  0.00     0.015 C
ENDROOT
BRANCH   1  11
HETATM   11  C8  UNL     1      13.381  53.027  92.365  1.00  0.00     0.086 C
BRANCH  11  12
HETATM   12  S1  UNL     1      13.789  54.471  91.364  1.00  0.00    -0.134 SA
BRANCH  12  13
HETATM   13  C7  UNL     1      12.992  54.335  89.760  1.00  0.00     0.210 C
HETATM   14  C6  UNL     1      13.911  54.372  88.581  1.00  0.00     0.174 C
HETATM   15  N3  UNL     1      13.103  53.716  87.550  1.00  0.00    -0.334 N
HETATM   16  C4  UNL     1      12.224  52.895  88.186  1.00  0.00     0.146 A
HETATM   17  C5  UNL     1      12.894  53.605  86.224  1.00  0.00     0.108 A
HETATM   18  C3  UNL     1      11.469  52.275  87.211  1.00  0.00     0.072 A
HETATM   19  O3  UNL     1      12.434  53.005  89.579  1.00  0.00    -0.318 OA
HETATM   20  C2  UNL     1      11.879  52.712  85.964  1.00  0.00     0.024 A
BRANCH  20  21
HETATM   21  C1  UNL     1      11.335  52.303  84.652  1.00  0.00     0.121 C
HETATM   22  N1  UNL     1      11.937  51.452  83.916  1.00  0.00    -0.387 N
ATOM     23  H12 UNL     1      11.562  51.169  83.011  1.00  0.00     0.157 HD
ATOM     24  H11 UNL     1      12.816  51.037  84.225  1.00  0.00     0.157 HD
HETATM   25  N2  UNL     1      10.121  52.877  84.226  1.00  0.00    -0.082 NA
ENDBRANCH  20  21
ENDBRANCH  12  13
ENDBRANCH  11  12
ENDBRANCH   1  11
BRANCH   7  26
HETATM   26  C16 UNL     1      11.468  51.606  96.752  1.00  0.00     0.170 C
BRANCH  26  27
HETATM   27  N4  UNL     1      12.548  51.541  97.592  1.00  0.00    -0.368 NA
HETATM   28  C17 UNL     1      13.627  51.476  98.433  1.00  0.00     0.395 C
HETATM   29  O1  UNL     1      13.644  51.838  99.634  1.00  0.00    -0.230 OA
HETATM   30  N5  UNL     1      14.919  50.954  97.984  1.00  0.00    -0.318 N
HETATM   31  C18 UNL     1      16.064  50.910  98.863  1.00  0.00     0.155 C
HETATM   32  C21 UNL     1      15.119  50.447  96.645  1.00  0.00     0.155 C
HETATM   33  C19 UNL     1      17.265  51.237  98.014  1.00  0.00     0.187 C
HETATM   34  O2  UNL     1      17.506  50.347  96.993  1.00  0.00    -0.388 OA
HETATM   35  C20 UNL     1      16.397  49.642  96.551  1.00  0.00     0.187 C
ENDBRANCH  26  27
ENDBRANCH   7  26
TORSDOF 6
ENDMDL