MODEL 1
REMARK VINA RESULT: -6.736579895      0.000      0.000
REMARK  7 active torsions:
REMARK  status: ('A' for Active; 'I' for Inactive)
REMARK    1  A    between atoms: C7_8  and  N1_9
REMARK    2  A    between atoms: N1_9  and  C8_11
REMARK    3  A    between atoms: C8_11  and  N2_13
REMARK    4  A    between atoms: N2_13  and  C9_15
REMARK    5  A    between atoms: C9_15  and  C10_16
REMARK    6  A    between atoms: C10_16  and  C11_17
REMARK    7  A    between atoms: C11_17  and  N3_18
ROOT
HETATM    1  N3  UNL     1      11.834  51.074  88.734  1.00  0.00    -0.234 NA
HETATM    2  C12 UNL     1      12.085  50.805  90.113  1.00  0.00     0.139 C
HETATM    3  C13 UNL     1      12.019  49.367  90.520  1.00  0.00     0.183 C
HETATM    4  O1  UNL     1      12.488  49.313  91.855  1.00  0.00    -0.388 OA
HETATM    5  C14 UNL     1      11.526  49.734  92.753  1.00  0.00     0.193 C
HETATM    6  C15 UNL     1      12.153  50.638  93.820  1.00  0.00     0.193 C
HETATM    7  O2  UNL     1      12.719  51.726  93.206  1.00  0.00    -0.387 OA
HETATM    8  C16 UNL     1      12.900  52.831  94.001  1.00  0.00     0.193 C
HETATM    9  C17 UNL     1      12.338  54.072  93.351  1.00  0.00     0.193 C
HETATM   10  O3  UNL     1      13.317  54.891  92.797  1.00  0.00    -0.387 OA
HETATM   11  C18 UNL     1      13.917  54.300  91.692  1.00  0.00     0.193 C
HETATM   12  C19 UNL     1      13.994  55.178  90.489  1.00  0.00     0.193 C
HETATM   13  O4  UNL     1      12.889  55.131  89.667  1.00  0.00    -0.387 OA
HETATM   14  C20 UNL     1      12.802  53.911  88.956  1.00  0.00     0.188 C
HETATM   15  C21 UNL     1      11.425  53.385  89.182  1.00  0.00     0.160 C
HETATM   16  N4  UNL     1      11.086  52.195  88.501  1.00  0.00    -0.352 N
ATOM     17  H4  UNL     1      10.300  52.172  87.850  1.00  0.00     0.174 HD
ENDROOT
BRANCH   1  18
HETATM   18  C11 UNL     1      11.178  49.947  88.099  1.00  0.00     0.114 C
BRANCH  18  19
HETATM   19  C10 UNL     1      10.048  50.431  87.197  1.00  0.00     0.036 C
BRANCH  19  20
HETATM   20  C9  UNL     1      10.407  50.183  85.753  1.00  0.00     0.123 C
BRANCH  20  21
HETATM   21  N2  UNL     1      11.736  50.620  85.436  1.00  0.00    -0.367 N
ATOM     22  H2  UNL     1      12.534  50.094  85.791  1.00  0.00     0.161 HD
BRANCH  21  23
HETATM   23  C8  UNL     1      11.966  51.799  84.618  1.00  0.00     0.172 C
HETATM   24  S2  UNL     1      10.724  52.823  84.542  1.00  0.00    -0.041 SA
BRANCH  23  25
HETATM   25  N1  UNL     1      13.208  51.950  83.982  1.00  0.00    -0.333 N
ATOM     26  H1  UNL     1      13.870  52.539  84.487  1.00  0.00     0.168 HD
BRANCH  25  27
HETATM   27  C7  UNL     1      13.693  51.438  82.786  1.00  0.00     0.041 A
HETATM   28  C2  UNL     1      14.962  51.833  82.338  1.00  0.00    -0.035 A
HETATM   29  C1  UNL     1      15.734  52.794  83.173  1.00  0.00     0.050 C
HETATM   30  C3  UNL     1      15.501  51.370  81.175  1.00  0.00     0.010 A
HETATM   31  C4  UNL     1      14.799  50.481  80.391  1.00  0.00     0.020 A
HETATM   32  C5  UNL     1      13.551  50.066  80.792  1.00  0.00     0.014 A
HETATM   33  S1  UNL     1      12.627  48.909  79.781  1.00  0.00    -0.052 SA
HETATM   34  C6  UNL     1      13.033  50.561  81.988  1.00  0.00     0.049 A
ENDBRANCH  25  27
ENDBRANCH  23  25
ENDBRANCH  21  23
ENDBRANCH  20  21
ENDBRANCH  19  20
ENDBRANCH  18  19
ENDBRANCH   1  18
TORSDOF 7
ENDMDL