MODEL 2
REMARK VINA RESULT: -7.174281611      0.816      1.910
REMARK  7 active torsions:
REMARK  status: ('A' for Active; 'I' for Inactive)
REMARK    1  A    between atoms: O1_2  and  C2_3
REMARK    2  A    between atoms: C7_8  and  O2_9
REMARK    3  A    between atoms: N1_13  and  C10_14
REMARK    4  A    between atoms: C10_14  and  C11_15
REMARK    5  A    between atoms: C11_15  and  C12_16
REMARK    6  A    between atoms: C13_17  and  C14_18
REMARK    7  A    between atoms: C17_23  and  N3_24
REMARK       I    between atoms: C18_26  and  N5_28
ROOT
HETATM    1  C11 UNL     1      10.240  52.116  86.327  1.00  0.00     0.196 C
HETATM    2  N6  UNL     1      10.323  53.068  85.269  1.00  0.00    -0.313 N
ATOM      3  H6  UNL     1      11.165  53.562  84.976  1.00  0.00     0.166 HD
HETATM    4  C22 UNL     1       9.038  53.209  84.695  1.00  0.00     0.324 C
HETATM    5  O4  UNL     1       8.708  53.766  83.612  1.00  0.00    -0.247 OA
HETATM    6  N7  UNL     1       8.095  52.581  85.591  1.00  0.00    -0.276 N
ATOM      7  H7  UNL     1       7.087  52.520  85.449  1.00  0.00     0.173 HD
HETATM    8  C23 UNL     1       8.803  52.067  86.693  1.00  0.00     0.268 C
HETATM    9  O5  UNL     1       8.341  51.656  87.757  1.00  0.00    -0.269 OA
ENDROOT
BRANCH   1  10
HETATM   10  C10 UNL     1      10.821  50.777  86.061  1.00  0.00     0.181 C
BRANCH  10  11
HETATM   11  N1  UNL     1      11.466  50.592  84.791  1.00  0.00    -0.340 N
HETATM   12  C9  UNL     1      11.009  49.764  83.734  1.00  0.00     0.254 A
HETATM   13  C5  UNL     1      11.966  49.901  82.647  1.00  0.00     0.043 A
HETATM   14  O3  UNL     1       9.995  49.030  83.670  1.00  0.00    -0.267 OA
HETATM   15  C4  UNL     1      12.974  50.767  83.000  1.00  0.00    -0.022 A
HETATM   16  C6  UNL     1      11.983  49.318  81.372  1.00  0.00     0.057 A
HETATM   17  C3  UNL     1      13.998  51.065  82.113  1.00  0.00     0.049 A
HETATM   18  C24 UNL     1      12.707  51.211  84.392  1.00  0.00     0.165 A
HETATM   19  C2  UNL     1      13.977  50.476  80.877  1.00  0.00     0.102 A
HETATM   20  C7  UNL     1      12.992  49.604  80.479  1.00  0.00     0.102 A
BRANCH  19  21
HETATM   21  O1  UNL     1      15.006  50.767  79.964  1.00  0.00    -0.353 OA
HETATM   22  C1  UNL     1      15.831  51.904  80.119  1.00  0.00     0.210 C
ENDBRANCH  19  21
BRANCH  20  23
HETATM   23  O2  UNL     1      12.993  49.021  79.222  1.00  0.00    -0.353 OA
HETATM   24  C8  UNL     1      12.788  47.657  78.998  1.00  0.00     0.210 C
ENDBRANCH  20  23
ENDBRANCH  10  11
ENDBRANCH   1  10
BRANCH   1  25
HETATM   25  C12 UNL     1      11.015  52.642  87.501  1.00  0.00    -0.057 C
HETATM   26  C13 UNL     1      11.656  53.051  88.437  1.00  0.00    -0.062 C
BRANCH  26  27
HETATM   27  C14 UNL     1      12.435  53.518  89.550  1.00  0.00     0.035 A
HETATM   28  C15 UNL     1      13.288  54.602  89.479  1.00  0.00     0.108 A
HETATM   29  N2  UNL     1      14.009  55.021  90.532  1.00  0.00    -0.372 N
HETATM   30  C16 UNL     1      13.951  54.417  91.728  1.00  0.00     0.117 A
ATOM     31  H2  UNL     1      14.623  55.829  90.418  1.00  0.00     0.164 HD
HETATM   32  C17 UNL     1      13.123  53.326  91.883  1.00  0.00     0.051 A
HETATM   33  C21 UNL     1      12.373  52.894  90.776  1.00  0.00     0.053 A
BRANCH  32  34
HETATM   34  N3  UNL     1      13.041  52.681  93.122  1.00  0.00    -0.329 N
HETATM   35  C18 UNL     1      13.575  51.555  93.395  1.00  0.00     0.190 C
HETATM   36  N4  UNL     1      14.320  50.848  92.431  1.00  0.00    -0.063 NA
HETATM   37  N5  UNL     1      13.392  51.038  94.710  1.00  0.00    -0.364 N
HETATM   38  C19 UNL     1      12.369  50.072  94.989  1.00  0.00     0.151 C
HETATM   39  C20 UNL     1      14.273  51.524  95.744  1.00  0.00     0.151 C
ATOM     40  H3  UNL     1      12.515  53.145  93.863  1.00  0.00     0.168 HD
ENDBRANCH  32  34
ENDBRANCH  26  27
ENDBRANCH   1  25
TORSDOF 7
ENDMDL