MODEL 2
REMARK VINA RESULT: -7.316807335      2.199      7.960
REMARK  7 active torsions:
REMARK  status: ('A' for Active; 'I' for Inactive)
REMARK    1  A    between atoms: C4_5  and  S1_6
REMARK    2  A    between atoms: S1_6  and  N2_7
REMARK    3  A    between atoms: C7_14  and  N3_15
REMARK    4  A    between atoms: N3_15  and  S2_17
REMARK    5  A    between atoms: S2_17  and  C8_20
REMARK    6  A    between atoms: C13_25  and  S3_26
REMARK    7  A    between atoms: S3_26  and  N4_27
ROOT
HETATM    1  N1  UNL     1      13.132  49.377  95.529  1.00  0.00    -0.191 NA
HETATM    2  C1  UNL     1      13.606  49.914  96.422  1.00  0.00     0.102 C
HETATM    3  C2  UNL     1      14.218  50.579  97.542  1.00  0.00     0.073 A
HETATM    4  C3  UNL     1      15.560  50.393  97.802  1.00  0.00     0.050 A
HETATM    5  C4  UNL     1      16.120  51.051  98.892  1.00  0.00     0.081 A
HETATM    6  C5  UNL     1      15.341  51.853  99.670  1.00  0.00     0.027 A
HETATM    7  C6  UNL     1      13.980  52.022  99.383  1.00  0.00     0.033 A
HETATM    8  C7  UNL     1      13.405  51.382  98.310  1.00  0.00     0.063 A
ENDROOT
BRANCH   8   9
HETATM    9  N3  UNL     1      12.036  51.527  98.006  1.00  0.00    -0.279 N
ATOM     10  H3  UNL     1      11.467  50.681  98.028  1.00  0.00     0.179 HD
BRANCH   9  11
HETATM   11  S2  UNL     1      11.241  52.984  97.603  1.00  0.00     0.263 S
HETATM   12  O3  UNL     1       9.756  52.804  97.478  1.00  0.00    -0.200 OA
HETATM   13  O4  UNL     1      11.465  54.061  98.628  1.00  0.00    -0.200 OA
BRANCH  11  14
HETATM   14  C8  UNL     1      11.811  53.598  96.069  1.00  0.00     0.080 A
HETATM   15  C9  UNL     1      11.628  54.947  95.748  1.00  0.00     0.026 A
HETATM   16  C10 UNL     1      12.075  55.453  94.548  1.00  0.00     0.014 A
HETATM   17  C11 UNL     1      12.718  54.667  93.612  1.00  0.00    -0.024 A
HETATM   18  C12 UNL     1      13.158  55.192  92.416  1.00  0.00     0.037 A
HETATM   19  C16 UNL     1      12.905  53.335  93.916  1.00  0.00    -0.024 A
HETATM   20  C13 UNL     1      13.804  54.412  91.472  1.00  0.00     0.080 A
HETATM   21  C14 UNL     1      13.994  53.070  91.774  1.00  0.00     0.026 A
HETATM   22  C15 UNL     1      13.544  52.561  92.982  1.00  0.00     0.014 A
HETATM   23  C17 UNL     1      12.451  52.845  95.124  1.00  0.00     0.037 A
BRANCH  20  24
HETATM   24  S3  UNL     1      14.373  55.053  89.946  1.00  0.00     0.256 S
HETATM   25  O5  UNL     1      14.916  56.435  90.176  1.00  0.00    -0.201 OA
HETATM   26  O6  UNL     1      15.508  54.211  89.418  1.00  0.00    -0.201 OA
BRANCH  24  27
HETATM   27  N4  UNL     1      13.037  55.075  88.851  1.00  0.00    -0.324 N
ATOM     28  H42 UNL     1      12.114  54.684  89.039  1.00  0.00     0.169 HD
ATOM     29  H41 UNL     1      13.341  55.543  87.997  1.00  0.00     0.169 HD
ENDBRANCH  24  27
ENDBRANCH  20  24
ENDBRANCH  11  14
ENDBRANCH   9  11
ENDBRANCH   8   9
BRANCH   5  30
HETATM   30  S1  UNL     1      17.835  50.819  99.230  1.00  0.00     0.256 S
HETATM   31  O1  UNL     1      18.557  52.052  98.794  1.00  0.00    -0.201 OA
HETATM   32  O2  UNL     1      18.375  49.654  98.455  1.00  0.00    -0.201 OA
BRANCH  30  33
HETATM   33  N2  UNL     1      18.127  50.540 100.887  1.00  0.00    -0.324 N
ATOM     34  H22 UNL     1      17.818  49.698 101.374  1.00  0.00     0.169 HD
ATOM     35  H21 UNL     1      18.641  51.308 101.319  1.00  0.00     0.169 HD
ENDBRANCH  30  33
ENDBRANCH   5  30
TORSDOF 7
ENDMDL