MODEL 1
REMARK VINA RESULT: -7.720939417      0.000      0.000
REMARK  6 active torsions:
REMARK  status: ('A' for Active; 'I' for Inactive)
REMARK    1  A    between atoms: C5_5  and  N1_6
REMARK    2  A    between atoms: N1_6  and  C6_8
REMARK    3  A    between atoms: C13_21  and  O1_22
REMARK    4  A    between atoms: C18_27  and  S1_28
REMARK    5  A    between atoms: S1_28  and  N5_31
REMARK    6  A    between atoms: N5_31  and  S2_33
ROOT
HETATM    1  C1  UNL     1      16.392  51.888  81.982  1.00  0.00     0.018 C
HETATM    2  C2  UNL     1      15.274  51.694  82.389  1.00  0.00    -0.078 C
HETATM    3  C3  UNL     1      13.949  51.462  82.883  1.00  0.00     0.020 A
HETATM    4  C4  UNL     1      13.431  52.332  83.798  1.00  0.00     0.050 A
HETATM    5  C5  UNL     1      12.173  52.169  84.308  1.00  0.00     0.036 A
HETATM    6  C17 UNL     1      11.445  51.085  83.860  1.00  0.00     0.054 A
HETATM    7  C18 UNL     1      11.921  50.187  82.944  1.00  0.00     0.084 A
HETATM    8  C20 UNL     1      13.191  50.373  82.446  1.00  0.00     0.046 A
ENDROOT
BRANCH   5   9
HETATM    9  N1  UNL     1      11.674  53.100  85.259  1.00  0.00    -0.340 N
ATOM     10  H1  UNL     1      11.604  54.094  85.038  1.00  0.00     0.167 HD
BRANCH   9  11
HETATM   11  C6  UNL     1      11.313  52.645  86.412  1.00  0.00     0.136 A
HETATM   12  N2  UNL     1      10.332  51.712  86.542  1.00  0.00    -0.337 N
HETATM   13  C7  UNL     1       9.996  51.274  87.771  1.00  0.00     0.182 A
ATOM     14  H2  UNL     1       9.855  51.347  85.718  1.00  0.00     0.168 HD
HETATM   15  N3  UNL     1      10.621  51.752  88.855  1.00  0.00    -0.350 N
HETATM   16  C8  UNL     1      11.592  52.670  88.786  1.00  0.00     0.076 A
ATOM     17  H3  UNL     1      10.345  51.401  89.772  1.00  0.00     0.166 HD
HETATM   18  C9  UNL     1      11.949  53.130  87.535  1.00  0.00     0.105 A
HETATM   19  C16 UNL     1      12.399  53.339  89.671  1.00  0.00     0.022 A
HETATM   20  N4  UNL     1      12.928  54.036  87.661  1.00  0.00    -0.351 N
HETATM   21  C10 UNL     1      13.240  54.198  88.978  1.00  0.00     0.045 A
ATOM     22  H4  UNL     1      13.374  54.530  86.888  1.00  0.00     0.166 HD
HETATM   23  C11 UNL     1      14.128  54.963  89.670  1.00  0.00     0.033 A
HETATM   24  C12 UNL     1      14.211  54.901  91.056  1.00  0.00     0.039 A
HETATM   25  C13 UNL     1      13.380  54.052  91.759  1.00  0.00     0.069 A
HETATM   26  C15 UNL     1      12.487  53.285  91.044  1.00  0.00     0.053 A
BRANCH  25  27
HETATM   27  O1  UNL     1      13.448  53.977  93.140  1.00  0.00    -0.356 OA
HETATM   28  C14 UNL     1      12.677  54.869  93.922  1.00  0.00     0.210 C
ENDBRANCH  25  27
ENDBRANCH   9  11
ENDBRANCH   5   9
BRANCH   7  29
HETATM   29  S1  UNL     1      10.969  48.838  82.403  1.00  0.00     0.271 S
HETATM   30  O2  UNL     1      10.879  47.869  83.571  1.00  0.00    -0.200 OA
HETATM   31  O3  UNL     1       9.560  49.296  82.141  1.00  0.00    -0.200 OA
BRANCH  29  32
HETATM   32  N5  UNL     1      11.626  47.994  81.085  1.00  0.00    -0.207 N
ATOM     33  H5  UNL     1      12.202  47.160  81.207  1.00  0.00     0.192 HD
BRANCH  32  34
HETATM   34  S2  UNL     1      11.263  48.626  79.551  1.00  0.00     0.235 S
HETATM   35  C19 UNL     1       9.774  47.942  78.863  1.00  0.00     0.186 C
HETATM   36  O4  UNL     1      12.386  48.196  78.613  1.00  0.00    -0.205 OA
HETATM   37  O5  UNL     1      11.213  50.107  79.487  1.00  0.00    -0.205 OA
ENDBRANCH  32  34
ENDBRANCH  29  32
ENDBRANCH   7  29
TORSDOF 6
ENDMDL