MODEL 2
REMARK VINA RESULT: -6.865862444      1.618      1.870
REMARK  6 active torsions:
REMARK  status: ('A' for Active; 'I' for Inactive)
REMARK    1  A    between atoms: C8_8  and  S1_9
REMARK    2  A    between atoms: C11_14  and  S2_15
REMARK    3  A    between atoms: S2_15  and  N1_18
REMARK    4  A    between atoms: C16_26  and  C17_27
REMARK    5  A    between atoms: C17_27  and  C18_28
REMARK    6  A    between atoms: C18_28  and  O5_29
ROOT
HETATM    1  C1  UNL     1      13.522  50.804  92.359  1.00  0.00     0.016 C
HETATM    2  C2  UNL     1      12.693  51.740  93.189  1.00  0.00    -0.036 C
HETATM    3  C3  UNL     1      11.294  51.197  93.422  1.00  0.00     0.016 C
HETATM    4  C4  UNL     1      13.300  51.735  94.642  1.00  0.00     0.050 C
HETATM    5  C5  UNL     1      12.548  52.890  95.190  1.00  0.00    -0.027 A
HETATM    6  C6  UNL     1      12.214  53.763  94.203  1.00  0.00    -0.044 A
HETATM    7  C7  UNL     1      11.514  54.919  94.431  1.00  0.00     0.031 A
HETATM    8  C8  UNL     1      11.106  55.258  95.720  1.00  0.00     0.060 A
HETATM    9  C10 UNL     1      11.444  54.380  96.710  1.00  0.00     0.049 A
HETATM   10  C11 UNL     1      12.145  53.216  96.489  1.00  0.00     0.088 A
HETATM   11  C16 UNL     1      12.767  53.176  92.901  1.00  0.00     0.030 C
ENDROOT
BRANCH  10  12
HETATM   12  S2  UNL     1      12.581  52.088  97.747  1.00  0.00     0.264 S
HETATM   13  O3  UNL     1      11.747  50.838  97.521  1.00  0.00    -0.200 OA
HETATM   14  O4  UNL     1      12.135  52.690  99.054  1.00  0.00    -0.200 OA
BRANCH  12  15
HETATM   15  N1  UNL     1      14.249  51.740  97.773  1.00  0.00    -0.270 N
HETATM   16  C12 UNL     1      14.734  50.982  98.672  1.00  0.00     0.086 C
HETATM   17  C13 UNL     1      14.060  50.288  99.794  1.00  0.00     0.078 C
HETATM   18  N2  UNL     1      16.137  50.656  98.740  1.00  0.00    -0.379 N
HETATM   19  C14 UNL     1      15.048  49.276 100.307  1.00  0.00     0.027 C
HETATM   20  C15 UNL     1      16.302  49.443  99.513  1.00  0.00     0.121 C
ATOM     21  H2  UNL     1      16.890  51.194  98.312  1.00  0.00     0.160 HD
ATOM     22  H1  UNL     1      14.863  52.142  97.064  1.00  0.00     0.180 HD
ENDBRANCH  12  15
ENDBRANCH  10  12
BRANCH   8  23
HETATM   23  S1  UNL     1      10.214  56.712  96.086  1.00  0.00     0.171 S
HETATM   24  C9  UNL     1      11.063  58.169  95.558  1.00  0.00     0.167 C
HETATM   25  O1  UNL     1       8.889  56.617  95.341  1.00  0.00    -0.223 OA
HETATM   26  O2  UNL     1       9.861  56.798  97.544  1.00  0.00    -0.223 OA
ENDBRANCH   8  23
BRANCH  11  27
HETATM   27  C17 UNL     1      12.113  53.813  91.766  1.00  0.00     0.049 C
BRANCH  27  28
HETATM   28  C18 UNL     1      12.857  54.120  90.539  1.00  0.00     0.084 C
HETATM   29  C19 UNL     1      14.399  54.170  90.949  1.00  0.00     0.067 C
HETATM   30  C20 UNL     1      14.931  54.969  89.801  1.00  0.00     0.235 C
HETATM   31  N3  UNL     1      13.967  56.058  89.665  1.00  0.00    -0.072 N
HETATM   32  C21 UNL     1      12.667  55.388  89.834  1.00  0.00     0.269 C
ATOM     33  H32 UNL     1      14.124  56.842  90.298  1.00  0.00     0.277 HD
ATOM     34  H31 UNL     1      14.057  56.597  88.804  1.00  0.00     0.277 HD
BRANCH  28  35
HETATM   35  O5  UNL     1      12.886  53.055  89.621  1.00  0.00    -0.388 OA
ATOM     36  H5  UNL     1      13.763  52.751  89.422  1.00  0.00     0.210 HD
ENDBRANCH  28  35
ENDBRANCH  27  28
ENDBRANCH  11  27
TORSDOF 6
ENDMDL