MODEL 3
REMARK VINA RESULT: -6.697922739      3.518      9.321
REMARK  8 active torsions:
REMARK  status: ('A' for Active; 'I' for Inactive)
REMARK    1  A    between atoms: C2_2  and  S1_3
REMARK    2  A    between atoms: S1_3  and  N1_6
REMARK    3  A    between atoms: C10_14  and  O3_15
REMARK    4  A    between atoms: C11_17  and  N2_18
REMARK    5  A    between atoms: N2_18  and  C12_20
REMARK    6  A    between atoms: C15_25  and  N4_26
REMARK    7  A    between atoms: N4_26  and  C16_28
REMARK    8  A    between atoms: C16_28  and  C17_29
ROOT
HETATM    1  N1  UNL     1       9.377  54.724  97.474  1.00  0.00    -0.206 NA
HETATM    2  C3  UNL     1       8.967  55.672  96.454  1.00  0.00     0.112 C
HETATM    3  C4  UNL     1       9.453  55.345  95.086  1.00  0.00     0.057 C
HETATM    4  C5  UNL     1      10.612  54.408  95.111  1.00  0.00    -0.015 A
HETATM    5  C6  UNL     1      11.292  54.103  96.268  1.00  0.00    -0.032 A
HETATM    6  C7  UNL     1      12.361  53.232  96.263  1.00  0.00     0.046 A
HETATM    7  C8  UNL     1      12.796  52.624  95.095  1.00  0.00     0.080 A
HETATM    8  C9  UNL     1      12.115  52.927  93.938  1.00  0.00     0.034 A
HETATM    9  C10 UNL     1      11.046  53.801  93.950  1.00  0.00     0.083 A
HETATM   10  C11 UNL     1      12.784  52.153  92.858  1.00  0.00     0.146 C
HETATM   11  C21 UNL     1      13.374  51.009  93.635  1.00  0.00     0.206 C
HETATM   12  O5  UNL     1      13.832  51.716  94.801  1.00  0.00    -0.348 OA
HETATM   13  C22 UNL     1      10.828  54.753  97.513  1.00  0.00     0.146 C
ENDROOT
BRANCH  10  14
HETATM   14  N2  UNL     1      13.758  52.994  92.245  1.00  0.00    -0.365 N
ATOM     15  H2  UNL     1      14.665  53.048  92.708  1.00  0.00     0.162 HD
BRANCH  14  16
HETATM   16  C12 UNL     1      13.621  53.691  91.174  1.00  0.00     0.118 A
HETATM   17  C13 UNL     1      14.271  54.887  90.956  1.00  0.00     0.066 A
HETATM   18  C14 UNL     1      14.085  55.586  89.783  1.00  0.00     0.110 A
HETATM   19  N3  UNL     1      13.261  55.116  88.822  1.00  0.00    -0.202 N
HETATM   20  C15 UNL     1      12.633  53.949  89.048  1.00  0.00     0.679 A
ATOM     21  H3  UNL     1      13.119  55.630  87.952  1.00  0.00     0.183 HD
HETATM   22  N5  UNL     1      12.809  53.252  90.196  1.00  0.00    -0.177 N
ATOM     23  H5  UNL     1      12.312  52.370  90.323  1.00  0.00     0.185 HD
BRANCH  20  24
HETATM   24  N4  UNL     1      11.835  53.481  88.123  1.00  0.00    -0.226 N
ATOM     25  H4  UNL     1      11.360  54.156  87.523  1.00  0.00     0.177 HD
BRANCH  24  26
HETATM   26  C16 UNL     1      11.579  52.094  87.892  1.00  0.00     0.144 C
BRANCH  26  27
HETATM   27  C17 UNL     1      10.960  51.896  86.540  1.00  0.00     0.030 C
HETATM   28  C18 UNL     1       9.585  52.552  86.451  1.00  0.00     0.034 C
HETATM   29  C19 UNL     1       9.602  52.999  84.984  1.00  0.00     0.168 C
HETATM   30  O4  UNL     1      10.872  53.581  84.919  1.00  0.00    -0.391 OA
HETATM   31  C20 UNL     1      11.728  52.686  85.506  1.00  0.00     0.173 C
ENDBRANCH  26  27
ENDBRANCH  24  26
ENDBRANCH  20  24
ENDBRANCH  14  16
ENDBRANCH  10  14
BRANCH   9  32
HETATM   32  O3  UNL     1      10.361  54.101  92.757  1.00  0.00    -0.359 OA
ATOM     33  H3  UNL     1       9.495  53.728  92.638  1.00  0.00     0.217 HD
ENDBRANCH   9  32
BRANCH   1  34
HETATM   34  S1  UNL     1       8.784  55.249  98.998  1.00  0.00     0.211 S
HETATM   35  O1  UNL     1       9.903  55.769  99.858  1.00  0.00    -0.211 OA
HETATM   36  O2  UNL     1       7.798  56.370  98.827  1.00  0.00    -0.211 OA
BRANCH  34  37
HETATM   37  C2  UNL     1       7.986  53.935  99.885  1.00  0.00     0.153 C
HETATM   38  C1  UNL     1       8.305  52.584  99.271  1.00  0.00     0.022 C
ENDBRANCH  34  37
ENDBRANCH   1  34
TORSDOF 8
ENDMDL