MODEL 1
REMARK VINA RESULT: -6.813753550      0.000      0.000
REMARK  6 active torsions:
REMARK  status: ('A' for Active; 'I' for Inactive)
REMARK    1  A    between atoms: N2_10  and  C8_11
REMARK    2  A    between atoms: C10_13  and  O2_14
REMARK    3  A    between atoms: C12_16  and  O3_17
REMARK    4  A    between atoms: C14_19  and  O4_20
REMARK    5  A    between atoms: C19_25  and  C20_26
REMARK    6  A    between atoms: C22_33  and  O6_34
ROOT
HETATM    1  C1  UNL     1       9.586  51.933  92.875  1.00  0.00     0.024 C
HETATM    2  C2  UNL     1      10.667  52.535  92.465  1.00  0.00    -0.033 C
HETATM    3  C3  UNL     1      10.965  52.586  91.016  1.00  0.00     0.044 C
HETATM    4  C4  UNL     1      11.915  53.309  90.395  1.00  0.00     0.072 A
HETATM    5  C5  UNL     1      12.859  54.186  90.870  1.00  0.00     0.066 A
HETATM    6  N1  UNL     1      13.631  54.616  89.847  1.00  0.00    -0.301 N
HETATM    7  C6  UNL     1      14.733  55.516  89.817  1.00  0.00     0.161 C
HETATM    8  C7  UNL     1      13.150  53.997  88.733  1.00  0.00     0.334 A
HETATM    9  O1  UNL     1      13.605  54.134  87.558  1.00  0.00    -0.246 OA
HETATM   10  N2  UNL     1      12.115  53.209  89.072  1.00  0.00    -0.262 N
HETATM   11  C17 UNL     1      13.063  54.663  92.099  1.00  0.00     0.044 C
HETATM   12  C18 UNL     1      12.277  54.360  93.353  1.00  0.00    -0.021 C
HETATM   13  C19 UNL     1      12.243  55.260  94.252  1.00  0.00     0.046 C
HETATM   14  C23 UNL     1      11.552  53.115  93.496  1.00  0.00    -0.026 C
HETATM   15  C24 UNL     1      11.651  52.427  94.594  1.00  0.00     0.025 C
ENDROOT
BRANCH  10  16
HETATM   16  C8  UNL     1      11.390  52.417  88.134  1.00  0.00     0.050 A
HETATM   17  C9  UNL     1      10.294  53.026  87.528  1.00  0.00     0.070 A
HETATM   18  C10 UNL     1       9.510  52.377  86.605  1.00  0.00     0.106 A
HETATM   19  C12 UNL     1       9.817  51.081  86.267  1.00  0.00     0.135 A
HETATM   20  C14 UNL     1      10.919  50.466  86.876  1.00  0.00     0.106 A
HETATM   21  C16 UNL     1      11.696  51.127  87.798  1.00  0.00     0.070 A
BRANCH  18  22
HETATM   22  O2  UNL     1       8.419  52.995  86.007  1.00  0.00    -0.353 OA
HETATM   23  C11 UNL     1       7.157  53.051  86.655  1.00  0.00     0.210 C
ENDBRANCH  18  22
BRANCH  19  24
HETATM   24  O3  UNL     1       9.086  50.346  85.348  1.00  0.00    -0.351 OA
HETATM   25  C13 UNL     1       9.386  50.510  83.977  1.00  0.00     0.210 C
ENDBRANCH  19  24
BRANCH  20  26
HETATM   26  O4  UNL     1      11.185  49.169  86.505  1.00  0.00    -0.353 OA
HETATM   27  C15 UNL     1      12.309  48.836  85.740  1.00  0.00     0.210 C
ENDBRANCH  20  26
ENDBRANCH  10  16
BRANCH  13  28
HETATM   28  C20 UNL     1      11.681  55.490  95.550  1.00  0.00     0.088 A
HETATM   29  N3  UNL     1      11.408  54.762  96.616  1.00  0.00    -0.305 N
HETATM   30  C21 UNL     1      10.841  55.503  97.581  1.00  0.00     0.326 A
ATOM     31  H3  UNL     1      11.604  53.764  96.697  1.00  0.00     0.171 HD
HETATM   32  O5  UNL     1      10.462  55.111  98.716  1.00  0.00    -0.247 OA
HETATM   33  N4  UNL     1      10.727  56.768  97.157  1.00  0.00    -0.287 N
HETATM   34  C22 UNL     1      11.228  56.800  95.923  1.00  0.00     0.171 A
ATOM     35  H4  UNL     1      10.333  57.552  97.677  1.00  0.00     0.172 HD
BRANCH  34  36
HETATM   36  O6  UNL     1      11.291  57.940  95.142  1.00  0.00    -0.344 OA
ATOM     37  H6  UNL     1      10.928  58.045  94.270  1.00  0.00     0.219 HD
ENDBRANCH  34  36
ENDBRANCH  13  28
TORSDOF 6
ENDMDL