MODEL 4
REMARK VINA RESULT: -6.434278283      2.573      3.712
REMARK  7 active torsions:
REMARK  status: ('A' for Active; 'I' for Inactive)
REMARK    1  A    between atoms: C5_9  and  O1_10
REMARK    2  A    between atoms: C6_12  and  O2_13
REMARK    3  A    between atoms: C7_15  and  N3_16
REMARK       I    between atoms: N4_27  and  C17_28
REMARK    4  A    between atoms: C17_28  and  C18_30
REMARK    5  A    between atoms: C18_30  and  C19_31
REMARK    6  A    between atoms: C19_31  and  C20_32
REMARK    7  A    between atoms: C20_32  and  N5_33
ROOT
HETATM    1  C1  UNL     1       8.237  54.546  89.052  1.00  0.00     0.147 C
HETATM    2  N1  UNL     1       9.212  53.692  89.576  1.00  0.00    -0.379 N
ATOM      3  H1  UNL     1       9.274  53.699  90.594  1.00  0.00     0.160 HD
HETATM    4  C2  UNL     1      10.024  52.919  89.016  1.00  0.00     0.133 C
HETATM    5  C3  UNL     1      10.148  52.714  87.564  1.00  0.00     0.084 A
HETATM    6  N2  UNL     1       9.496  53.247  86.540  1.00  0.00    -0.350 N
ATOM      7  H2  UNL     1       8.745  53.935  86.596  1.00  0.00     0.166 HD
HETATM    8  C4  UNL     1      10.012  52.709  85.395  1.00  0.00     0.080 A
HETATM    9  C5  UNL     1       9.674  52.938  84.072  1.00  0.00     0.129 A
HETATM   10  C6  UNL     1      10.316  52.296  83.035  1.00  0.00     0.128 A
HETATM   11  C7  UNL     1      11.318  51.402  83.357  1.00  0.00     0.067 A
HETATM   12  C12 UNL     1      11.652  51.175  84.686  1.00  0.00     0.046 A
HETATM   13  C13 UNL     1      11.006  51.823  85.717  1.00  0.00     0.004 A
HETATM   14  C14 UNL     1      11.089  51.830  87.093  1.00  0.00    -0.013 A
HETATM   15  C15 UNL     1      12.016  51.032  87.927  1.00  0.00     0.062 C
HETATM   16  C16 UNL     1      11.526  50.909  89.349  1.00  0.00     0.138 C
HETATM   17  N4  UNL     1      10.945  52.134  89.827  1.00  0.00    -0.302 N
HETATM   18  C17 UNL     1      11.251  52.625  91.117  1.00  0.00     0.225 C
HETATM   19  O4  UNL     1      10.721  53.697  91.503  1.00  0.00    -0.273 OA
ENDROOT
BRANCH  18  20
HETATM   20  C18 UNL     1      12.183  51.913  92.038  1.00  0.00     0.105 C
BRANCH  20  21
HETATM   21  C19 UNL     1      13.166  52.878  92.648  1.00  0.00     0.029 C
BRANCH  21  22
HETATM   22  C20 UNL     1      13.017  53.000  94.131  1.00  0.00     0.117 C
BRANCH  22  23
HETATM   23  N5  UNL     1      11.903  53.821  94.489  1.00  0.00    -0.408 N
HETATM   24  C21 UNL     1      11.166  53.402  95.632  1.00  0.00     0.143 C
HETATM   25  C22 UNL     1      11.338  54.257  96.852  1.00  0.00     0.187 C
HETATM   26  O5  UNL     1      11.493  55.595  96.598  1.00  0.00    -0.388 OA
HETATM   27  C23 UNL     1      11.215  55.964  95.303  1.00  0.00     0.187 C
HETATM   28  C24 UNL     1      12.113  55.225  94.361  1.00  0.00     0.143 C
ENDBRANCH  22  23
ENDBRANCH  21  22
ENDBRANCH  20  21
ENDBRANCH  18  20
BRANCH   9  29
HETATM   29  O1  UNL     1       8.662  53.844  83.778  1.00  0.00    -0.356 OA
ATOM     30  H1  UNL     1       8.144  53.720  82.991  1.00  0.00     0.218 HD
ENDBRANCH   9  29
BRANCH  10  31
HETATM   31  O2  UNL     1       9.948  52.556  81.723  1.00  0.00    -0.356 OA
ATOM     32  H2  UNL     1       9.983  51.863  81.073  1.00  0.00     0.218 HD
ENDBRANCH  10  31
BRANCH  11  33
HETATM   33  N3  UNL     1      11.993  50.724  82.314  1.00  0.00    -0.374 N
HETATM   34  C8  UNL     1      11.287  49.676  81.572  1.00  0.00     0.149 C
HETATM   35  C9  UNL     1      12.348  48.946  80.767  1.00  0.00     0.187 C
HETATM   36  O3  UNL     1      12.909  49.814  79.850  1.00  0.00    -0.388 OA
HETATM   37  C10 UNL     1      13.549  50.886  80.420  1.00  0.00     0.187 C
HETATM   38  C11 UNL     1      13.359  50.991  81.914  1.00  0.00     0.149 C
ENDBRANCH  11  33
TORSDOF 7
ENDMDL