MODEL 5
REMARK VINA RESULT: -7.040654961      4.195     10.477
REMARK  7 active torsions:
REMARK  status: ('A' for Active; 'I' for Inactive)
REMARK    1  A    between atoms: O1_2  and  C2_3
REMARK    2  A    between atoms: C7_8  and  N1_9
REMARK    3  A    between atoms: N1_9  and  C8_11
REMARK    4  A    between atoms: C11_16  and  N3_17
REMARK    5  A    between atoms: N3_17  and  C12_19
REMARK    6  A    between atoms: C12_19  and  C13_20
REMARK    7  A    between atoms: C13_20  and  N4_21
ROOT
HETATM    1  N1  UNL     1      11.429  53.646  88.572  1.00  0.00    -0.189 N
ATOM      2  H1  UNL     1      10.560  54.179  88.578  1.00  0.00     0.184 HD
ENDROOT
BRANCH   1   3
HETATM    3  C7  UNL     1      11.485  52.516  87.744  1.00  0.00     0.084 A
HETATM    4  C2  UNL     1      11.169  51.271  88.277  1.00  0.00     0.096 A
HETATM    5  C3  UNL     1      11.216  50.142  87.502  1.00  0.00     0.049 A
HETATM    6  C4  UNL     1      11.590  50.281  86.157  1.00  0.00    -0.011 A
HETATM    7  C5  UNL     1      11.904  51.492  85.615  1.00  0.00     0.044 A
HETATM    8  C20 UNL     1      11.717  49.247  85.094  1.00  0.00     0.074 A
HETATM    9  C6  UNL     1      11.850  52.637  86.426  1.00  0.00     0.063 A
HETATM   10  N7  UNL     1      12.263  51.362  84.249  1.00  0.00    -0.326 N
HETATM   11  C19 UNL     1      12.173  49.995  83.908  1.00  0.00     0.235 A
ATOM     12  H7  UNL     1      12.537  52.121  83.624  1.00  0.00     0.169 HD
HETATM   13  O2  UNL     1      12.448  49.509  82.752  1.00  0.00    -0.272 OA
HETATM   14  C21 UNL     1      10.366  48.614  84.803  1.00  0.00     0.050 C
HETATM   15  C24 UNL     1      12.788  48.258  85.432  1.00  0.00     0.050 C
HETATM   16  C22 UNL     1      10.360  47.241  85.433  1.00  0.00     0.169 C
HETATM   17  O3  UNL     1      11.294  46.498  84.673  1.00  0.00    -0.391 OA
HETATM   18  C23 UNL     1      12.563  46.848  85.050  1.00  0.00     0.169 C
BRANCH   4  19
HETATM   19  O1  UNL     1      10.797  51.138  89.614  1.00  0.00    -0.354 OA
HETATM   20  C1  UNL     1      11.459  50.241  90.474  1.00  0.00     0.210 C
ENDBRANCH   4  19
ENDBRANCH   1   3
BRANCH   1  21
HETATM   21  C8  UNL     1      12.369  54.059  89.314  1.00  0.00     0.684 A
HETATM   22  N2  UNL     1      13.308  54.887  88.813  1.00  0.00    -0.202 N
HETATM   23  C9  UNL     1      14.273  55.298  89.652  1.00  0.00     0.110 A
ATOM     24  H2  UNL     1      13.286  55.189  87.839  1.00  0.00     0.183 HD
HETATM   25  C10 UNL     1      14.340  54.919  90.963  1.00  0.00     0.066 A
HETATM   26  C11 UNL     1      13.368  54.076  91.435  1.00  0.00     0.118 A
HETATM   27  N6  UNL     1      12.385  53.649  90.605  1.00  0.00    -0.177 N
ATOM     28  H6  UNL     1      11.660  53.020  90.951  1.00  0.00     0.186 HD
BRANCH  26  29
HETATM   29  N3  UNL     1      13.295  53.640  92.648  1.00  0.00    -0.374 N
ATOM     30  H3  UNL     1      13.266  52.629  92.781  1.00  0.00     0.161 HD
BRANCH  29  31
HETATM   31  C12 UNL     1      13.252  54.458  93.824  1.00  0.00     0.140 C
BRANCH  31  32
HETATM   32  C13 UNL     1      11.922  55.165  93.951  1.00  0.00     0.136 C
BRANCH  32  33
HETATM   33  N4  UNL     1      11.741  55.781  95.231  1.00  0.00    -0.408 N
HETATM   34  C14 UNL     1      11.262  57.128  95.197  1.00  0.00     0.147 C
HETATM   35  C15 UNL     1       9.903  57.288  95.841  1.00  0.00     0.291 C
HETATM   36  N5  UNL     1       9.936  56.831  97.215  1.00  0.00     0.087 N
HETATM   37  C16 UNL     1       8.571  56.522  97.640  1.00  0.00     0.310 C
HETATM   38  C17 UNL     1      10.848  55.753  97.448  1.00  0.00     0.291 C
HETATM   39  C18 UNL     1      11.139  54.941  96.214  1.00  0.00     0.147 C
ENDBRANCH  32  33
ENDBRANCH  31  32
ENDBRANCH  29  31
ENDBRANCH  26  29
ENDBRANCH   1  21
TORSDOF 7
ENDMDL