MODEL 2
REMARK VINA RESULT: -5.847764323      1.953      2.953
REMARK  8 active torsions:
REMARK  status: ('A' for Active; 'I' for Inactive)
REMARK    1  A    between atoms: C2_2  and  C4_4
REMARK    2  A    between atoms: C4_4  and  N1_5
REMARK    3  A    between atoms: C4_4  and  C10_15
REMARK    4  A    between atoms: N2_8  and  S1_9
REMARK    5  A    between atoms: C10_15  and  N3_18
REMARK    6  A    between atoms: N3_18  and  C13_20
REMARK    7  A    between atoms: N6_27  and  N7_28
REMARK       I    between atoms: N7_28  and  C15_30
REMARK    8  A    between atoms: C15_30  and  C16_32
ROOT
HETATM    1  N3  UNL     1      11.073  52.256  88.849  1.00  0.00    -0.212 N
ATOM      2  H3  UNL     1      10.144  52.673  88.795  1.00  0.00     0.178 HD
ENDROOT
BRANCH   1   3
HETATM    3  C10 UNL     1      11.026  50.888  89.079  1.00  0.00     0.071 C
HETATM    4  C11 UNL     1       9.515  50.583  89.421  1.00  0.00     0.041 C
HETATM    5  C12 UNL     1      11.731  50.414  90.296  1.00  0.00     0.041 C
BRANCH   3   6
HETATM    6  C4  UNL     1      11.273  50.039  87.817  1.00  0.00     0.254 C
BRANCH   6   7
HETATM    7  C2  UNL     1      11.462  48.607  88.038  1.00  0.00     0.013 C
HETATM    8  C1  UNL     1      12.851  48.144  87.587  1.00  0.00     0.012 C
HETATM    9  C3  UNL     1      10.475  47.617  87.609  1.00  0.00     0.012 C
ENDBRANCH   6   7
BRANCH   6  10
HETATM   10  N1  UNL     1      10.685  50.562  86.656  1.00  0.00     0.098 N
HETATM   11  C5  UNL     1      11.552  50.705  85.500  1.00  0.00     0.288 C
HETATM   12  C6  UNL     1      10.954  51.867  84.683  1.00  0.00     0.137 C
HETATM   13  N2  UNL     1       9.684  51.418  84.198  1.00  0.00    -0.208 NA
HETATM   14  C8  UNL     1       8.793  50.941  85.200  1.00  0.00     0.137 C
HETATM   15  C9  UNL     1       9.455  50.006  86.202  1.00  0.00     0.288 C
BRANCH  13  16
HETATM   16  S1  UNL     1       8.957  52.490  83.081  1.00  0.00     0.207 S
HETATM   17  C7  UNL     1       7.333  51.857  82.693  1.00  0.00     0.180 C
HETATM   18  O1  UNL     1       8.784  53.828  83.785  1.00  0.00    -0.212 OA
HETATM   19  O2  UNL     1       9.796  52.646  81.854  1.00  0.00    -0.212 OA
ENDBRANCH  13  16
ENDBRANCH   6  10
ENDBRANCH   3   6
ENDBRANCH   1   3
BRANCH   1  20
HETATM   20  C13 UNL     1      12.007  53.123  88.689  1.00  0.00     0.717 A
HETATM   21  N4  UNL     1      12.574  53.487  87.528  1.00  0.00    -0.128 N
HETATM   22  N5  UNL     1      13.500  54.371  87.778  1.00  0.00    -0.260 N
ATOM     23  H4  UNL     1      12.323  53.131  86.606  1.00  0.00     0.205 HD
HETATM   24  C14 UNL     1      13.560  54.604  89.081  1.00  0.00     0.230 A
ATOM     25  H5  UNL     1      14.089  54.817  87.075  1.00  0.00     0.190 HD
HETATM   26  S2  UNL     1      14.597  55.655  89.812  1.00  0.00    -0.037 SA
HETATM   27  N6  UNL     1      12.615  53.819  89.686  1.00  0.00    -0.054 N
BRANCH  27  28
HETATM   28  N7  UNL     1      12.396  53.837  91.044  1.00  0.00    -0.246 N
HETATM   29  C15 UNL     1      13.002  53.241  92.136  1.00  0.00     0.244 C
HETATM   30  O3  UNL     1      13.977  52.484  92.064  1.00  0.00    -0.271 OA
ATOM     31  H7  UNL     1      11.604  54.424  91.307  1.00  0.00     0.191 HD
BRANCH  29  32
HETATM   32  C16 UNL     1      12.498  53.482  93.545  1.00  0.00     0.032 C
HETATM   33  C17 UNL     1      13.210  52.555  94.490  1.00  0.00     0.025 C
HETATM   34  C18 UNL     1      10.997  53.302  93.554  1.00  0.00     0.025 C
HETATM   35  C19 UNL     1      12.795  54.906  93.974  1.00  0.00     0.025 C
ENDBRANCH  29  32
ENDBRANCH  27  28
ENDBRANCH   1  20
TORSDOF 8
ENDMDL