MODEL 4
REMARK VINA RESULT: -8.019396046      2.048      3.907
REMARK  10 active torsions:
REMARK  status: ('A' for Active; 'I' for Inactive)
REMARK    1  A    between atoms: S1_2  and  C1_4
REMARK    2  A    between atoms: S1_2  and  N1_11
REMARK    3  A    between atoms: C1_4  and  C2_5
REMARK    4  A    between atoms: N1_11  and  C8_13
REMARK    5  A    between atoms: C8_13  and  C9_14
REMARK    6  A    between atoms: C9_14  and  N2_15
REMARK    7  A    between atoms: N2_15  and  C10_17
REMARK    8  A    between atoms: N4_21  and  C12_23
REMARK    9  A    between atoms: N6_32  and  C19_34
REMARK   10  A    between atoms: C21_36  and  C22_37
ROOT
HETATM    1  C10 UNL     1      12.668  54.817  88.137  1.00  0.00     0.711 A
HETATM    2  N3  UNL     1      11.753  53.863  88.298  1.00  0.00    -0.021 N
ATOM      3  H3  UNL     1      11.265  53.807  89.192  1.00  0.00     0.203 HD
HETATM    4  C11 UNL     1      11.432  52.954  87.328  1.00  0.00     0.711 A
HETATM    5  N4  UNL     1      10.502  52.151  87.435  1.00  0.00    -0.191 N
ATOM      6  H4  UNL     1      10.485  51.587  86.585  1.00  0.00     0.184 HD
HETATM    7  N5  UNL     1      12.101  53.037  86.118  1.00  0.00    -0.021 N
ATOM      8  H5  UNL     1      11.887  52.367  85.379  1.00  0.00     0.203 HD
HETATM    9  C18 UNL     1      13.009  53.968  85.908  1.00  0.00     0.711 A
HETATM   10  N6  UNL     1      13.691  54.067  84.814  1.00  0.00    -0.191 N
ATOM     11  H6  UNL     1      14.372  54.822  84.742  1.00  0.00     0.184 HD
HETATM   12  N9  UNL     1      13.302  54.872  86.912  1.00  0.00    -0.021 N
ATOM     13  H9  UNL     1      14.001  55.596  86.744  1.00  0.00     0.203 HD
ENDROOT
BRANCH  10  14
HETATM   14  C19 UNL     1      13.553  53.206  83.729  1.00  0.00     0.051 A
HETATM   15  C20 UNL     1      12.337  52.510  83.482  1.00  0.00     0.045 A
HETATM   16  C21 UNL     1      12.154  51.744  82.364  1.00  0.00     0.009 A
HETATM   17  C25 UNL     1      13.184  51.626  81.412  1.00  0.00     0.054 A
HETATM   18  N8  UNL     1      12.976  50.846  80.326  1.00  0.00    -0.365 N
HETATM   19  C29 UNL     1      14.371  52.280  81.630  1.00  0.00    -0.006 A
HETATM   20  C26 UNL     1      13.906  50.657  79.404  1.00  0.00     0.088 A
ATOM     21  H8  UNL     1      12.071  50.389  80.213  1.00  0.00     0.165 HD
HETATM   22  C27 UNL     1      15.119  51.295  79.589  1.00  0.00     0.018 A
HETATM   23  C28 UNL     1      15.358  52.109  80.702  1.00  0.00     0.015 A
HETATM   24  C30 UNL     1      14.532  53.042  82.762  1.00  0.00     0.043 A
BRANCH  16  25
HETATM   25  C22 UNL     1      10.838  51.135  81.955  1.00  0.00     0.099 C
HETATM   26  N7  UNL     1      10.362  50.316  82.908  1.00  0.00    -0.386 N
HETATM   27  C23 UNL     1       9.282  49.407  82.988  1.00  0.00     0.142 A
HETATM   28  C24 UNL     1       9.912  50.122  84.193  1.00  0.00     0.142 A
ENDBRANCH  16  25
ENDBRANCH  10  14
BRANCH   1  29
HETATM   29  N2  UNL     1      13.234  55.487  89.106  1.00  0.00    -0.203 N
ATOM     30  H2  UNL     1      13.062  56.491  89.163  1.00  0.00     0.183 HD
BRANCH  29  31
HETATM   31  C9  UNL     1      14.056  54.909  90.060  1.00  0.00     0.099 C
BRANCH  31  32
HETATM   32  C8  UNL     1      13.750  54.342  91.362  1.00  0.00     0.176 C
BRANCH  32  33
HETATM   33  N1  UNL     1      13.205  53.021  91.348  1.00  0.00    -0.315 N
ATOM     34  H1  UNL     1      13.694  52.164  91.088  1.00  0.00     0.172 HD
BRANCH  33  35
HETATM   35  S1  UNL     1      11.531  53.155  91.866  1.00  0.00     0.230 S
HETATM   36  O1  UNL     1      10.868  54.265  91.120  1.00  0.00    -0.206 OA
HETATM   37  O2  UNL     1      10.902  51.834  91.401  1.00  0.00    -0.206 OA
BRANCH  35  38
HETATM   38  C1  UNL     1      11.388  53.270  93.606  1.00  0.00     0.201 C
BRANCH  38  39
HETATM   39  C2  UNL     1      11.034  54.633  94.011  1.00  0.00    -0.043 A
HETATM   40  C3  UNL     1      11.941  55.631  94.109  1.00  0.00     0.008 A
HETATM   41  C4  UNL     1      11.564  56.915  94.520  1.00  0.00     0.001 A
HETATM   42  C5  UNL     1      10.226  57.135  94.823  1.00  0.00     0.000 A
HETATM   43  C6  UNL     1       9.277  56.151  94.737  1.00  0.00     0.001 A
HETATM   44  C7  UNL     1       9.698  54.890  94.326  1.00  0.00     0.008 A
ENDBRANCH  38  39
ENDBRANCH  35  38
ENDBRANCH  33  35
ENDBRANCH  32  33
ENDBRANCH  31  32
ENDBRANCH  29  31
ENDBRANCH   1  29
BRANCH   5  45
HETATM   45  C12 UNL     1       9.492  51.716  88.231  1.00  0.00     0.049 A
HETATM   46  C13 UNL     1       8.499  52.507  88.766  1.00  0.00     0.030 A
HETATM   47  C14 UNL     1       7.517  51.912  89.556  1.00  0.00     0.002 A
HETATM   48  C15 UNL     1       7.498  50.577  89.818  1.00  0.00     0.000 A
HETATM   49  C16 UNL     1       8.514  49.780  89.268  1.00  0.00     0.002 A
HETATM   50  C17 UNL     1       9.478  50.323  88.504  1.00  0.00     0.030 A
ENDBRANCH   5  45
TORSDOF 10
ENDMDL