MODEL 1
REMARK VINA RESULT: -7.806832268      0.000      0.000
REMARK  13 active torsions:
REMARK  status: ('A' for Active; 'I' for Inactive)
REMARK    1  A    between atoms: C2_2  and  S1_4
REMARK    2  A    between atoms: S1_4  and  C4_7
REMARK    3  A    between atoms: C9_12  and  N1_13
REMARK    4  A    between atoms: N1_13  and  C10_15
REMARK    5  A    between atoms: C11_18  and  N3_19
REMARK    6  A    between atoms: N3_19  and  C12_21
REMARK    7  A    between atoms: C12_21  and  C13_22
REMARK    8  A    between atoms: C13_22  and  C14_23
REMARK    9  A    between atoms: C14_23  and  N4_24
REMARK   10  A    between atoms: C17_29  and  N6_30
REMARK   11  A    between atoms: N6_30  and  C18_32
REMARK   12  A    between atoms: C23_41  and  C24_42
REMARK   13  A    between atoms: C24_42  and  C25_43
ROOT
HETATM    1  C10 UNL     1      11.314  52.736  86.963  1.00  0.00     0.711 A
HETATM    2  N2  UNL     1      11.149  51.461  87.311  1.00  0.00    -0.021 N
ATOM      3  H2  UNL     1      11.002  51.209  88.288  1.00  0.00     0.203 HD
HETATM    4  C11 UNL     1      11.179  50.499  86.349  1.00  0.00     0.707 A
HETATM    5  N5  UNL     1      11.371  50.827  85.063  1.00  0.00    -0.021 N
ATOM      6  H5  UNL     1      11.391  50.089  84.359  1.00  0.00     0.203 HD
HETATM    7  C17 UNL     1      11.538  52.098  84.681  1.00  0.00     0.711 A
HETATM    8  N10 UNL     1      11.506  53.031  85.639  1.00  0.00    -0.021 N
ATOM      9  H10 UNL     1      11.632  54.008  85.372  1.00  0.00     0.203 HD
ENDROOT
BRANCH   7  10
HETATM   10  N6  UNL     1      11.716  52.468  83.440  1.00  0.00    -0.190 N
ATOM     11  H6  UNL     1      10.925  52.799  82.887  1.00  0.00     0.184 HD
BRANCH  10  12
HETATM   12  C18 UNL     1      12.994  52.408  82.870  1.00  0.00     0.063 A
HETATM   13  C19 UNL     1      14.032  53.211  83.324  1.00  0.00     0.031 A
HETATM   14  C20 UNL     1      15.282  53.199  82.762  1.00  0.00     0.005 A
HETATM   15  C21 UNL     1      15.518  52.356  81.703  1.00  0.00     0.032 A
HETATM   16  C22 UNL     1      14.527  51.543  81.219  1.00  0.00     0.062 A
HETATM   17  N7  UNL     1      14.495  50.645  80.197  1.00  0.00    -0.300 N
HETATM   18  C30 UNL     1      13.265  51.559  81.792  1.00  0.00     0.043 A
HETATM   19  N8  UNL     1      13.304  50.127  80.130  1.00  0.00    -0.303 N
ATOM     20  H7  UNL     1      15.277  50.416  79.585  1.00  0.00     0.187 HD
HETATM   21  C23 UNL     1      12.489  50.664  81.112  1.00  0.00     0.044 A
ATOM     22  H8  UNL     1      13.012  49.425  79.450  1.00  0.00     0.186 HD
BRANCH  21  23
HETATM   23  C24 UNL     1      11.112  50.205  81.330  1.00  0.00     0.099 C
BRANCH  23  24
HETATM   24  C25 UNL     1      10.106  50.790  80.420  1.00  0.00    -0.037 A
HETATM   25  C26 UNL     1       9.981  50.344  79.107  1.00  0.00     0.010 A
HETATM   26  C27 UNL     1       9.063  50.951  78.293  1.00  0.00     0.018 A
HETATM   27  C28 UNL     1       8.263  51.983  78.722  1.00  0.00     0.087 A
HETATM   28  N9  UNL     1       8.398  52.400  79.991  1.00  0.00    -0.375 N
HETATM   29  C29 UNL     1       9.298  51.811  80.806  1.00  0.00     0.095 A
ATOM     30  H9  UNL     1       7.820  53.164  80.340  1.00  0.00     0.164 HD
ENDBRANCH  23  24
ENDBRANCH  21  23
ENDBRANCH  10  12
ENDBRANCH   7  10
BRANCH   4  31
HETATM   31  N3  UNL     1      11.021  49.242  86.656  1.00  0.00    -0.225 N
ATOM     32  H3  UNL     1      10.501  48.649  86.009  1.00  0.00     0.177 HD
BRANCH  31  33
HETATM   33  C12 UNL     1      11.536  48.648  87.850  1.00  0.00     0.140 C
BRANCH  33  34
HETATM   34  C13 UNL     1      12.991  48.279  87.591  1.00  0.00     0.050 C
BRANCH  34  35
HETATM   35  C14 UNL     1      13.033  47.244  86.489  1.00  0.00     0.273 C
BRANCH  35  36
HETATM   36  N4  UNL     1      14.332  47.075  85.926  1.00  0.00     0.080 N
HETATM   37  C15 UNL     1      14.543  45.802  85.307  1.00  0.00     0.309 C
HETATM   38  C16 UNL     1      15.405  47.462  86.784  1.00  0.00     0.309 C
ENDBRANCH  35  36
ENDBRANCH  34  35
ENDBRANCH  33  34
ENDBRANCH  31  33
ENDBRANCH   4  31
BRANCH   1  39
HETATM   39  N1  UNL     1      11.327  53.710  87.763  1.00  0.00    -0.189 N
ATOM     40  H1  UNL     1      10.506  54.315  87.724  1.00  0.00     0.184 HD
BRANCH  39  41
HETATM   41  C9  UNL     1      12.295  54.084  88.694  1.00  0.00     0.070 A
HETATM   42  C4  UNL     1      12.093  53.974  90.040  1.00  0.00     0.086 A
HETATM   43  C5  UNL     1      13.131  54.445  90.873  1.00  0.00     0.026 A
HETATM   44  C6  UNL     1      14.290  54.987  90.401  1.00  0.00     0.002 A
HETATM   45  C7  UNL     1      14.449  55.077  89.041  1.00  0.00     0.002 A
HETATM   46  C8  UNL     1      13.485  54.642  88.183  1.00  0.00     0.031 A
BRANCH  42  47
HETATM   47  S1  UNL     1      10.716  53.305  90.840  1.00  0.00     0.181 S
HETATM   48  O1  UNL     1      10.597  51.857  90.347  1.00  0.00    -0.222 OA
HETATM   49  O2  UNL     1       9.450  54.018  90.379  1.00  0.00    -0.222 OA
BRANCH  47  50
HETATM   50  C2  UNL     1      10.717  53.357  92.588  1.00  0.00     0.105 C
HETATM   51  C1  UNL     1       9.571  54.375  92.997  1.00  0.00     0.026 C
HETATM   52  C3  UNL     1      10.273  52.091  93.215  1.00  0.00     0.026 C
ENDBRANCH  47  50
ENDBRANCH  42  47
ENDBRANCH  39  41
ENDBRANCH   1  39
TORSDOF 13
ENDMDL