MODEL 3
REMARK VINA RESULT: -8.502288742      2.040      3.035
REMARK  13 active torsions:
REMARK  status: ('A' for Active; 'I' for Inactive)
REMARK    1  A    between atoms: O1_2  and  C2_3
REMARK    2  A    between atoms: C7_8  and  C8_9
REMARK    3  A    between atoms: C8_9  and  N1_10
REMARK    4  A    between atoms: N1_10  and  C9_12
REMARK    5  A    between atoms: C10_15  and  N3_16
REMARK    6  A    between atoms: N3_16  and  C11_18
REMARK    7  A    between atoms: C11_18  and  C12_19
REMARK    8  A    between atoms: C14_21  and  S1_22
REMARK    9  A    between atoms: S1_22  and  N4_25
REMARK   10  A    between atoms: N4_25  and  C15_27
REMARK   11  A    between atoms: C15_27  and  C16_28
REMARK   12  A    between atoms: C19_31  and  C20_32
REMARK   13  A    between atoms: C20_32  and  N5_33
ROOT
HETATM    1  C12 UNL     1      10.171  53.853  88.893  1.00  0.00    -0.018 A
HETATM    2  C13 UNL     1      10.138  53.576  87.548  1.00  0.00     0.035 A
HETATM    3  C14 UNL     1       8.977  53.199  86.895  1.00  0.00     0.080 A
HETATM    4  C23 UNL     1       7.816  53.115  87.655  1.00  0.00     0.027 A
HETATM    5  C24 UNL     1       7.831  53.384  88.995  1.00  0.00     0.025 A
HETATM    6  C25 UNL     1       8.975  53.750  89.649  1.00  0.00     0.052 A
HETATM    7  C26 UNL     1       8.966  54.033  91.055  1.00  0.00     0.100 C
HETATM    8  N6  UNL     1       8.966  54.284  92.187  1.00  0.00    -0.191 NA
ENDROOT
BRANCH   1   9
HETATM    9  C11 UNL     1      11.362  54.113  89.730  1.00  0.00     0.178 C
BRANCH   9  10
HETATM   10  N3  UNL     1      12.219  52.949  89.930  1.00  0.00    -0.222 N
ATOM     11  H3  UNL     1      12.517  52.361  89.152  1.00  0.00     0.178 HD
BRANCH  10  12
HETATM   12  C10 UNL     1      12.591  52.695  91.190  1.00  0.00     0.680 A
HETATM   13  N2  UNL     1      12.369  53.597  92.156  1.00  0.00    -0.176 N
HETATM   14  C9  UNL     1      12.734  53.409  93.452  1.00  0.00     0.133 A
ATOM     15  H2  UNL     1      11.903  54.469  91.906  1.00  0.00     0.186 HD
HETATM   16  C32 UNL     1      13.384  52.193  93.760  1.00  0.00     0.036 A
HETATM   17  C27 UNL     1      13.622  51.259  92.788  1.00  0.00     0.063 A
HETATM   18  C31 UNL     1      13.788  51.934  95.065  1.00  0.00     0.017 A
HETATM   19  N7  UNL     1      13.202  51.564  91.522  1.00  0.00    -0.191 N
HETATM   20  C28 UNL     1      14.263  50.040  93.039  1.00  0.00     0.031 A
ATOM     21  H7  UNL     1      13.371  50.879  90.785  1.00  0.00     0.184 HD
HETATM   22  C29 UNL     1      14.655  49.801  94.341  1.00  0.00     0.002 A
HETATM   23  C30 UNL     1      14.430  50.720  95.347  1.00  0.00     0.001 A
BRANCH  14  24
HETATM   24  N1  UNL     1      12.489  54.186  94.428  1.00  0.00    -0.350 N
ATOM     25  H1  UNL     1      13.279  54.687  94.833  1.00  0.00     0.166 HD
BRANCH  24  26
HETATM   26  C8  UNL     1      11.231  54.415  94.995  1.00  0.00     0.104 C
BRANCH  26  27
HETATM   27  C7  UNL     1      10.791  55.833  95.029  1.00  0.00     0.013 A
HETATM   28  C2  UNL     1       9.484  56.046  95.520  1.00  0.00     0.079 A
HETATM   29  C3  UNL     1       8.952  57.315  95.602  1.00  0.00     0.037 A
HETATM   30  C4  UNL     1       9.683  58.404  95.207  1.00  0.00     0.003 A
HETATM   31  C5  UNL     1      10.974  58.220  94.722  1.00  0.00     0.001 A
HETATM   32  C6  UNL     1      11.497  56.927  94.645  1.00  0.00     0.015 A
BRANCH  28  33
HETATM   33  O1  UNL     1       8.803  54.932  95.900  1.00  0.00    -0.355 OA
HETATM   34  C1  UNL     1       8.047  54.618  97.003  1.00  0.00     0.210 C
ENDBRANCH  28  33
ENDBRANCH  26  27
ENDBRANCH  24  26
ENDBRANCH  14  24
ENDBRANCH  10  12
ENDBRANCH   9  10
ENDBRANCH   1   9
BRANCH   3  35
HETATM   35  S1  UNL     1       8.951  52.677  85.245  1.00  0.00     0.259 S
HETATM   36  O2  UNL     1       8.749  53.833  84.301  1.00  0.00    -0.201 OA
HETATM   37  O3  UNL     1       7.946  51.585  84.986  1.00  0.00    -0.201 OA
BRANCH  35  38
HETATM   38  N4  UNL     1      10.513  52.003  84.842  1.00  0.00    -0.311 N
ATOM     39  H4  UNL     1      10.691  51.002  84.753  1.00  0.00     0.172 HD
BRANCH  38  40
HETATM   40  C15 UNL     1      11.502  52.995  84.653  1.00  0.00     0.170 C
BRANCH  40  41
HETATM   41  C16 UNL     1      12.572  52.636  83.691  1.00  0.00    -0.040 A
HETATM   42  C17 UNL     1      12.604  51.620  82.796  1.00  0.00     0.009 A
HETATM   43  C18 UNL     1      13.666  51.406  81.917  1.00  0.00     0.009 A
HETATM   44  C19 UNL     1      14.762  52.232  81.903  1.00  0.00    -0.033 A
HETATM   45  C21 UNL     1      14.752  53.298  82.828  1.00  0.00     0.009 A
HETATM   46  C22 UNL     1      13.712  53.486  83.673  1.00  0.00     0.009 A
BRANCH  44  47
HETATM   47  C20 UNL     1      15.917  52.107  80.983  1.00  0.00     0.268 C
BRANCH  47  48
HETATM   48  N5  UNL     1      15.587  51.524  79.707  1.00  0.00    -0.075 N
ATOM     49  H53 UNL     1      14.676  51.065  79.747  1.00  0.00     0.274 HD
ATOM     50  H52 UNL     1      15.382  52.251  79.022  1.00  0.00     0.274 HD
ATOM     51  H51 UNL     1      16.295  50.883  79.350  1.00  0.00     0.274 HD
ENDBRANCH  47  48
ENDBRANCH  44  47
ENDBRANCH  40  41
ENDBRANCH  38  40
ENDBRANCH  35  38
ENDBRANCH   3  35
TORSDOF 13
ENDMDL