MODEL 1
REMARK VINA RESULT: -7.752272505      0.000      0.000
REMARK  16 active torsions:
REMARK  status: ('A' for Active; 'I' for Inactive)
REMARK    1  A    between atoms: C2_2  and  C3_3
REMARK    2  A    between atoms: C3_3  and  C4_4
REMARK    3  A    between atoms: C4_4  and  N1_5
REMARK    4  A    between atoms: N1_5  and  C5_7
REMARK    5  A    between atoms: C6_10  and  N3_11
REMARK    6  A    between atoms: N3_11  and  C7_13
REMARK    7  A    between atoms: C9_15  and  O1_16
REMARK    8  A    between atoms: O1_16  and  C10_17
REMARK    9  A    between atoms: C17_24  and  C18_25
REMARK   10  A    between atoms: C18_25  and  O2_26
REMARK   11  A    between atoms: C18_25  and  N4_28
REMARK   12  A    between atoms: N5_31  and  C21_32
REMARK   13  A    between atoms: C21_32  and  C22_33
REMARK   14  A    between atoms: C22_33  and  O3_34
REMARK   15  A    between atoms: C26_41  and  N7_42
REMARK   16  A    between atoms: N7_42  and  C27_44
ROOT
HETATM    1  C7  UNL     1      12.976  53.895  91.502  1.00  0.00     0.052 A
HETATM    2  C8  UNL     1      12.440  54.966  92.225  1.00  0.00     0.066 A
HETATM    3  C9  UNL     1      12.306  54.894  93.585  1.00  0.00     0.072 A
HETATM    4  C16 UNL     1      12.726  53.709  94.203  1.00  0.00     0.052 A
HETATM    5  C17 UNL     1      13.253  52.630  93.571  1.00  0.00     0.019 A
HETATM    6  C25 UNL     1      13.370  52.759  92.173  1.00  0.00     0.046 A
ENDROOT
BRANCH   1   7
HETATM    7  N3  UNL     1      13.122  53.947  90.092  1.00  0.00    -0.191 N
ATOM      8  H3  UNL     1      14.038  54.207  89.725  1.00  0.00     0.184 HD
BRANCH   7   9
HETATM    9  C6  UNL     1      12.195  53.694  89.243  1.00  0.00     0.711 A
HETATM   10  N2  UNL     1      12.492  53.742  87.911  1.00  0.00    -0.021 N
HETATM   11  C5  UNL     1      11.599  53.493  86.957  1.00  0.00     0.707 A
ATOM     12  H2  UNL     1      13.445  53.982  87.634  1.00  0.00     0.203 HD
HETATM   13  N8  UNL     1      10.314  53.170  87.317  1.00  0.00    -0.022 N
HETATM   14  C26 UNL     1       9.976  53.111  88.609  1.00  0.00     0.707 A
ATOM     15  H8  UNL     1       9.616  52.975  86.598  1.00  0.00     0.203 HD
HETATM   16  N6  UNL     1      10.933  53.376  89.547  1.00  0.00    -0.021 N
ATOM     17  H6  UNL     1      10.670  53.329  90.531  1.00  0.00     0.203 HD
BRANCH  11  18
HETATM   18  N1  UNL     1      11.836  53.535  85.694  1.00  0.00    -0.225 N
ATOM     19  H1  UNL     1      11.039  53.340  85.088  1.00  0.00     0.177 HD
BRANCH  18  20
HETATM   20  C4  UNL     1      13.056  53.816  85.030  1.00  0.00     0.138 C
BRANCH  20  21
HETATM   21  C3  UNL     1      13.188  53.085  83.700  1.00  0.00     0.020 C
BRANCH  21  22
HETATM   22  C2  UNL     1      14.543  53.485  83.113  1.00  0.00    -0.003 C
HETATM   23  C1  UNL     1      14.999  52.544  82.035  1.00  0.00     0.005 C
ENDBRANCH  21  22
ENDBRANCH  20  21
ENDBRANCH  18  20
ENDBRANCH  11  18
BRANCH  14  24
HETATM   24  N7  UNL     1       8.785  52.814  88.963  1.00  0.00    -0.220 N
ATOM     25  H7  UNL     1       8.634  52.026  89.592  1.00  0.00     0.178 HD
BRANCH  24  26
HETATM   26  C27 UNL     1       7.655  53.566  88.494  1.00  0.00     0.099 C
HETATM   27  C28 UNL     1       7.818  55.049  88.820  1.00  0.00     0.026 C
HETATM   28  C29 UNL     1       6.504  55.770  88.666  1.00  0.00     0.002 C
HETATM   29  C30 UNL     1       5.549  55.299  89.719  1.00  0.00     0.000 C
HETATM   30  C31 UNL     1       5.909  53.925  90.249  1.00  0.00     0.002 C
HETATM   31  C32 UNL     1       6.383  53.026  89.122  1.00  0.00     0.026 C
ENDBRANCH  24  26
ENDBRANCH  14  24
ENDBRANCH   7   9
ENDBRANCH   1   7
BRANCH   3  32
HETATM   32  O1  UNL     1      11.786  55.926  94.305  1.00  0.00    -0.346 OA
BRANCH  32  33
HETATM   33  C10 UNL     1      10.525  56.467  94.337  1.00  0.00     0.129 C
HETATM   34  C11 UNL     1      10.534  57.915  94.789  1.00  0.00     0.032 C
HETATM   35  C12 UNL     1       9.577  58.186  95.894  1.00  0.00     0.002 C
HETATM   36  C13 UNL     1       8.165  57.710  95.610  1.00  0.00     0.000 C
HETATM   37  C14 UNL     1       8.175  56.335  94.973  1.00  0.00     0.002 C
HETATM   38  C15 UNL     1       9.556  55.712  95.218  1.00  0.00     0.032 C
ENDBRANCH  32  33
ENDBRANCH   3  32
BRANCH   5  39
HETATM   39  C18 UNL     1      13.676  51.387  94.171  1.00  0.00     0.148 C
BRANCH  39  40
HETATM   40  O2  UNL     1      13.346  50.321  93.484  1.00  0.00    -0.346 OA
ATOM     41  H2  UNL     1      14.060  49.709  93.351  1.00  0.00     0.219 HD
ENDBRANCH  39  40
BRANCH  39  42
HETATM   42  N4  UNL     1      14.360  51.101  95.335  1.00  0.00    -0.358 N
HETATM   43  C19 UNL     1      15.661  50.422  95.241  1.00  0.00     0.145 C
HETATM   44  C20 UNL     1      16.644  51.308  96.027  1.00  0.00     0.141 C
HETATM   45  N5  UNL     1      16.258  51.267  97.390  1.00  0.00    -0.388 N
HETATM   46  C23 UNL     1      14.951  50.797  97.666  1.00  0.00     0.141 C
HETATM   47  C24 UNL     1      13.932  51.380  96.663  1.00  0.00     0.145 C
BRANCH  45  48
HETATM   48  C21 UNL     1      17.291  50.899  98.267  1.00  0.00     0.084 C
BRANCH  48  49
HETATM   49  C22 UNL     1      18.068  52.019  98.873  1.00  0.00     0.208 C
BRANCH  49  50
HETATM   50  O3  UNL     1      19.223  52.324  98.208  1.00  0.00    -0.396 OA
ATOM     51  H3  UNL     1      19.980  51.827  98.494  1.00  0.00     0.209 HD
ENDBRANCH  49  50
ENDBRANCH  48  49
ENDBRANCH  45  48
ENDBRANCH  39  42
ENDBRANCH   5  39
TORSDOF 16
ENDMDL