MODEL 5
REMARK VINA RESULT: -6.346909722      1.339      2.387
REMARK  12 active torsions:
REMARK  status: ('A' for Active; 'I' for Inactive)
REMARK    1  A    between atoms: C2_2  and  C3_3
REMARK    2  A    between atoms: C3_3  and  C4_4
REMARK    3  A    between atoms: C5_7  and  O1_8
REMARK    4  A    between atoms: C13_20  and  C14_21
REMARK    5  A    between atoms: C14_21  and  C15_22
REMARK    6  A    between atoms: C25_37  and  C26_38
REMARK    7  A    between atoms: C26_38  and  C27_39
REMARK    8  A    between atoms: C27_39  and  C28_40
REMARK    9  A    between atoms: C28_40  and  C29_41
REMARK   10  A    between atoms: C29_41  and  C30_42
REMARK   11  A    between atoms: C30_42  and  C31_43
REMARK   12  A    between atoms: C31_43  and  N4_44
ROOT
HETATM    1  C4  UNL     1      10.329  52.387  86.186  1.00  0.00     0.063 C
HETATM    2  N1  UNL     1      11.493  52.306  86.992  1.00  0.00    -0.340 N
ATOM      3  H1  UNL     1      12.261  51.830  86.518  1.00  0.00     0.167 HD
HETATM    4  C5  UNL     1      11.839  52.724  88.280  1.00  0.00     0.120 C
HETATM    5  C6  UNL     1      11.949  54.098  88.785  1.00  0.00     0.073 C
HETATM    6  C7  UNL     1      13.106  54.886  88.144  1.00  0.00     0.013 C
HETATM    7  C8  UNL     1      14.434  54.588  88.784  1.00  0.00     0.001 C
HETATM    8  C9  UNL     1      14.380  55.230  90.149  1.00  0.00     0.001 C
HETATM    9  C10 UNL     1      12.969  55.479  90.606  1.00  0.00     0.015 C
HETATM   10  C11 UNL     1      12.005  54.329  90.225  1.00  0.00     0.089 C
HETATM   11  C12 UNL     1      12.296  53.274  91.171  1.00  0.00     0.223 C
HETATM   12  O2  UNL     1      13.497  52.878  91.271  1.00  0.00    -0.273 OA
HETATM   13  N2  UNL     1      11.393  52.600  92.028  1.00  0.00    -0.347 N
ATOM     14  H2  UNL     1      11.592  51.625  92.249  1.00  0.00     0.163 HD
HETATM   15  C13 UNL     1      10.221  53.184  92.607  1.00  0.00     0.188 C
HETATM   16  C21 UNL     1       9.160  52.142  92.667  1.00  0.00     0.282 C
HETATM   17  O3  UNL     1       9.496  51.097  93.289  1.00  0.00    -0.263 OA
HETATM   18  O4  UNL     1       7.962  52.309  92.110  1.00  0.00    -0.305 OA
HETATM   19  C22 UNL     1       7.523  52.516  90.795  1.00  0.00     0.220 C
HETATM   20  C23 UNL     1       7.912  53.877  90.377  1.00  0.00     0.050 C
HETATM   21  C24 UNL     1       7.928  51.392  89.946  1.00  0.00     0.251 C
HETATM   22  O5  UNL     1       7.712  50.258  90.536  1.00  0.00    -0.270 OA
HETATM   23  N3  UNL     1       8.482  51.322  88.672  1.00  0.00    -0.325 N
ATOM     24  H3  UNL     1       9.357  50.799  88.639  1.00  0.00     0.169 HD
HETATM   25  C25 UNL     1       8.077  51.831  87.401  1.00  0.00     0.064 C
HETATM   26  C32 UNL     1       9.062  52.816  86.806  1.00  0.00     0.216 C
HETATM   27  O6  UNL     1       8.713  53.981  86.883  1.00  0.00    -0.284 OA
ENDROOT
BRANCH  25  28
HETATM   28  C26 UNL     1       6.654  52.235  87.218  1.00  0.00     0.061 C
BRANCH  28  29
HETATM   29  C27 UNL     1       6.058  51.647  85.973  1.00  0.00     0.006 C
BRANCH  29  30
HETATM   30  C28 UNL     1       5.941  50.135  86.042  1.00  0.00     0.000 C
BRANCH  30  31
HETATM   31  C29 UNL     1       5.093  49.679  87.160  1.00  0.00     0.002 C
BRANCH  31  32
HETATM   32  C30 UNL     1       5.686  48.658  88.075  1.00  0.00     0.027 C
BRANCH  32  33
HETATM   33  C31 UNL     1       7.004  48.124  87.664  1.00  0.00     0.229 C
BRANCH  33  34
HETATM   34  N4  UNL     1       7.908  47.816  88.734  1.00  0.00    -0.079 N
ATOM     35  H43 UNL     1       7.612  46.962  89.206  1.00  0.00     0.274 HD
ATOM     36  H42 UNL     1       8.805  47.513  88.355  1.00  0.00     0.274 HD
ATOM     37  H41 UNL     1       8.052  48.560  89.417  1.00  0.00     0.274 HD
ENDBRANCH  33  34
ENDBRANCH  32  33
ENDBRANCH  31  32
ENDBRANCH  30  31
ENDBRANCH  29  30
ENDBRANCH  28  29
ENDBRANCH  25  28
BRANCH   1  38
HETATM   38  C3  UNL     1      10.530  52.942  84.797  1.00  0.00     0.061 C
BRANCH  38  39
HETATM   39  C2  UNL     1      11.852  53.494  84.462  1.00  0.00     0.002 C
HETATM   40  C1  UNL     1      12.511  52.477  83.503  1.00  0.00     0.005 C
ENDBRANCH  38  39
ENDBRANCH   1  38
BRANCH   4  41
HETATM   41  O1  UNL     1      12.083  51.734  89.091  1.00  0.00    -0.349 OA
ATOM     42  H1  UNL     1      11.299  51.375  89.489  1.00  0.00     0.219 HD
ENDBRANCH   4  41
BRANCH  15  43
HETATM   43  C14 UNL     1      10.428  53.598  94.052  1.00  0.00     0.074 C
BRANCH  43  44
HETATM   44  C15 UNL     1      10.497  55.025  94.299  1.00  0.00    -0.056 A
HETATM   45  C16 UNL     1      11.673  55.717  94.146  1.00  0.00     0.007 A
HETATM   46  C17 UNL     1      11.756  57.089  94.382  1.00  0.00     0.001 A
HETATM   47  C18 UNL     1      10.651  57.773  94.772  1.00  0.00     0.000 A
HETATM   48  C19 UNL     1       9.461  57.113  94.933  1.00  0.00     0.001 A
HETATM   49  C20 UNL     1       9.384  55.735  94.695  1.00  0.00     0.007 A
ENDBRANCH  43  44
ENDBRANCH  15  43
TORSDOF 12
ENDMDL