MODEL 2
REMARK VINA RESULT: -7.426712148      2.623     10.078
REMARK  11 active torsions:
REMARK  status: ('A' for Active; 'I' for Inactive)
REMARK    1  A    between atoms: C2_2  and  N1_4
REMARK       I    between atoms: N2_7  and  C6_8
REMARK    2  A    between atoms: C6_8  and  C7_10
REMARK    3  A    between atoms: C7_10  and  C8_11
REMARK    4  A    between atoms: C8_11  and  C9_12
REMARK    5  A    between atoms: C9_12  and  C10_13
REMARK    6  A    between atoms: C10_13  and  C11_14
REMARK    7  A    between atoms: C11_14  and  C12_15
REMARK    8  A    between atoms: C14_20  and  C15_21
REMARK    9  A    between atoms: C15_21  and  O3_22
REMARK   10  A    between atoms: C19_31  and  C20_32
REMARK   11  A    between atoms: C20_32  and  C21_33
ROOT
HETATM    1  C12 UNL     1      11.137  52.187  87.391  1.00  0.00     0.176 C
HETATM    2  N3  UNL     1      10.252  51.547  88.341  1.00  0.00    -0.346 N
ATOM      3  H3  UNL     1       9.346  51.988  88.500  1.00  0.00     0.163 HD
HETATM    4  C13 UNL     1      10.529  50.372  89.067  1.00  0.00     0.243 C
HETATM    5  O2  UNL     1      10.139  50.221  90.277  1.00  0.00    -0.271 OA
HETATM    6  C14 UNL     1      11.283  49.213  88.517  1.00  0.00     0.200 C
HETATM    7  N4  UNL     1      10.382  48.090  88.361  1.00  0.00    -0.337 N
ATOM      8  H4  UNL     1      10.215  47.487  89.166  1.00  0.00     0.164 HD
HETATM    9  C16 UNL     1       9.721  47.785  87.146  1.00  0.00     0.280 C
HETATM   10  O4  UNL     1       9.648  46.585  86.795  1.00  0.00    -0.260 OA
HETATM   11  S1  UNL     1       9.001  49.027  86.117  1.00  0.00    -0.069 SA
HETATM   12  C17 UNL     1       9.366  48.829  84.364  1.00  0.00     0.086 C
HETATM   13  C18 UNL     1       9.645  50.207  83.803  1.00  0.00     0.036 C
HETATM   14  C19 UNL     1      10.719  50.864  84.597  1.00  0.00     0.085 C
HETATM   15  N5  UNL     1      10.279  52.187  84.966  1.00  0.00    -0.355 N
ATOM     16  H5  UNL     1       9.971  52.809  84.219  1.00  0.00     0.162 HD
HETATM   17  C27 UNL     1      10.246  52.680  86.288  1.00  0.00     0.240 C
HETATM   18  O5  UNL     1       9.434  53.600  86.634  1.00  0.00    -0.271 OA
ENDROOT
BRANCH   1  19
HETATM   19  C11 UNL     1      11.649  53.477  88.050  1.00  0.00     0.035 C
BRANCH  19  20
HETATM   20  C10 UNL     1      12.882  53.980  87.367  1.00  0.00     0.002 C
BRANCH  20  21
HETATM   21  C9  UNL     1      13.639  54.976  88.207  1.00  0.00     0.001 C
BRANCH  21  22
HETATM   22  C8  UNL     1      13.024  55.123  89.583  1.00  0.00     0.009 C
BRANCH  22  23
HETATM   23  C7  UNL     1      13.945  54.613  90.666  1.00  0.00     0.103 C
BRANCH  23  24
HETATM   24  C6  UNL     1      13.255  53.610  91.495  1.00  0.00     0.220 C
HETATM   25  N2  UNL     1      12.771  53.923  92.785  1.00  0.00    -0.346 N
HETATM   26  C5  UNL     1      12.957  55.244  93.313  1.00  0.00     0.146 C
HETATM   27  C28 UNL     1      12.093  52.939  93.584  1.00  0.00     0.169 C
HETATM   28  C4  UNL     1      11.687  55.699  93.951  1.00  0.00     0.142 C
HETATM   29  N1  UNL     1      11.228  54.809  94.948  1.00  0.00    -0.386 N
HETATM   30  C29 UNL     1      11.637  53.464  94.902  1.00  0.00     0.078 C
HETATM   31  O1  UNL     1      13.103  52.433  91.014  1.00  0.00    -0.273 OA
BRANCH  29  32
HETATM   32  C2  UNL     1      10.003  55.125  95.583  1.00  0.00     0.075 C
HETATM   33  C1  UNL     1      10.139  55.563  97.013  1.00  0.00     0.032 C
HETATM   34  C3  UNL     1       9.320  56.207  94.765  1.00  0.00     0.032 C
ENDBRANCH  29  32
ENDBRANCH  23  24
ENDBRANCH  22  23
ENDBRANCH  21  22
ENDBRANCH  20  21
ENDBRANCH  19  20
ENDBRANCH   1  19
BRANCH   6  35
HETATM   35  C15 UNL     1      12.340  48.744  89.533  1.00  0.00     0.199 C
BRANCH  35  36
HETATM   36  O3  UNL     1      13.125  49.771  89.993  1.00  0.00    -0.398 OA
ATOM     37  H3  UNL     1      12.745  50.215  90.744  1.00  0.00     0.209 HD
ENDBRANCH  35  36
ENDBRANCH   6  35
BRANCH  14  38
HETATM   38  C20 UNL     1      12.074  50.822  84.074  1.00  0.00     0.029 C
BRANCH  38  39
HETATM   39  C21 UNL     1      12.607  51.904  83.213  1.00  0.00    -0.013 C
HETATM   40  C22 UNL     1      13.548  51.174  82.233  1.00  0.00     0.005 C
HETATM   41  C23 UNL     1      14.304  52.112  81.364  1.00  0.00     0.000 C
HETATM   42  C24 UNL     1      15.262  52.854  82.311  1.00  0.00     0.000 C
HETATM   43  C25 UNL     1      14.381  53.717  83.139  1.00  0.00     0.000 C
HETATM   44  C26 UNL     1      13.321  52.992  83.929  1.00  0.00     0.005 C
ENDBRANCH  38  39
ENDBRANCH  14  38
TORSDOF 11
ENDMDL