MODEL 1
REMARK VINA RESULT: -7.834608805      0.000      0.000
REMARK  12 active torsions:
REMARK  status: ('A' for Active; 'I' for Inactive)
REMARK    1  A    between atoms: C7_7  and  C8_8
REMARK    2  A    between atoms: C8_8  and  C9_9
REMARK    3  A    between atoms: C9_9  and  N1_10
REMARK    4  A    between atoms: N1_10  and  C10_11
REMARK    5  A    between atoms: N3_19  and  C15_20
REMARK    6  A    between atoms: C15_20  and  C16_21
REMARK    7  A    between atoms: C16_21  and  C17_22
REMARK    8  A    between atoms: C17_22  and  N4_23
REMARK    9  A    between atoms: C22_31  and  N6_32
REMARK   10  A    between atoms: N6_32  and  C23_34
REMARK   11  A    between atoms: C27_38  and  N7_39
REMARK   12  A    between atoms: N7_39  and  S1_41
ROOT
HETATM    1  C10 UNL     1      12.184  48.809  85.567  1.00  0.00     0.137 A
HETATM    2  C11 UNL     1      13.146  47.914  85.040  1.00  0.00     0.064 A
HETATM    3  C12 UNL     1      13.967  47.167  85.835  1.00  0.00     0.092 A
HETATM    4  N2  UNL     1      13.883  47.263  87.162  1.00  0.00    -0.359 N
ATOM      5  H2  UNL     1      14.498  46.703  87.752  1.00  0.00     0.165 HD
HETATM    6  C13 UNL     1      12.983  48.101  87.727  1.00  0.00     0.132 A
HETATM    7  C14 UNL     1      12.891  48.201  89.102  1.00  0.00     0.291 A
HETATM    8  O1  UNL     1      13.674  47.488  89.784  1.00  0.00    -0.265 OA
HETATM    9  N3  UNL     1      12.010  49.019  89.693  1.00  0.00    -0.145 N
HETATM   10  C22 UNL     1      11.190  49.764  88.936  1.00  0.00     0.688 A
HETATM   11  N8  UNL     1      11.275  49.671  87.599  1.00  0.00    -0.185 N
ATOM     12  H8  UNL     1      10.645  50.245  87.039  1.00  0.00     0.184 HD
HETATM   13  C30 UNL     1      12.140  48.868  86.954  1.00  0.00     0.122 A
ENDROOT
BRANCH  10  14
HETATM   14  N6  UNL     1      10.372  50.529  89.567  1.00  0.00    -0.191 N
ATOM     15  H6  UNL     1       9.684  50.071  90.165  1.00  0.00     0.184 HD
BRANCH  14  16
HETATM   16  C23 UNL     1      10.331  51.930  89.516  1.00  0.00     0.051 A
HETATM   17  C24 UNL     1       9.220  52.606  89.970  1.00  0.00     0.030 A
HETATM   18  C25 UNL     1       9.183  53.962  89.923  1.00  0.00     0.005 A
HETATM   19  C26 UNL     1      10.251  54.682  89.425  1.00  0.00     0.030 A
HETATM   20  C27 UNL     1      11.385  54.060  88.959  1.00  0.00     0.044 A
HETATM   21  C29 UNL     1      11.382  52.662  89.025  1.00  0.00     0.060 A
BRANCH  20  22
HETATM   22  N7  UNL     1      12.505  54.753  88.446  1.00  0.00    -0.285 N
ATOM     23  H7  UNL     1      12.489  55.025  87.463  1.00  0.00     0.178 HD
BRANCH  22  24
HETATM   24  S1  UNL     1      13.887  55.163  89.370  1.00  0.00     0.227 S
HETATM   25  C28 UNL     1      13.723  54.738  91.079  1.00  0.00     0.186 C
HETATM   26  O2  UNL     1      14.123  56.666  89.232  1.00  0.00    -0.206 OA
HETATM   27  O3  UNL     1      15.111  54.430  88.855  1.00  0.00    -0.206 OA
ENDBRANCH  22  24
ENDBRANCH  20  22
ENDBRANCH  14  16
ENDBRANCH  10  14
BRANCH   9  28
HETATM   28  C15 UNL     1      11.958  49.081  91.140  1.00  0.00     0.153 C
BRANCH  28  29
HETATM   29  C16 UNL     1      12.802  50.212  91.696  1.00  0.00     0.041 C
BRANCH  29  30
HETATM   30  C17 UNL     1      12.189  50.572  93.052  1.00  0.00     0.122 C
BRANCH  30  31
HETATM   31  N4  UNL     1      12.851  51.711  93.646  1.00  0.00    -0.380 N
HETATM   32  C18 UNL     1      12.222  52.823  93.755  1.00  0.00     0.072 C
HETATM   33  C19 UNL     1      10.809  53.096  93.313  1.00  0.00     0.077 C
HETATM   34  N5  UNL     1      12.774  54.003  94.322  1.00  0.00    -0.380 N
HETATM   35  C20 UNL     1      10.784  54.624  93.377  1.00  0.00     0.027 C
HETATM   36  C21 UNL     1      11.652  54.864  94.610  1.00  0.00     0.121 C
ATOM     37  H5  UNL     1      13.759  54.201  94.492  1.00  0.00     0.160 HD
ATOM     38  H4  UNL     1      13.813  51.630  93.977  1.00  0.00     0.160 HD
ENDBRANCH  30  31
ENDBRANCH  29  30
ENDBRANCH  28  29
ENDBRANCH   9  28
BRANCH   1  39
HETATM   39  N1  UNL     1      11.483  49.436  84.822  1.00  0.00    -0.419 NA
BRANCH  39  40
HETATM   40  C9  UNL     1      11.062  50.253  83.854  1.00  0.00     0.160 C
BRANCH  40  41
HETATM   41  C8  UNL     1      11.365  51.737  83.856  1.00  0.00     0.098 C
BRANCH  41  42
HETATM   42  C7  UNL     1      12.661  52.094  83.311  1.00  0.00    -0.046 A
HETATM   43  C2  UNL     1      13.458  53.148  83.673  1.00  0.00    -0.055 A
HETATM   44  C1  UNL     1      13.082  54.021  84.808  1.00  0.00     0.049 C
HETATM   45  C3  UNL     1      14.658  53.381  83.002  1.00  0.00     0.007 A
HETATM   46  C4  UNL     1      15.097  52.586  81.970  1.00  0.00     0.001 A
HETATM   47  C5  UNL     1      14.302  51.522  81.598  1.00  0.00     0.001 A
HETATM   48  C6  UNL     1      13.128  51.297  82.257  1.00  0.00     0.008 A
ENDBRANCH  41  42
ENDBRANCH  40  41
ENDBRANCH  39  40
ENDBRANCH   1  39
TORSDOF 12
ENDMDL