MODEL 5
REMARK VINA RESULT: -7.905153671      3.699      5.387
REMARK  10 active torsions:
REMARK  status: ('A' for Active; 'I' for Inactive)
REMARK    1  A    between atoms: N3_4  and  C2_6
REMARK    2  A    between atoms: C2_6  and  C3_7
REMARK    3  A    between atoms: C3_7  and  C4_8
REMARK    4  A    between atoms: C4_8  and  C5_9
REMARK    5  A    between atoms: C15_23  and  O3_24
REMARK    6  A    between atoms: O3_24  and  C16_25
REMARK    7  A    between atoms: C16_25  and  C17_26
REMARK    8  A    between atoms: C17_26  and  C18_27
REMARK    9  A    between atoms: C18_27  and  N5_28
REMARK   10  A    between atoms: N6_31  and  C21_32
ROOT
HETATM    1  C5  UNL     1      10.555  55.361  94.429  1.00  0.00     0.177 C
HETATM    2  N4  UNL     1       9.976  55.085  93.153  1.00  0.00    -0.344 N
ATOM      3  H4  UNL     1      10.246  55.666  92.359  1.00  0.00     0.163 HD
HETATM    4  C6  UNL     1       9.026  54.022  92.937  1.00  0.00     0.255 C
HETATM    5  O1  UNL     1       7.945  54.232  92.283  1.00  0.00    -0.268 OA
HETATM    6  C7  UNL     1       9.212  52.652  93.437  1.00  0.00     0.065 A
HETATM    7  C8  UNL     1       8.136  52.120  94.164  1.00  0.00     0.020 A
HETATM    8  C9  UNL     1       8.151  50.872  94.728  1.00  0.00     0.001 A
HETATM    9  C10 UNL     1       9.283  50.111  94.568  1.00  0.00     0.003 A
HETATM   10  C11 UNL     1      10.334  50.615  93.862  1.00  0.00     0.038 A
HETATM   11  C12 UNL     1      10.338  51.898  93.271  1.00  0.00     0.091 A
HETATM   12  O2  UNL     1      11.459  52.225  92.601  1.00  0.00    -0.307 OA
HETATM   13  C13 UNL     1      12.003  53.085  91.742  1.00  0.00     0.105 A
HETATM   14  C14 UNL     1      11.974  52.947  90.344  1.00  0.00     0.076 A
HETATM   15  C15 UNL     1      12.524  53.808  89.431  1.00  0.00     0.071 A
HETATM   16  C29 UNL     1      13.176  54.926  89.956  1.00  0.00     0.039 A
HETATM   17  C30 UNL     1      13.233  55.105  91.308  1.00  0.00     0.035 A
HETATM   18  C31 UNL     1      12.672  54.231  92.218  1.00  0.00     0.069 A
HETATM   19  N7  UNL     1      12.840  54.567  93.583  1.00  0.00    -0.323 N
ATOM     20  H7  UNL     1      13.787  54.810  93.869  1.00  0.00     0.169 HD
HETATM   21  C32 UNL     1      11.852  54.607  94.602  1.00  0.00     0.245 C
HETATM   22  O4  UNL     1      12.049  53.998  95.691  1.00  0.00    -0.271 OA
ENDROOT
BRANCH  15  23
HETATM   23  O3  UNL     1      12.467  53.639  88.059  1.00  0.00    -0.351 OA
BRANCH  23  24
HETATM   24  C16 UNL     1      11.756  52.670  87.401  1.00  0.00     0.177 C
BRANCH  24  25
HETATM   25  C17 UNL     1      10.318  52.938  87.097  1.00  0.00     0.046 C
BRANCH  25  26
HETATM   26  C18 UNL     1       9.667  51.643  86.593  1.00  0.00     0.119 C
BRANCH  26  27
HETATM   27  N5  UNL     1       9.350  51.697  85.209  1.00  0.00    -0.409 N
HETATM   28  C19 UNL     1       9.524  52.956  84.581  1.00  0.00     0.136 C
HETATM   29  C20 UNL     1      10.579  52.958  83.500  1.00  0.00     0.142 C
HETATM   30  N6  UNL     1      11.553  51.913  83.620  1.00  0.00    -0.378 N
HETATM   31  C27 UNL     1      11.304  50.681  84.339  1.00  0.00     0.142 C
HETATM   32  C28 UNL     1       9.784  50.553  84.459  1.00  0.00     0.136 C
BRANCH  30  33
HETATM   33  C21 UNL     1      12.819  52.096  83.000  1.00  0.00     0.030 A
HETATM   34  C22 UNL     1      13.690  53.083  83.390  1.00  0.00     0.029 A
HETATM   35  C23 UNL     1      14.914  53.229  82.765  1.00  0.00     0.002 A
HETATM   36  C24 UNL     1      15.304  52.404  81.745  1.00  0.00     0.000 A
HETATM   37  C25 UNL     1      14.452  51.410  81.337  1.00  0.00     0.002 A
HETATM   38  C26 UNL     1      13.222  51.269  81.968  1.00  0.00     0.029 A
ENDBRANCH  30  33
ENDBRANCH  26  27
ENDBRANCH  25  26
ENDBRANCH  24  25
ENDBRANCH  23  24
ENDBRANCH  15  23
BRANCH   1  39
HETATM   39  C4  UNL     1      10.878  56.833  94.630  1.00  0.00     0.036 C
BRANCH  39  40
HETATM   40  C3  UNL     1       9.867  57.512  95.514  1.00  0.00     0.022 C
BRANCH  40  41
HETATM   41  C2  UNL     1       9.429  56.669  96.665  1.00  0.00     0.122 C
BRANCH  41  42
HETATM   42  N3  UNL     1      10.503  56.230  97.520  1.00  0.00    -0.367 N
HETATM   43  C1  UNL     1      10.309  55.557  98.601  1.00  0.00     0.196 C
HETATM   44  N1  UNL     1       8.978  55.234  98.968  1.00  0.00    -0.067 NA
HETATM   45  N2  UNL     1      11.397  55.145  99.410  1.00  0.00    -0.067 NA
ATOM     46  H3  UNL     1      11.461  56.462  97.257  1.00  0.00     0.161 HD
ENDBRANCH  41  42
ENDBRANCH  40  41
ENDBRANCH  39  40
ENDBRANCH   1  39
TORSDOF 10
ENDMDL