MODEL 2
REMARK VINA RESULT: -8.806953731      3.139      4.540
REMARK  14 active torsions:
REMARK  status: ('A' for Active; 'I' for Inactive)
REMARK    1  A    between atoms: S1_2  and  N1_4
REMARK    2  A    between atoms: S1_2  and  C18_37
REMARK    3  A    between atoms: N1_4  and  C1_6
REMARK    4  A    between atoms: C2_9  and  N3_10
REMARK    5  A    between atoms: N3_10  and  C3_12
REMARK    6  A    between atoms: C3_12  and  C4_13
REMARK    7  A    between atoms: C4_13  and  O3_14
REMARK    8  A    between atoms: C5_18  and  N5_19
REMARK    9  A    between atoms: N5_19  and  C6_21
REMARK   10  A    between atoms: C6_21  and  C7_22
REMARK   11  A    between atoms: C9_24  and  C10_25
REMARK   12  A    between atoms: C21_40  and  C22_41
REMARK   13  A    between atoms: C22_41  and  O4_42
REMARK   14  A    between atoms: O4_42  and  C23_43
ROOT
HETATM    1  C1  UNL     1      10.904  51.371  88.073  1.00  0.00     0.721 A
HETATM    2  N2  UNL     1      11.770  52.333  88.506  1.00  0.00    -0.021 N
ATOM      3  H2  UNL     1      12.153  52.273  89.450  1.00  0.00     0.203 HD
HETATM    4  C2  UNL     1      12.125  53.345  87.720  1.00  0.00     0.707 A
HETATM    5  N4  UNL     1      11.610  53.401  86.485  1.00  0.00    -0.022 N
ATOM      6  H4  UNL     1      11.875  54.173  85.875  1.00  0.00     0.203 HD
HETATM    7  C5  UNL     1      10.749  52.466  86.022  1.00  0.00     0.707 A
HETATM    8  N7  UNL     1      10.402  51.452  86.829  1.00  0.00    -0.021 N
ATOM      9  H7  UNL     1       9.754  50.738  86.496  1.00  0.00     0.203 HD
ENDROOT
BRANCH   1  10
HETATM   10  N1  UNL     1      10.625  50.434  88.905  1.00  0.00    -0.111 N
ATOM     11  H1  UNL     1       9.720  49.970  88.823  1.00  0.00     0.197 HD
BRANCH  10  12
HETATM   12  S1  UNL     1      11.685  49.925  90.142  1.00  0.00     0.276 S
HETATM   13  O1  UNL     1      11.170  48.643  90.719  1.00  0.00    -0.200 OA
HETATM   14  O2  UNL     1      13.022  49.632  89.514  1.00  0.00    -0.200 OA
BRANCH  12  15
HETATM   15  C18 UNL     1      11.854  51.172  91.383  1.00  0.00     0.080 A
HETATM   16  C19 UNL     1      10.763  51.741  92.001  1.00  0.00     0.026 A
HETATM   17  C20 UNL     1      10.904  52.721  92.975  1.00  0.00     0.011 A
HETATM   18  C21 UNL     1      12.151  53.161  93.357  1.00  0.00    -0.034 A
HETATM   19  C29 UNL     1      13.244  52.591  92.737  1.00  0.00     0.011 A
HETATM   20  C30 UNL     1      13.104  51.616  91.768  1.00  0.00     0.026 A
BRANCH  18  21
HETATM   21  C22 UNL     1      12.331  54.213  94.401  1.00  0.00     0.214 C
BRANCH  21  22
HETATM   22  O4  UNL     1      12.069  55.486  93.888  1.00  0.00    -0.347 OA
BRANCH  22  23
HETATM   23  C23 UNL     1      11.092  56.333  94.371  1.00  0.00     0.069 A
HETATM   24  C24 UNL     1       9.833  55.831  94.613  1.00  0.00     0.037 A
HETATM   25  C25 UNL     1       8.808  56.635  95.099  1.00  0.00     0.003 A
HETATM   26  C26 UNL     1       9.057  57.977  95.347  1.00  0.00     0.000 A
HETATM   27  C27 UNL     1      10.311  58.494  95.110  1.00  0.00     0.003 A
HETATM   28  C28 UNL     1      11.316  57.668  94.625  1.00  0.00     0.037 A
ENDBRANCH  22  23
ENDBRANCH  21  22
ENDBRANCH  18  21
ENDBRANCH  12  15
ENDBRANCH  10  12
ENDBRANCH   1  10
BRANCH   4  29
HETATM   29  N3  UNL     1      12.933  54.263  88.089  1.00  0.00    -0.223 N
ATOM     30  H3  UNL     1      13.604  54.621  87.410  1.00  0.00     0.177 HD
BRANCH  29  31
HETATM   31  C3  UNL     1      12.941  54.815  89.414  1.00  0.00     0.164 C
BRANCH  31  32
HETATM   32  C4  UNL     1      14.380  55.116  89.805  1.00  0.00     0.184 C
BRANCH  32  33
HETATM   33  O3  UNL     1      14.847  56.250  89.169  1.00  0.00    -0.399 OA
ATOM     34  H3  UNL     1      14.138  56.852  88.974  1.00  0.00     0.209 HD
ENDBRANCH  32  33
ENDBRANCH  31  32
ENDBRANCH  29  31
ENDBRANCH   4  29
BRANCH   7  35
HETATM   35  N5  UNL     1      10.319  52.623  84.820  1.00  0.00    -0.219 N
ATOM     36  H5  UNL     1      10.583  53.469  84.316  1.00  0.00     0.178 HD
BRANCH  35  37
HETATM   37  C6  UNL     1       9.477  51.654  84.148  1.00  0.00     0.195 C
BRANCH  37  38
HETATM   38  C7  UNL     1      10.248  50.883  83.131  1.00  0.00     0.028 A
HETATM   39  C8  UNL     1      11.415  51.375  82.588  1.00  0.00     0.039 A
HETATM   40  C9  UNL     1      12.147  50.678  81.648  1.00  0.00    -0.023 A
HETATM   41  C16 UNL     1      11.700  49.443  81.234  1.00  0.00     0.029 A
HETATM   42  C17 UNL     1      10.527  48.968  81.793  1.00  0.00     0.089 A
HETATM   43  N6  UNL     1       9.832  49.673  82.710  1.00  0.00    -0.368 N
ATOM     44  H6  UNL     1       8.973  49.280  83.093  1.00  0.00     0.165 HD
BRANCH  40  45
HETATM   45  C10 UNL     1      13.384  51.192  81.067  1.00  0.00    -0.026 A
HETATM   46  C11 UNL     1      14.255  51.820  81.950  1.00  0.00     0.012 A
HETATM   47  C12 UNL     1      15.454  52.351  81.545  1.00  0.00     0.001 A
HETATM   48  C13 UNL     1      15.784  52.242  80.199  1.00  0.00     0.000 A
HETATM   49  C14 UNL     1      14.919  51.617  79.318  1.00  0.00     0.001 A
HETATM   50  C15 UNL     1      13.702  51.082  79.746  1.00  0.00     0.012 A
ENDBRANCH  40  45
ENDBRANCH  37  38
ENDBRANCH  35  37
ENDBRANCH   7  35
TORSDOF 14
ENDMDL