MODEL 5
REMARK VINA RESULT: -8.123269395      3.907      9.595
REMARK  12 active torsions:
REMARK  status: ('A' for Active; 'I' for Inactive)
REMARK    1  A    between atoms: C1_2  and  C2_4
REMARK    2  A    between atoms: C2_4  and  C3_5
REMARK    3  A    between atoms: C6_8  and  C7_9
REMARK    4  A    between atoms: C7_9  and  N2_10
REMARK    5  A    between atoms: C10_16  and  S1_17
REMARK    6  A    between atoms: S1_17  and  C11_18
REMARK    7  A    between atoms: C17_24  and  N4_25
REMARK    8  A    between atoms: N4_25  and  C18_27
REMARK    9  A    between atoms: N5_30  and  C21_31
REMARK   10  A    between atoms: C21_31  and  C22_32
REMARK   11  A    between atoms: C22_32  and  O2_33
REMARK   12  A    between atoms: O2_33  and  C23_34
ROOT
HETATM    1  N2  UNL     1       9.908  53.173  87.116  1.00  0.00    -0.226 N
ATOM      2  H2  UNL     1      10.126  54.158  87.268  1.00  0.00     0.177 HD
HETATM    3  C8  UNL     1      10.171  52.699  85.964  1.00  0.00     0.679 A
HETATM    4  N3  UNL     1      10.723  53.531  85.029  1.00  0.00    -0.201 N
ATOM      5  H3  UNL     1      10.911  54.498  85.295  1.00  0.00     0.183 HD
HETATM    6  C9  UNL     1      11.031  53.146  83.787  1.00  0.00     0.129 A
HETATM    7  C10 UNL     1      10.802  51.857  83.368  1.00  0.00     0.066 A
HETATM    8  C17 UNL     1      10.235  50.990  84.313  1.00  0.00     0.136 A
HETATM    9  N7  UNL     1       9.948  51.431  85.546  1.00  0.00    -0.176 N
ATOM     10  H7  UNL     1       9.537  50.773  86.208  1.00  0.00     0.186 HD
ENDROOT
BRANCH   1  11
HETATM   11  C7  UNL     1       9.337  52.467  88.214  1.00  0.00     0.143 C
BRANCH  11  12
HETATM   12  C6  UNL     1       9.738  53.126  89.529  1.00  0.00     0.008 C
HETATM   13  C5  UNL     1      10.740  52.205  90.171  1.00  0.00     0.007 C
HETATM   14  C4  UNL     1      10.826  52.326  91.654  1.00  0.00     0.010 C
HETATM   15  C3  UNL     1      11.553  53.602  92.066  1.00  0.00     0.027 C
HETATM   16  C32 UNL     1      12.261  54.192  90.898  1.00  0.00    -0.047 A
HETATM   17  C27 UNL     1      11.737  54.572  89.681  1.00  0.00    -0.051 A
HETATM   18  C31 UNL     1      13.611  54.362  91.106  1.00  0.00     0.008 A
HETATM   19  C26 UNL     1      10.310  54.473  89.213  1.00  0.00     0.045 C
HETATM   20  C28 UNL     1      12.549  55.107  88.705  1.00  0.00     0.007 A
HETATM   21  C29 UNL     1      13.905  55.287  88.892  1.00  0.00     0.001 A
HETATM   22  C30 UNL     1      14.394  54.895  90.121  1.00  0.00     0.001 A
BRANCH  15  23
HETATM   23  C2  UNL     1      10.512  54.507  92.660  1.00  0.00     0.108 C
BRANCH  23  24
HETATM   24  C1  UNL     1      10.911  55.221  93.869  1.00  0.00     0.231 C
HETATM   25  N1  UNL     1      12.158  54.818  94.469  1.00  0.00    -0.062 NA
HETATM   26  O1  UNL     1      10.257  56.127  94.393  1.00  0.00    -0.277 OA
ENDBRANCH  23  24
ENDBRANCH  15  23
ENDBRANCH  11  12
ENDBRANCH   1  11
BRANCH   8  27
HETATM   27  N4  UNL     1      10.006  49.804  83.947  1.00  0.00    -0.370 N
ATOM     28  H4  UNL     1       9.188  49.658  83.356  1.00  0.00     0.161 HD
BRANCH  27  29
HETATM   29  C18 UNL     1      10.775  48.642  84.276  1.00  0.00     0.086 C
HETATM   30  C19 UNL     1      12.210  49.112  84.460  1.00  0.00     0.055 C
HETATM   31  C20 UNL     1      12.840  48.235  85.521  1.00  0.00     0.274 C
HETATM   32  N5  UNL     1      12.264  48.532  86.829  1.00  0.00     0.090 N
HETATM   33  C24 UNL     1      10.827  48.379  86.798  1.00  0.00     0.274 C
HETATM   34  C25 UNL     1      10.286  47.919  85.482  1.00  0.00     0.055 C
BRANCH  32  35
HETATM   35  C21 UNL     1      12.917  47.784  87.871  1.00  0.00     0.299 C
BRANCH  35  36
HETATM   36  C22 UNL     1      12.510  48.214  89.258  1.00  0.00     0.210 C
BRANCH  36  37
HETATM   37  O2  UNL     1      13.301  49.203  89.826  1.00  0.00    -0.305 OA
BRANCH  37  38
HETATM   38  C23 UNL     1      13.216  49.596  91.127  1.00  0.00     0.372 C
HETATM   39  N6  UNL     1      14.079  50.583  91.706  1.00  0.00    -0.032 NA
HETATM   40  O3  UNL     1      12.368  49.104  91.888  1.00  0.00    -0.242 OA
ENDBRANCH  37  38
ENDBRANCH  36  37
ENDBRANCH  35  36
ENDBRANCH  32  35
ENDBRANCH  27  29
ENDBRANCH   8  27
BRANCH   7  41
HETATM   41  S1  UNL     1      11.202  51.307  81.718  1.00  0.00    -0.085 SA
BRANCH  41  42
HETATM   42  C11 UNL     1      12.919  51.569  81.340  1.00  0.00     0.005 A
HETATM   43  C12 UNL     1      13.347  51.279  80.052  1.00  0.00     0.019 A
HETATM   44  C13 UNL     1      14.673  51.471  79.709  1.00  0.00     0.001 A
HETATM   45  C14 UNL     1      15.523  51.951  80.681  1.00  0.00     0.000 A
HETATM   46  C15 UNL     1      15.082  52.238  81.967  1.00  0.00     0.001 A
HETATM   47  C16 UNL     1      13.762  52.049  82.317  1.00  0.00     0.019 A
ENDBRANCH  41  42
ENDBRANCH   7  41
TORSDOF 12
ENDMDL