MODEL 5
REMARK VINA RESULT: -7.280623761      2.734      4.320
REMARK  15 active torsions:
REMARK  status: ('A' for Active; 'I' for Inactive)
REMARK    1  A    between atoms: C2_2  and  O1_3
REMARK    2  A    between atoms: C2_2  and  C3_5
REMARK    3  A    between atoms: C5_9  and  C6_10
REMARK    4  A    between atoms: C7_13  and  S1_14
REMARK    5  A    between atoms: S1_14  and  C8_15
REMARK    6  A    between atoms: C10_20  and  C11_21
REMARK    7  A    between atoms: C11_21  and  C12_22
REMARK       I    between atoms: C12_22  and  N3_24
REMARK    8  A    between atoms: N3_24  and  C13_26
REMARK    9  A    between atoms: N4_29  and  C16_30
REMARK   10  A    between atoms: C16_30  and  O6_31
REMARK   11  A    between atoms: C16_30  and  C17_33
REMARK   12  A    between atoms: C17_33  and  C18_34
REMARK   13  A    between atoms: C18_34  and  C19_35
REMARK   14  A    between atoms: C19_35  and  C20_36
REMARK   15  A    between atoms: C21_37  and  C22_38
ROOT
HETATM    1  C11 UNL     1      11.802  53.877  90.168  1.00  0.00     0.135 C
ENDROOT
BRANCH   1   2
HETATM    2  C10 UNL     1      11.923  52.900  91.320  1.00  0.00     0.195 C
HETATM    3  N2  UNL     1      13.336  52.776  91.707  1.00  0.00    -0.069 N
HETATM    4  C9  UNL     1      13.623  54.094  92.276  1.00  0.00     0.248 C
ATOM      5  H22 UNL     1      13.963  52.486  90.957  1.00  0.00     0.277 HD
ATOM      6  H21 UNL     1      13.546  51.988  92.320  1.00  0.00     0.277 HD
HETATM    7  C8  UNL     1      12.334  54.584  92.906  1.00  0.00     0.080 C
HETATM    8  C30 UNL     1      11.372  53.472  92.603  1.00  0.00     0.050 C
BRANCH   7   9
HETATM    9  S1  UNL     1      12.701  54.753  94.674  1.00  0.00    -0.125 SA
BRANCH   9  10
HETATM   10  C7  UNL     1      11.390  55.613  95.506  1.00  0.00     0.018 C
HETATM   11  C5  UNL     1      11.099  55.389  96.791  1.00  0.00     0.128 C
HETATM   12  N1  UNL     1       9.999  56.232  97.167  1.00  0.00    -0.304 N
HETATM   13  C4  UNL     1       9.019  57.046  97.790  1.00  0.00     0.233 C
HETATM   14  C33 UNL     1       9.269  56.470  95.910  1.00  0.00     0.117 C
HETATM   15  C3  UNL     1       8.677  57.704  96.488  1.00  0.00     0.130 C
HETATM   16  O2  UNL     1       8.643  57.121  98.990  1.00  0.00    -0.272 OA
HETATM   17  C31 UNL     1      10.467  56.647  94.978  1.00  0.00     0.048 C
HETATM   18  C32 UNL     1      11.040  58.044  95.121  1.00  0.00     0.018 C
BRANCH  11  19
HETATM   19  C6  UNL     1      11.760  54.459  97.693  1.00  0.00     0.228 C
HETATM   20  O3  UNL     1      11.711  53.224  97.526  1.00  0.00    -0.643 OA
HETATM   21  O4  UNL     1      12.487  54.895  98.799  1.00  0.00    -0.643 OA
ENDBRANCH  11  19
BRANCH  15  22
HETATM   22  C2  UNL     1       7.184  57.747  96.198  1.00  0.00     0.129 C
HETATM   23  C1  UNL     1       6.901  58.694  95.053  1.00  0.00     0.040 C
BRANCH  22  24
HETATM   24  O1  UNL     1       6.547  58.193  97.338  1.00  0.00    -0.395 OA
ATOM     25  H1  UNL     1       5.715  57.745  97.435  1.00  0.00     0.210 HD
ENDBRANCH  22  24
ENDBRANCH  15  22
ENDBRANCH   9  10
ENDBRANCH   7   9
ENDBRANCH   1   2
BRANCH   1  26
HETATM   26  C12 UNL     1      11.940  53.127  88.912  1.00  0.00     0.219 C
HETATM   27  O5  UNL     1      12.266  51.898  88.984  1.00  0.00    -0.274 OA
HETATM   28  N3  UNL     1      11.718  53.766  87.673  1.00  0.00    -0.356 N
ATOM     29  H3  UNL     1      11.456  54.751  87.625  1.00  0.00     0.162 HD
BRANCH  28  30
HETATM   30  C13 UNL     1      11.873  52.982  86.489  1.00  0.00     0.087 C
HETATM   31  C14 UNL     1      13.014  53.577  85.658  1.00  0.00     0.045 C
HETATM   32  C15 UNL     1      12.957  52.990  84.295  1.00  0.00     0.127 C
HETATM   33  N4  UNL     1      12.075  51.825  84.153  1.00  0.00    -0.362 N
HETATM   34  C28 UNL     1      10.752  51.847  84.683  1.00  0.00     0.127 C
HETATM   35  C29 UNL     1      10.640  53.066  85.634  1.00  0.00     0.045 C
BRANCH  33  36
HETATM   36  C16 UNL     1      12.610  50.706  83.488  1.00  0.00     0.137 C
BRANCH  36  37
HETATM   37  O6  UNL     1      13.598  50.993  82.644  1.00  0.00    -0.346 OA
ATOM     38  H6  UNL     1      14.461  50.743  82.953  1.00  0.00     0.219 HD
ENDBRANCH  36  37
BRANCH  36  39
HETATM   39  C17 UNL     1      12.234  49.352  83.605  1.00  0.00     0.052 C
BRANCH  39  40
HETATM   40  C18 UNL     1      12.517  48.466  84.487  1.00  0.00    -0.019 C
BRANCH  40  41
HETATM   41  C19 UNL     1      12.116  48.773  85.925  1.00  0.00     0.054 C
BRANCH  41  42
HETATM   42  C20 UNL     1      12.892  47.854  86.841  1.00  0.00    -0.027 C
HETATM   43  C21 UNL     1      14.180  47.813  86.717  1.00  0.00    -0.026 C
BRANCH  43  44
HETATM   44  C22 UNL     1      15.169  47.012  87.477  1.00  0.00     0.008 C
HETATM   45  C23 UNL     1      14.443  46.241  88.550  1.00  0.00     0.008 C
HETATM   46  C24 UNL     1      14.341  46.906  89.863  1.00  0.00     0.001 C
HETATM   47  C25 UNL     1      14.998  48.255  89.974  1.00  0.00     0.000 C
HETATM   48  C26 UNL     1      16.365  48.128  89.399  1.00  0.00     0.001 C
HETATM   49  C27 UNL     1      16.320  47.800  87.939  1.00  0.00     0.008 C
ENDBRANCH  43  44
ENDBRANCH  41  42
ENDBRANCH  40  41
ENDBRANCH  39  40
ENDBRANCH  36  39
ENDBRANCH  33  36
ENDBRANCH  28  30
ENDBRANCH   1  26
TORSDOF 15
ENDMDL