MODEL 3
REMARK VINA RESULT: -6.792387414      0.922      1.610
REMARK  13 active torsions:
REMARK  status: ('A' for Active; 'I' for Inactive)
REMARK    1  A    between atoms: C3_3  and  O1_4
REMARK    2  A    between atoms: O1_4  and  C4_5
REMARK    3  A    between atoms: C8_10  and  O3_11
REMARK    4  A    between atoms: O3_11  and  C9_12
REMARK    5  A    between atoms: C9_12  and  C10_13
REMARK    6  A    between atoms: C10_13  and  N1_14
REMARK    7  A    between atoms: C14_18  and  C15_19
REMARK    8  A    between atoms: C15_19  and  C16_20
REMARK    9  A    between atoms: C21_27  and  O4_28
REMARK   10  A    between atoms: C24_32  and  N3_33
REMARK       I    between atoms: N3_33  and  C25_35
REMARK   11  A    between atoms: C25_35  and  C26_37
REMARK   12  A    between atoms: C30_41  and  C31_42
REMARK   13  A    between atoms: C31_42  and  O6_43
ROOT
HETATM    1  C1  UNL     1       6.761  58.264  89.038  1.00  0.00     0.014 C
HETATM    2  C2  UNL     1       6.770  57.057  88.915  1.00  0.00    -0.091 C
HETATM    3  C3  UNL     1       6.751  55.579  88.776  1.00  0.00     0.260 C
ENDROOT
BRANCH   3   4
HETATM    4  O1  UNL     1       7.998  55.020  88.964  1.00  0.00    -0.374 OA
BRANCH   4   5
HETATM    5  C4  UNL     1       7.977  53.684  88.671  1.00  0.00     0.133 C
HETATM    6  C5  UNL     1       6.607  53.292  88.050  1.00  0.00     0.058 C
HETATM    7  C6  UNL     1       6.806  52.368  86.888  1.00  0.00     0.171 C
HETATM    8  O2  UNL     1       7.693  51.349  87.090  1.00  0.00    -0.383 OA
HETATM    9  C7  UNL     1       8.910  51.731  87.611  1.00  0.00     0.159 C
HETATM   10  C8  UNL     1      10.083  51.375  86.756  1.00  0.00     0.157 C
HETATM   11  C35 UNL     1       8.953  53.248  87.640  1.00  0.00     0.069 C
HETATM   12  C14 UNL     1      11.018  52.605  86.833  1.00  0.00     0.045 C
HETATM   13  C24 UNL     1      10.393  53.485  87.882  1.00  0.00     0.100 C
BRANCH  10  14
HETATM   14  O3  UNL     1      10.750  50.249  87.221  1.00  0.00    -0.381 OA
BRANCH  14  15
HETATM   15  C9  UNL     1      10.945  49.266  86.292  1.00  0.00     0.196 C
BRANCH  15  16
HETATM   16  C10 UNL     1      12.380  48.996  85.945  1.00  0.00     0.262 C
BRANCH  16  17
HETATM   17  N1  UNL     1      12.801  47.730  86.533  1.00  0.00    -0.077 N
HETATM   18  C11 UNL     1      11.687  46.905  86.920  1.00  0.00     0.271 C
HETATM   19  C12 UNL     1      13.516  48.088  87.770  1.00  0.00     0.271 C
HETATM   20  C13 UNL     1      13.726  47.030  85.667  1.00  0.00     0.271 C
ENDBRANCH  16  17
ENDBRANCH  15  16
ENDBRANCH  14  15
ENDBRANCH  10  14
BRANCH  12  21
HETATM   21  C15 UNL     1      11.156  53.109  85.461  1.00  0.00     0.050 C
BRANCH  21  22
HETATM   22  C16 UNL     1      12.476  53.264  84.880  1.00  0.00    -0.030 A
HETATM   23  C17 UNL     1      13.409  54.202  85.309  1.00  0.00     0.096 A
HETATM   24  N2  UNL     1      14.512  54.135  84.541  1.00  0.00    -0.365 N
HETATM   25  C18 UNL     1      14.301  53.170  83.626  1.00  0.00     0.043 A
ATOM     26  H2  UNL     1      15.351  54.708  84.635  1.00  0.00     0.165 HD
HETATM   27  C19 UNL     1      15.126  52.705  82.626  1.00  0.00     0.033 A
HETATM   28  C23 UNL     1      13.042  52.616  83.821  1.00  0.00     0.001 A
HETATM   29  C20 UNL     1      14.708  51.670  81.797  1.00  0.00     0.039 A
HETATM   30  C21 UNL     1      13.463  51.092  81.961  1.00  0.00     0.066 A
HETATM   31  C22 UNL     1      12.670  51.581  82.965  1.00  0.00     0.050 A
BRANCH  30  32
HETATM   32  O4  UNL     1      13.021  50.053  81.143  1.00  0.00    -0.361 OA
ATOM     33  H4  UNL     1      13.088  49.143  81.408  1.00  0.00     0.217 HD
ENDBRANCH  30  32
ENDBRANCH  21  22
ENDBRANCH  12  21
BRANCH  13  34
HETATM   34  N3  UNL     1      10.868  53.099  89.210  1.00  0.00    -0.353 N
HETATM   35  C25 UNL     1      11.568  54.054  89.975  1.00  0.00     0.253 C
HETATM   36  O5  UNL     1      11.750  55.206  89.461  1.00  0.00    -0.270 OA
ATOM     37  H3  UNL     1      10.697  52.162  89.574  1.00  0.00     0.163 HD
BRANCH  35  38
HETATM   38  C26 UNL     1      12.099  53.831  91.297  1.00  0.00     0.148 C
HETATM   39  C27 UNL     1      13.056  54.949  91.755  1.00  0.00     0.056 C
HETATM   40  C28 UNL     1      13.286  54.290  93.130  1.00  0.00     0.023 C
HETATM   41  C29 UNL     1      13.787  52.946  92.708  1.00  0.00     0.018 C
HETATM   42  C32 UNL     1      11.828  54.137  93.513  1.00  0.00     0.059 C
HETATM   43  C30 UNL     1      13.084  52.664  91.382  1.00  0.00     0.054 C
HETATM   44  C33 UNL     1      11.609  53.244  94.678  1.00  0.00     0.046 C
HETATM   45  C34 UNL     1      11.269  55.502  93.798  1.00  0.00     0.046 C
HETATM   46  O7  UNL     1      11.218  53.676  92.330  1.00  0.00    -0.359 OA
BRANCH  43  47
HETATM   47  C31 UNL     1      12.366  51.343  91.380  1.00  0.00     0.172 C
BRANCH  47  48
HETATM   48  O6  UNL     1      12.658  50.678  90.208  1.00  0.00    -0.400 OA
ATOM     49  H6  UNL     1      13.399  51.100  89.791  1.00  0.00     0.209 HD
ENDBRANCH  47  48
ENDBRANCH  43  47
ENDBRANCH  35  38
ENDBRANCH  13  34
ENDBRANCH   4   5
ENDBRANCH   3   4
TORSDOF 13
ENDMDL