MODEL 3
REMARK VINA RESULT: -6.622037926      4.007      9.243
REMARK  15 active torsions:
REMARK  status: ('A' for Active; 'I' for Inactive)
REMARK    1  A    between atoms: C2_2  and  C3_3
REMARK    2  A    between atoms: C3_3  and  C29_43
REMARK    3  A    between atoms: C4_4  and  C5_5
REMARK    4  A    between atoms: C5_5  and  C6_6
REMARK    5  A    between atoms: C6_6  and  C8_8
REMARK    6  A    between atoms: C10_13  and  C11_14
REMARK    7  A    between atoms: C15_21  and  C16_22
REMARK    8  A    between atoms: C16_22  and  C18_24
REMARK    9  A    between atoms: C21_29  and  C22_30
REMARK   10  A    between atoms: C25_35  and  O5_36
REMARK   11  A    between atoms: C26_38  and  C27_39
REMARK   12  A    between atoms: C27_39  and  C28_40
REMARK   13  A    between atoms: C29_43  and  C30_44
REMARK   14  A    between atoms: C31_45  and  C32_46
REMARK   15  A    between atoms: C32_46  and  O8_49
ROOT
HETATM    1  C8  UNL     1      11.735  53.961  91.568  1.00  0.00     0.100 C
HETATM    2  N1  UNL     1      12.227  53.181  90.473  1.00  0.00    -0.353 N
ATOM      3  H1  UNL     1      13.222  52.978  90.572  1.00  0.00     0.163 HD
HETATM    4  C9  UNL     1      11.705  52.629  89.315  1.00  0.00     0.241 C
HETATM    5  O1  UNL     1      12.129  53.067  88.170  1.00  0.00    -0.271 OA
HETATM    6  C10 UNL     1      10.693  51.563  89.108  1.00  0.00     0.180 C
HETATM    7  N2  UNL     1      11.358  50.362  88.549  1.00  0.00    -0.345 N
ATOM      8  H2  UNL     1      11.145  50.105  87.586  1.00  0.00     0.163 HD
HETATM    9  C14 UNL     1      12.266  49.550  89.262  1.00  0.00     0.248 C
HETATM   10  O2  UNL     1      13.386  49.299  88.743  1.00  0.00    -0.271 OA
HETATM   11  C15 UNL     1      12.026  48.945  90.597  1.00  0.00     0.227 C
HETATM   12  O3  UNL     1      13.063  49.034  91.488  1.00  0.00    -0.304 OA
HETATM   13  C20 UNL     1      13.863  49.950  92.010  1.00  0.00     0.282 C
HETATM   14  O4  UNL     1      15.115  49.961  91.693  1.00  0.00    -0.263 OA
HETATM   15  C21 UNL     1      13.560  51.056  92.974  1.00  0.00     0.186 C
HETATM   16  N3  UNL     1      12.202  51.129  93.393  1.00  0.00    -0.360 N
ATOM     17  H3  UNL     1      11.971  50.493  94.156  1.00  0.00     0.162 HD
HETATM   18  C25 UNL     1      11.123  51.906  92.959  1.00  0.00     0.118 C
HETATM   19  C26 UNL     1      10.958  53.332  92.644  1.00  0.00     0.093 C
ENDROOT
BRANCH   1  20
HETATM   20  C6  UNL     1      12.866  54.888  92.035  1.00  0.00     0.008 C
HETATM   21  C7  UNL     1      14.138  54.838  91.322  1.00  0.00     0.012 C
BRANCH  20  22
HETATM   22  C5  UNL     1      12.964  54.988  93.544  1.00  0.00     0.034 C
BRANCH  22  23
HETATM   23  C4  UNL     1      12.380  56.248  94.008  1.00  0.00    -0.018 C
HETATM   24  C3  UNL     1      11.603  56.458  95.050  1.00  0.00    -0.052 C
BRANCH  24  25
HETATM   25  C2  UNL     1      11.228  55.349  95.899  1.00  0.00    -0.003 C
HETATM   26  C1  UNL     1      11.686  55.212  97.105  1.00  0.00     0.012 C
ENDBRANCH  24  25
BRANCH  24  27
HETATM   27  C29 UNL     1      11.118  57.841  95.354  1.00  0.00     0.132 C
BRANCH  27  28
HETATM   28  C30 UNL     1       9.689  57.816  95.543  1.00  0.00    -0.099 C
HETATM   29  C31 UNL     1       8.473  57.820  95.700  1.00  0.00    -0.069 C
BRANCH  29  30
HETATM   30  C32 UNL     1       7.021  57.799  95.881  1.00  0.00     0.113 C
HETATM   31  C33 UNL     1       6.482  58.990  95.109  1.00  0.00     0.060 C
HETATM   32  C34 UNL     1       6.708  57.967  97.353  1.00  0.00     0.060 C
BRANCH  30  33
HETATM   33  O8  UNL     1       6.457  56.625  95.400  1.00  0.00    -0.378 OA
ATOM     34  H8  UNL     1       7.055  55.890  95.469  1.00  0.00     0.211 HD
ENDBRANCH  30  33
ENDBRANCH  29  30
ENDBRANCH  27  28
ENDBRANCH  24  27
ENDBRANCH  22  23
ENDBRANCH  20  22
ENDBRANCH   1  20
BRANCH  19  35
HETATM   35  C27 UNL     1       9.434  53.488  92.472  1.00  0.00     0.128 C
BRANCH  35  36
HETATM   36  C28 UNL     1       8.630  53.914  93.552  1.00  0.00     0.173 C
HETATM   37  O6  UNL     1       8.318  55.060  93.850  1.00  0.00    -0.648 OA
HETATM   38  O7  UNL     1       8.092  52.923  94.428  1.00  0.00    -0.648 OA
ENDBRANCH  35  36
ENDBRANCH  19  35
BRANCH  18  39
HETATM   39  O5  UNL     1      10.049  51.150  92.826  1.00  0.00    -0.349 OA
ATOM     40  H5  UNL     1       9.935  50.611  93.601  1.00  0.00     0.219 HD
ENDBRANCH  18  39
BRANCH   6  41
HETATM   41  C11 UNL     1       9.737  52.070  88.031  1.00  0.00     0.009 C
HETATM   42  C12 UNL     1       8.648  52.855  88.706  1.00  0.00     0.012 C
HETATM   43  C13 UNL     1       9.068  50.890  87.344  1.00  0.00     0.012 C
ENDBRANCH   6  41
BRANCH  15  44
HETATM   44  C22 UNL     1      14.401  50.762  94.249  1.00  0.00     0.010 C
HETATM   45  C23 UNL     1      13.920  49.500  94.905  1.00  0.00     0.012 C
HETATM   46  C24 UNL     1      14.274  51.930  95.175  1.00  0.00     0.012 C
ENDBRANCH  15  44
BRANCH  11  47
HETATM   47  C16 UNL     1      11.683  47.486  90.405  1.00  0.00     0.020 C
HETATM   48  C17 UNL     1      10.415  47.235  91.253  1.00  0.00     0.013 C
BRANCH  47  49
HETATM   49  C18 UNL     1      12.711  46.538  90.930  1.00  0.00     0.003 C
HETATM   50  C19 UNL     1      13.569  45.893  89.864  1.00  0.00     0.005 C
ENDBRANCH  47  49
ENDBRANCH  11  47
TORSDOF 15
ENDMDL