MODEL 3
REMARK VINA RESULT: -5.433774539      4.519      8.349
REMARK  10 active torsions:
REMARK  status: ('A' for Active; 'I' for Inactive)
REMARK    1  A    between atoms: C2_2  and  C3_3
REMARK    2  A    between atoms: C3_3  and  C5_5
REMARK    3  A    between atoms: C7_10  and  C8_11
REMARK    4  A    between atoms: C8_11  and  C10_13
REMARK    5  A    between atoms: C13_18  and  C14_19
REMARK    6  A    between atoms: C14_19  and  C15_20
REMARK    7  A    between atoms: C19_27  and  C20_28
REMARK    8  A    between atoms: C20_28  and  C21_29
REMARK    9  A    between atoms: C25_36  and  C26_37
REMARK   10  A    between atoms: C26_37  and  C27_38
ROOT
HETATM    1  C5  UNL     1      11.236  53.099  87.743  1.00  0.00     0.164 C
HETATM    2  N1  UNL     1      11.566  53.548  86.427  1.00  0.00    -0.347 N
ATOM      3  H1  UNL     1      12.099  54.417  86.435  1.00  0.00     0.163 HD
HETATM    4  C6  UNL     1      11.333  53.085  85.152  1.00  0.00     0.248 C
HETATM    5  O1  UNL     1      10.512  53.778  84.421  1.00  0.00    -0.271 OA
HETATM    6  C7  UNL     1      11.856  51.903  84.417  1.00  0.00     0.227 C
HETATM    7  O2  UNL     1      10.786  51.323  83.771  1.00  0.00    -0.304 OA
HETATM    8  C12 UNL     1      10.579  50.366  82.874  1.00  0.00     0.282 C
HETATM    9  O3  UNL     1      10.131  50.685  81.707  1.00  0.00    -0.263 OA
HETATM   10  C13 UNL     1      10.786  48.899  82.999  1.00  0.00     0.184 C
HETATM   11  N2  UNL     1       9.820  48.145  82.231  1.00  0.00    -0.345 N
ATOM     12  H2  UNL     1      10.169  47.323  81.740  1.00  0.00     0.163 HD
HETATM   13  C18 UNL     1       8.443  48.427  82.089  1.00  0.00     0.241 C
HETATM   14  O4  UNL     1       7.902  48.478  80.926  1.00  0.00    -0.271 OA
HETATM   15  C19 UNL     1       7.491  48.688  83.219  1.00  0.00     0.177 C
HETATM   16  N3  UNL     1       6.810  49.929  83.050  1.00  0.00    -0.346 N
ATOM     17  H3  UNL     1       6.203  50.014  82.235  1.00  0.00     0.163 HD
HETATM   18  C24 UNL     1       6.894  51.057  83.905  1.00  0.00     0.241 C
HETATM   19  O5  UNL     1       6.776  52.193  83.329  1.00  0.00    -0.271 OA
HETATM   20  C25 UNL     1       7.103  51.058  85.352  1.00  0.00     0.178 C
HETATM   21  N4  UNL     1       7.602  52.366  85.800  1.00  0.00    -0.330 N
ATOM     22  H4  UNL     1       7.752  53.104  85.112  1.00  0.00     0.165 HD
HETATM   23  C30 UNL     1       7.887  52.631  87.192  1.00  0.00     0.321 C
HETATM   24  O6  UNL     1       7.580  53.803  87.545  1.00  0.00    -0.247 OA
HETATM   25  N5  UNL     1       8.430  51.711  88.054  1.00  0.00    -0.309 N
ATOM     26  H5  UNL     1       7.681  51.230  88.551  1.00  0.00     0.170 HD
HETATM   27  C31 UNL     1       9.518  51.270  88.432  1.00  0.00     0.057 C
HETATM   28  C32 UNL     1       9.483  50.168  89.493  1.00  0.00     0.072 C
HETATM   29  C33 UNL     1      10.825  51.724  87.955  1.00  0.00     0.194 C
HETATM   30  O7  UNL     1      11.641  50.794  87.720  1.00  0.00    -0.289 OA
ENDROOT
BRANCH   1  31
HETATM   31  C3  UNL     1      12.397  53.500  88.674  1.00  0.00     0.012 C
HETATM   32  C4  UNL     1      11.757  54.348  89.761  1.00  0.00     0.012 C
BRANCH  31  33
HETATM   33  C2  UNL     1      13.443  54.313  87.990  1.00  0.00     0.002 C
HETATM   34  C1  UNL     1      13.880  55.393  88.995  1.00  0.00     0.005 C
ENDBRANCH  31  33
ENDBRANCH   1  31
BRANCH   6  35
HETATM   35  C8  UNL     1      12.977  52.381  83.513  1.00  0.00     0.020 C
HETATM   36  C9  UNL     1      13.879  53.394  84.146  1.00  0.00     0.013 C
BRANCH  35  37
HETATM   37  C10 UNL     1      13.760  51.306  82.850  1.00  0.00     0.003 C
HETATM   38  C11 UNL     1      15.003  51.971  82.230  1.00  0.00     0.005 C
ENDBRANCH  35  37
ENDBRANCH   6  35
BRANCH  10  39
HETATM   39  C14 UNL     1      10.998  48.411  84.388  1.00  0.00     0.039 C
BRANCH  39  40
HETATM   40  C15 UNL     1      12.376  47.780  84.442  1.00  0.00    -0.020 C
HETATM   41  C16 UNL     1      12.258  46.347  84.907  1.00  0.00     0.009 C
HETATM   42  C17 UNL     1      13.155  48.526  85.515  1.00  0.00     0.009 C
ENDBRANCH  39  40
ENDBRANCH  10  39
BRANCH  20  43
HETATM   43  C26 UNL     1       5.908  50.641  86.121  1.00  0.00     0.038 C
BRANCH  43  44
HETATM   44  C27 UNL     1       5.875  49.332  86.801  1.00  0.00    -0.020 C
HETATM   45  C28 UNL     1       5.476  49.665  88.279  1.00  0.00     0.009 C
HETATM   46  C29 UNL     1       7.195  48.628  86.951  1.00  0.00     0.009 C
ENDBRANCH  43  44
ENDBRANCH  20  43
BRANCH  15  47
HETATM   47  C20 UNL     1       6.678  47.506  83.569  1.00  0.00     0.038 C
BRANCH  47  48
HETATM   48  C21 UNL     1       5.207  47.593  83.499  1.00  0.00    -0.020 C
HETATM   49  C22 UNL     1       4.449  46.789  84.528  1.00  0.00     0.009 C
HETATM   50  C23 UNL     1       4.800  46.993  82.139  1.00  0.00     0.009 C
ENDBRANCH  47  48
ENDBRANCH  15  47
TORSDOF 10
ENDMDL