MODEL 5
REMARK VINA RESULT: -5.324575973      1.153      1.299
REMARK  11 active torsions:
REMARK  status: ('A' for Active; 'I' for Inactive)
REMARK    1  A    between atoms: C2_2  and  C3_3
REMARK    2  A    between atoms: C3_3  and  C5_5
REMARK    3  A    between atoms: C6_8  and  O1_9
REMARK    4  A    between atoms: C7_11  and  C8_12
REMARK    5  A    between atoms: C8_12  and  C9_13
REMARK    6  A    between atoms: C18_23  and  C19_24
REMARK    7  A    between atoms: C19_24  and  O3_25
REMARK    8  A    between atoms: C23_30  and  C24_31
REMARK    9  A    between atoms: C25_36  and  O5_37
REMARK   10  A    between atoms: C26_39  and  C27_40
REMARK   11  A    between atoms: C27_40  and  C28_41
ROOT
HETATM    1  C5  UNL     1      11.423  54.424  90.678  1.00  0.00     0.083 C
HETATM    2  N1  UNL     1      10.680  54.946  89.587  1.00  0.00    -0.337 N
ATOM      3  H1  UNL     1      11.052  55.849  89.293  1.00  0.00     0.167 HD
HETATM    4  C6  UNL     1       9.597  54.582  88.811  1.00  0.00     0.149 C
HETATM    5  C7  UNL     1       8.132  54.518  88.998  1.00  0.00     0.218 C
HETATM    6  O2  UNL     1       7.584  55.759  88.911  1.00  0.00    -0.374 OA
HETATM    7  C12 UNL     1       6.231  55.863  89.100  1.00  0.00     0.169 C
HETATM    8  C13 UNL     1       5.630  55.038  90.190  1.00  0.00     0.026 C
HETATM    9  C14 UNL     1       4.139  54.787  89.863  1.00  0.00     0.002 C
HETATM   10  C15 UNL     1       3.327  56.000  90.136  1.00  0.00     0.000 C
HETATM   11  C16 UNL     1       2.729  55.825  91.530  1.00  0.00     0.001 C
HETATM   12  C17 UNL     1       2.581  57.195  92.136  1.00  0.00     0.017 C
HETATM   13  C18 UNL     1       3.671  57.400  93.149  1.00  0.00     0.071 C
HETATM   14  S1  UNL     1       3.799  55.987  94.273  1.00  0.00    -0.162 SA
HETATM   15  C21 UNL     1       5.343  56.267  95.230  1.00  0.00     0.080 C
HETATM   16  C22 UNL     1       6.401  55.327  94.737  1.00  0.00     0.073 C
HETATM   17  C23 UNL     1       7.692  55.428  95.417  1.00  0.00     0.077 C
HETATM   18  N3  UNL     1       8.804  56.034  94.713  1.00  0.00    -0.338 N
ATOM     19  H3  UNL     1       8.518  56.811  94.118  1.00  0.00     0.167 HD
HETATM   20  C25 UNL     1      10.156  55.798  94.665  1.00  0.00     0.139 C
HETATM   21  C26 UNL     1      10.956  54.737  93.980  1.00  0.00     0.160 C
HETATM   22  N4  UNL     1      10.244  54.045  92.941  1.00  0.00    -0.344 N
ATOM     23  H4  UNL     1       9.256  53.848  93.106  1.00  0.00     0.163 HD
HETATM   24  C31 UNL     1      10.800  53.605  91.689  1.00  0.00     0.265 C
HETATM   25  O6  UNL     1      10.736  52.343  91.465  1.00  0.00    -0.266 OA
ENDROOT
BRANCH   1  26
HETATM   26  C3  UNL     1      12.775  53.912  90.179  1.00  0.00     0.037 C
HETATM   27  C4  UNL     1      12.927  54.263  88.702  1.00  0.00     0.016 C
BRANCH  26  28
HETATM   28  C2  UNL     1      13.945  54.575  90.844  1.00  0.00     0.006 C
HETATM   29  C1  UNL     1      14.737  55.326  89.794  1.00  0.00     0.006 C
ENDBRANCH  26  28
ENDBRANCH   1  26
BRANCH   4  30
HETATM   30  O1  UNL     1       9.893  54.201  87.572  1.00  0.00    -0.347 OA
ATOM     31  H1  UNL     1      10.799  53.952  87.432  1.00  0.00     0.219 HD
ENDBRANCH   4  30
BRANCH   5  32
HETATM   32  C8  UNL     1       7.483  53.567  88.057  1.00  0.00     0.015 C
BRANCH  32  33
HETATM   33  C9  UNL     1       7.105  52.211  88.399  1.00  0.00    -0.088 C
HETATM   34  C10 UNL     1       7.590  51.438  89.532  1.00  0.00     0.042 C
HETATM   35  C11 UNL     1       5.668  51.827  88.043  1.00  0.00     0.042 C
ENDBRANCH  32  33
ENDBRANCH   5  32
BRANCH  21  36
HETATM   36  C27 UNL     1      11.740  53.880  94.905  1.00  0.00     0.037 C
BRANCH  36  37
HETATM   37  C28 UNL     1      13.181  53.705  94.669  1.00  0.00    -0.020 C
HETATM   38  C29 UNL     1      13.576  52.451  93.928  1.00  0.00     0.009 C
HETATM   39  C30 UNL     1      13.699  54.916  93.919  1.00  0.00     0.009 C
ENDBRANCH  36  37
ENDBRANCH  21  36
BRANCH  20  40
HETATM   40  O5  UNL     1      10.980  56.598  95.312  1.00  0.00    -0.348 OA
ATOM     41  H5  UNL     1      11.252  56.378  96.195  1.00  0.00     0.219 HD
ENDBRANCH  20  40
BRANCH  17  42
HETATM   42  C24 UNL     1       7.657  55.866  96.823  1.00  0.00     0.277 C
HETATM   43  N2  UNL     1       8.204  57.109  97.252  1.00  0.00    -0.056 NA
HETATM   44  O4  UNL     1       7.144  55.147  97.760  1.00  0.00    -0.270 OA
ENDBRANCH  17  42
BRANCH  13  45
HETATM   45  C19 UNL     1       3.372  58.626  94.002  1.00  0.00     0.182 C
BRANCH  45  46
HETATM   46  O3  UNL     1       4.037  59.744  93.496  1.00  0.00    -0.395 OA
HETATM   47  C20 UNL     1       5.411  59.451  93.541  1.00  0.00     0.201 C
ENDBRANCH  45  46
ENDBRANCH  13  45
TORSDOF 11
ENDMDL