MODEL 2
REMARK VINA RESULT: -6.716907605      2.959     11.414
REMARK  14 active torsions:
REMARK  status: ('A' for Active; 'I' for Inactive)
REMARK    1  A    between atoms: C2_2  and  O1_3
REMARK    2  A    between atoms: O1_3  and  C3_4
REMARK       I    between atoms: C3_4  and  N1_6
REMARK       I    between atoms: C4_8  and  N2_9
REMARK       I    between atoms: C4_8  and  N7_38
REMARK    3  A    between atoms: N2_9  and  C5_11
REMARK    4  A    between atoms: C5_11  and  C6_12
REMARK    5  A    between atoms: C6_12  and  C7_13
REMARK    6  A    between atoms: C7_13  and  N3_14
REMARK    7  A    between atoms: N4_17  and  C10_18
REMARK    8  A    between atoms: C10_18  and  N5_20
REMARK    9  A    between atoms: N5_20  and  C11_22
REMARK   10  A    between atoms: C19_31  and  O4_32
REMARK   11  A    between atoms: O4_32  and  C20_33
REMARK   12  A    between atoms: N7_38  and  C23_40
REMARK   13  A    between atoms: C23_40  and  C24_41
REMARK   14  A    between atoms: C24_41  and  C25_42
ROOT
HETATM    1  N3  UNL     1      10.660  51.937  87.613  1.00  0.00     0.091 N
HETATM    2  C8  UNL     1      10.278  51.744  89.016  1.00  0.00     0.292 C
HETATM    3  C9  UNL     1      11.482  51.575  89.920  1.00  0.00     0.155 C
HETATM    4  N4  UNL     1      12.025  52.940  90.021  1.00  0.00    -0.355 N
HETATM    5  C21 UNL     1      11.813  53.714  88.814  1.00  0.00     0.155 C
HETATM    6  C22 UNL     1      11.893  52.722  87.645  1.00  0.00     0.292 C
ENDROOT
BRANCH   1   7
HETATM    7  C7  UNL     1       9.597  52.637  86.974  1.00  0.00     0.274 C
BRANCH   7   8
HETATM    8  C6  UNL     1       9.829  53.389  85.737  1.00  0.00     0.050 C
BRANCH   8   9
HETATM    9  C5  UNL     1       9.910  52.761  84.415  1.00  0.00     0.140 C
BRANCH   9  10
HETATM   10  N2  UNL     1       9.453  51.413  84.268  1.00  0.00    -0.226 N
HETATM   11  C4  UNL     1       9.885  50.533  83.229  1.00  0.00     0.678 C
HETATM   12  N1  UNL     1       9.325  50.472  82.085  1.00  0.00    -0.136 N
HETATM   13  N7  UNL     1      10.994  49.690  83.501  1.00  0.00    -0.226 N
HETATM   14  C3  UNL     1       9.768  49.600  81.079  1.00  0.00     0.379 C
ATOM     15  H1  UNL     1       8.528  51.079  81.895  1.00  0.00     0.189 HD
HETATM   16  O2  UNL     1       9.020  48.635  80.707  1.00  0.00    -0.238 OA
ATOM     17  H7  UNL     1      10.977  48.706  83.234  1.00  0.00     0.177 HD
ATOM     18  H2  UNL     1       8.779  51.059  84.946  1.00  0.00     0.177 HD
BRANCH  14  19
HETATM   19  O1  UNL     1      10.994  49.710  80.441  1.00  0.00    -0.304 OA
BRANCH  19  20
HETATM   20  C2  UNL     1      11.749  48.553  80.158  1.00  0.00     0.176 C
HETATM   21  C1  UNL     1      12.673  48.727  78.997  1.00  0.00     0.034 C
ENDBRANCH  19  20
ENDBRANCH  14  19
BRANCH  13  22
HETATM   22  C23 UNL     1      12.145  50.253  84.160  1.00  0.00     0.138 C
BRANCH  22  23
HETATM   23  C24 UNL     1      13.235  50.427  83.120  1.00  0.00     0.025 C
BRANCH  23  24
HETATM   24  C25 UNL     1      13.231  51.799  82.522  1.00  0.00    -0.013 C
HETATM   25  C26 UNL     1      14.128  52.690  83.352  1.00  0.00     0.005 C
HETATM   26  C27 UNL     1      15.395  53.044  82.580  1.00  0.00     0.000 C
HETATM   27  C28 UNL     1      15.990  51.842  81.923  1.00  0.00     0.000 C
HETATM   28  C29 UNL     1      15.030  51.178  80.967  1.00  0.00     0.000 C
HETATM   29  C30 UNL     1      13.684  51.841  81.100  1.00  0.00     0.005 C
ENDBRANCH  23  24
ENDBRANCH  22  23
ENDBRANCH  13  22
ENDBRANCH   9  10
ENDBRANCH   8   9
ENDBRANCH   7   8
ENDBRANCH   1   7
BRANCH   4  30
HETATM   30  C10 UNL     1      12.659  53.415  91.179  1.00  0.00     0.170 C
HETATM   31  S1  UNL     1      13.758  54.577  90.943  1.00  0.00    -0.041 SA
BRANCH  30  32
HETATM   32  N5  UNL     1      12.342  52.946  92.437  1.00  0.00    -0.357 N
ATOM     33  H5  UNL     1      12.643  51.979  92.559  1.00  0.00     0.162 HD
BRANCH  32  34
HETATM   34  C11 UNL     1      11.719  53.437  93.595  1.00  0.00     0.046 C
HETATM   35  C12 UNL     1      10.931  52.233  94.184  1.00  0.00     0.040 C
HETATM   36  C13 UNL     1      10.870  54.668  93.502  1.00  0.00     0.068 C
HETATM   37  C14 UNL     1       9.861  54.509  94.659  1.00  0.00     0.177 C
HETATM   38  C19 UNL     1      11.718  55.863  93.954  1.00  0.00     0.142 C
HETATM   39  O3  UNL     1      10.477  54.362  95.845  1.00  0.00    -0.390 OA
HETATM   40  C15 UNL     1      11.755  54.009  95.986  1.00  0.00     0.179 C
HETATM   41  C16 UNL     1      12.611  53.867  94.735  1.00  0.00     0.005 C
HETATM   42  C17 UNL     1      13.720  52.951  95.060  1.00  0.00     0.020 C
HETATM   43  C18 UNL     1      13.025  55.286  94.388  1.00  0.00     0.047 C
BRANCH  38  44
HETATM   44  O4  UNL     1      11.159  56.477  95.134  1.00  0.00    -0.300 OA
BRANCH  44  45
HETATM   45  C20 UNL     1      10.894  57.817  95.245  1.00  0.00     0.373 C
HETATM   46  N6  UNL     1      11.885  58.824  95.099  1.00  0.00    -0.032 NA
HETATM   47  O5  UNL     1       9.714  58.179  95.486  1.00  0.00    -0.242 OA
ENDBRANCH  44  45
ENDBRANCH  38  44
ENDBRANCH  32  34
ENDBRANCH  30  32
ENDBRANCH   4  30
TORSDOF 14
ENDMDL