MODEL 5
REMARK VINA RESULT: -6.355216981      2.824      7.895
REMARK  10 active torsions:
REMARK  status: ('A' for Active; 'I' for Inactive)
REMARK    1  A    between atoms: C2_2  and  C3_3
REMARK    2  A    between atoms: C3_3  and  C4_4
REMARK    3  A    between atoms: C11_16  and  C12_17
REMARK    4  A    between atoms: C12_17  and  C13_18
REMARK    5  A    between atoms: C15_25  and  C16_26
REMARK    6  A    between atoms: C16_26  and  C17_27
REMARK    7  A    between atoms: C20_32  and  C21_33
REMARK    8  A    between atoms: C21_33  and  O6_35
REMARK    9  A    between atoms: O6_35  and  C23_36
REMARK   10  A    between atoms: C23_36  and  C24_37
ROOT
HETATM    1  C4  UNL     1       7.947  50.211  85.931  1.00  0.00     0.177 C
HETATM    2  N1  UNL     1       7.781  49.472  87.159  1.00  0.00    -0.346 N
ATOM      3  H1  UNL     1       7.139  49.858  87.850  1.00  0.00     0.163 HD
HETATM    4  C5  UNL     1       8.429  48.260  87.491  1.00  0.00     0.241 C
HETATM    5  O1  UNL     1       8.217  47.815  88.643  1.00  0.00    -0.271 OA
HETATM    6  C6  UNL     1       9.281  47.561  86.586  1.00  0.00     0.179 C
HETATM    7  C7  UNL     1       9.475  46.078  86.977  1.00  0.00     0.037 C
HETATM    8  C8  UNL     1      10.695  45.672  86.178  1.00  0.00     0.022 C
HETATM    9  C9  UNL     1      11.016  46.898  85.352  1.00  0.00     0.127 C
HETATM   10  N2  UNL     1      10.615  47.956  86.344  1.00  0.00    -0.337 N
HETATM   11  C10 UNL     1      11.370  49.031  86.855  1.00  0.00     0.243 C
HETATM   12  O2  UNL     1      12.140  49.596  86.030  1.00  0.00    -0.271 OA
HETATM   13  C11 UNL     1      11.377  49.582  88.225  1.00  0.00     0.186 C
HETATM   14  N3  UNL     1      12.182  50.776  88.320  1.00  0.00    -0.346 N
ATOM     15  H3  UNL     1      13.170  50.632  88.110  1.00  0.00     0.163 HD
HETATM   16  C14 UNL     1      11.855  52.080  88.643  1.00  0.00     0.241 C
HETATM   17  O5  UNL     1      12.565  52.765  89.431  1.00  0.00    -0.271 OA
HETATM   18  C15 UNL     1      10.643  52.881  88.132  1.00  0.00     0.175 C
HETATM   19  N4  UNL     1      10.737  53.073  86.760  1.00  0.00    -0.364 N
ATOM     20  H4  UNL     1      11.681  53.348  86.489  1.00  0.00     0.161 HD
HETATM   21  C20 UNL     1       9.982  53.003  85.762  1.00  0.00     0.109 C
HETATM   22  N5  UNL     1       8.600  52.705  85.713  1.00  0.00    -0.313 N
ATOM     23  H5  UNL     1       8.043  53.370  85.175  1.00  0.00     0.170 HD
HETATM   24  C32 UNL     1       7.868  51.661  86.271  1.00  0.00     0.245 C
HETATM   25  O7  UNL     1       7.011  51.934  87.189  1.00  0.00    -0.271 OA
ENDROOT
BRANCH  21  26
HETATM   26  C21 UNL     1      10.597  53.321  84.384  1.00  0.00     0.184 C
HETATM   27  C22 UNL     1       9.361  53.419  83.471  1.00  0.00     0.048 C
BRANCH  26  28
HETATM   28  O6  UNL     1      11.429  52.368  83.974  1.00  0.00    -0.378 OA
BRANCH  28  29
HETATM   29  C23 UNL     1      11.495  51.968  82.700  1.00  0.00     0.177 C
BRANCH  29  30
HETATM   30  C24 UNL     1      12.622  51.149  82.202  1.00  0.00    -0.022 C
HETATM   31  C25 UNL     1      12.293  49.683  82.442  1.00  0.00     0.017 C
HETATM   32  C26 UNL     1      13.074  51.333  80.803  1.00  0.00     0.011 C
HETATM   33  C27 UNL     1      14.523  50.845  80.606  1.00  0.00     0.001 C
HETATM   34  C28 UNL     1      15.485  51.989  80.660  1.00  0.00     0.000 C
HETATM   35  C29 UNL     1      15.812  52.398  82.076  1.00  0.00     0.000 C
HETATM   36  C30 UNL     1      14.498  52.736  82.763  1.00  0.00     0.001 C
HETATM   37  C31 UNL     1      13.808  51.478  83.159  1.00  0.00     0.011 C
ENDBRANCH  29  30
ENDBRANCH  28  29
ENDBRANCH  26  28
ENDBRANCH  21  26
BRANCH  18  38
HETATM   38  C16 UNL     1      10.585  54.110  88.964  1.00  0.00     0.038 C
BRANCH  38  39
HETATM   39  C17 UNL     1       9.442  54.491  89.773  1.00  0.00    -0.020 C
HETATM   40  C18 UNL     1       8.936  53.436  90.705  1.00  0.00     0.009 C
HETATM   41  C19 UNL     1       8.256  54.810  88.822  1.00  0.00     0.009 C
ENDBRANCH  38  39
ENDBRANCH  18  38
BRANCH   1  42
HETATM   42  C3  UNL     1       6.804  49.812  85.010  1.00  0.00     0.034 C
BRANCH  42  43
HETATM   43  C2  UNL     1       7.267  49.677  83.578  1.00  0.00    -0.002 C
HETATM   44  C1  UNL     1       8.771  49.525  83.501  1.00  0.00     0.005 C
ENDBRANCH  42  43
ENDBRANCH   1  42
BRANCH  13  45
HETATM   45  C12 UNL     1      12.032  48.461  89.062  1.00  0.00     0.147 C
BRANCH  45  46
HETATM   46  C13 UNL     1      13.478  48.710  89.224  1.00  0.00     0.175 C
HETATM   47  O3  UNL     1      14.374  48.327  88.447  1.00  0.00    -0.648 OA
HETATM   48  O4  UNL     1      13.880  49.440  90.352  1.00  0.00    -0.648 OA
ENDBRANCH  45  46
ENDBRANCH  13  45
TORSDOF 10
ENDMDL