MODEL 5
REMARK VINA RESULT: -5.544721094      2.837      7.651
REMARK  12 active torsions:
REMARK  status: ('A' for Active; 'I' for Inactive)
REMARK    1  A    between atoms: C2_2  and  C3_3
REMARK    2  A    between atoms: C3_3  and  C4_4
REMARK    3  A    between atoms: C4_4  and  N1_5
REMARK       I    between atoms: N1_5  and  C5_7
REMARK       I    between atoms: C5_7  and  N2_9
REMARK    4  A    between atoms: N2_9  and  C6_10
REMARK    5  A    between atoms: C7_11  and  O2_12
REMARK    6  A    between atoms: C8_15  and  C9_16
REMARK    7  A    between atoms: C9_16  and  C10_17
REMARK    8  A    between atoms: C15_22  and  O4_23
REMARK    9  A    between atoms: C17_27  and  C18_28
REMARK   10  A    between atoms: C22_35  and  C23_36
REMARK   11  A    between atoms: C23_36  and  C24_37
REMARK   12  A    between atoms: C28_44  and  C29_45
ROOT
HETATM    1  C6  UNL     1      11.791  52.913  89.866  1.00  0.00     0.294 C
HETATM    2  C7  UNL     1      10.817  53.750  89.045  1.00  0.00     0.300 C
HETATM    3  O3  UNL     1       9.685  53.474  88.509  1.00  0.00    -0.352 OA
HETATM    4  C8  UNL     1       8.640  52.771  88.069  1.00  0.00     0.136 C
HETATM    5  C13 UNL     1       8.671  52.268  86.613  1.00  0.00     0.085 C
HETATM    6  C14 UNL     1       8.082  50.919  86.604  1.00  0.00     0.021 C
HETATM    7  C15 UNL     1       9.920  52.567  85.951  1.00  0.00     0.120 C
HETATM    8  N3  UNL     1      11.002  51.969  85.345  1.00  0.00    -0.356 N
HETATM    9  C16 UNL     1      12.316  52.623  85.726  1.00  0.00     0.152 C
HETATM   10  C17 UNL     1      11.182  50.903  84.405  1.00  0.00     0.181 C
HETATM   11  C21 UNL     1      10.911  49.539  84.764  1.00  0.00     0.241 C
HETATM   12  O5  UNL     1       9.868  48.998  84.214  1.00  0.00    -0.271 OA
HETATM   13  N4  UNL     1      11.587  48.644  85.629  1.00  0.00    -0.346 N
ATOM     14  H4  UNL     1      11.666  47.687  85.284  1.00  0.00     0.163 HD
HETATM   15  C22 UNL     1      12.171  48.874  86.900  1.00  0.00     0.177 C
HETATM   16  C27 UNL     1      11.209  48.661  88.022  1.00  0.00     0.241 C
HETATM   17  O6  UNL     1      10.655  47.506  88.011  1.00  0.00    -0.271 OA
HETATM   18  N5  UNL     1      10.863  49.543  89.035  1.00  0.00    -0.347 N
ATOM     19  H5  UNL     1       9.862  49.683  89.167  1.00  0.00     0.163 HD
HETATM   20  C28 UNL     1      11.704  50.284  89.920  1.00  0.00     0.161 C
HETATM   21  C32 UNL     1      11.182  51.624  90.319  1.00  0.00     0.190 C
HETATM   22  O7  UNL     1      10.210  51.689  91.055  1.00  0.00    -0.292 OA
ENDROOT
BRANCH   1  23
HETATM   23  N2  UNL     1      12.357  53.662  90.888  1.00  0.00    -0.378 NA
HETATM   24  C5  UNL     1      12.904  54.388  91.880  1.00  0.00     0.389 C
HETATM   25  N1  UNL     1      12.102  54.654  93.063  1.00  0.00    -0.331 N
HETATM   26  O1  UNL     1      14.039  54.887  91.942  1.00  0.00    -0.231 OA
ATOM     27  H1  UNL     1      11.158  54.268  93.103  1.00  0.00     0.165 HD
BRANCH  25  28
HETATM   28  C4  UNL     1      12.564  55.425  94.173  1.00  0.00     0.125 C
BRANCH  28  29
HETATM   29  C3  UNL     1      11.509  55.971  95.076  1.00  0.00     0.019 C
BRANCH  29  30
HETATM   30  C2  UNL     1      11.670  57.498  95.048  1.00  0.00    -0.003 C
HETATM   31  C1  UNL     1      10.407  58.188  95.464  1.00  0.00     0.005 C
ENDBRANCH  29  30
ENDBRANCH  28  29
ENDBRANCH  25  28
ENDBRANCH   1  23
BRANCH   2  32
HETATM   32  O2  UNL     1      11.291  54.960  88.910  1.00  0.00    -0.368 OA
ATOM     33  H2  UNL     1      10.603  55.536  88.597  1.00  0.00     0.212 HD
ENDBRANCH   2  32
BRANCH  20  34
HETATM   34  C29 UNL     1      11.858  49.392  91.167  1.00  0.00     0.008 C
HETATM   35  C30 UNL     1      13.154  48.643  91.178  1.00  0.00     0.012 C
HETATM   36  C31 UNL     1      10.660  48.507  91.362  1.00  0.00     0.012 C
ENDBRANCH  20  34
BRANCH   4  37
HETATM   37  C9  UNL     1       7.303  53.157  88.591  1.00  0.00     0.037 C
BRANCH  37  38
HETATM   38  C10 UNL     1       6.762  54.506  88.377  1.00  0.00    -0.020 C
HETATM   39  C11 UNL     1       5.714  54.622  87.312  1.00  0.00     0.009 C
HETATM   40  C12 UNL     1       6.082  54.940  89.689  1.00  0.00     0.009 C
ENDBRANCH  37  38
ENDBRANCH   4  37
BRANCH   7  41
HETATM   41  O4  UNL     1      10.018  53.898  85.950  1.00  0.00    -0.349 OA
ATOM     42  H4  UNL     1      10.345  54.130  85.090  1.00  0.00     0.219 HD
ENDBRANCH   7  41
BRANCH  15  43
HETATM   43  C23 UNL     1      13.336  47.975  87.204  1.00  0.00     0.038 C
BRANCH  43  44
HETATM   44  C24 UNL     1      14.101  47.441  86.050  1.00  0.00    -0.020 C
HETATM   45  C25 UNL     1      13.718  46.088  85.556  1.00  0.00     0.009 C
HETATM   46  C26 UNL     1      15.576  47.480  86.444  1.00  0.00     0.009 C
ENDBRANCH  43  44
ENDBRANCH  15  43
BRANCH  10  47
HETATM   47  C18 UNL     1      10.562  51.234  83.035  1.00  0.00     0.009 C
HETATM   48  C19 UNL     1      10.388  52.720  82.867  1.00  0.00     0.012 C
HETATM   49  C20 UNL     1      11.615  50.834  82.002  1.00  0.00     0.012 C
ENDBRANCH  10  47
TORSDOF 12
ENDMDL