MODEL 5
REMARK VINA RESULT: -5.018667489      4.875      7.612
REMARK  10 active torsions:
REMARK  status: ('A' for Active; 'I' for Inactive)
REMARK    1  A    between atoms: C2_2  and  C3_3
REMARK    2  A    between atoms: C3_3  and  C5_5
REMARK    3  A    between atoms: C13_19  and  C14_20
REMARK    4  A    between atoms: C14_20  and  C15_21
REMARK    5  A    between atoms: C20_28  and  C21_29
REMARK    6  A    between atoms: C21_29  and  C23_31
REMARK    7  A    between atoms: C26_36  and  C27_37
REMARK    8  A    between atoms: C27_37  and  C28_38
REMARK    9  A    between atoms: C28_38  and  C29_39
REMARK   10  A    between atoms: C29_39  and  C30_40
ROOT
HETATM    1  C5  UNL     1      11.886  51.508  91.108  1.00  0.00     0.180 C
HETATM    2  N1  UNL     1      12.288  52.366  90.025  1.00  0.00    -0.345 N
ATOM      3  H1  UNL     1      13.239  52.188  89.701  1.00  0.00     0.163 HD
HETATM    4  C6  UNL     1      11.659  53.374  89.337  1.00  0.00     0.246 C
HETATM    5  O1  UNL     1      12.242  54.532  89.393  1.00  0.00    -0.271 OA
HETATM    6  C7  UNL     1      10.428  53.422  88.519  1.00  0.00     0.114 C
HETATM    7  C8  UNL     1       9.755  54.794  88.789  1.00  0.00     0.041 C
HETATM    8  C9  UNL     1       8.900  54.576  90.004  1.00  0.00     0.003 C
HETATM    9  C10 UNL     1       8.599  53.115  90.045  1.00  0.00     0.003 C
HETATM   10  C11 UNL     1       9.347  52.500  88.896  1.00  0.00     0.041 C
HETATM   11  N2  UNL     1      10.786  53.379  87.104  1.00  0.00    -0.341 N
ATOM     12  H2  UNL     1      11.711  53.760  86.903  1.00  0.00     0.163 HD
HETATM   13  C12 UNL     1      10.123  52.926  85.992  1.00  0.00     0.241 C
HETATM   14  O2  UNL     1       9.841  53.826  85.097  1.00  0.00    -0.271 OA
HETATM   15  C13 UNL     1       9.656  51.579  85.597  1.00  0.00     0.179 C
HETATM   16  N3  UNL     1      10.758  50.832  84.943  1.00  0.00    -0.341 N
HETATM   17  C18 UNL     1      11.195  51.302  83.616  1.00  0.00     0.153 C
HETATM   18  C19 UNL     1      11.400  49.712  85.518  1.00  0.00     0.250 C
HETATM   19  O3  UNL     1      12.662  49.691  85.257  1.00  0.00    -0.270 OA
HETATM   20  C20 UNL     1      10.824  48.642  86.325  1.00  0.00     0.227 C
HETATM   21  O4  UNL     1      10.630  48.928  87.662  1.00  0.00    -0.304 OA
HETATM   22  C25 UNL     1      11.477  48.863  88.718  1.00  0.00     0.282 C
HETATM   23  O5  UNL     1      10.973  48.450  89.825  1.00  0.00    -0.263 OA
HETATM   24  C26 UNL     1      12.905  49.200  88.782  1.00  0.00     0.184 C
HETATM   25  N4  UNL     1      13.360  49.619  90.092  1.00  0.00    -0.345 N
ATOM     26  H4  UNL     1      14.349  49.457  90.280  1.00  0.00     0.163 HD
HETATM   27  C31 UNL     1      12.653  50.207  91.128  1.00  0.00     0.241 C
HETATM   28  O6  UNL     1      12.625  49.600  92.261  1.00  0.00    -0.271 OA
ENDROOT
BRANCH  24  29
HETATM   29  C27 UNL     1      13.786  48.048  88.325  1.00  0.00     0.035 C
BRANCH  29  30
HETATM   30  C28 UNL     1      15.113  48.028  88.989  1.00  0.00     0.003 C
BRANCH  30  31
HETATM   31  C29 UNL     1      16.183  47.825  87.958  1.00  0.00     0.011 C
BRANCH  31  32
HETATM   32  C30 UNL     1      15.670  47.451  86.609  1.00  0.00     0.086 C
HETATM   33  S1  UNL     1      16.413  45.876  86.041  1.00  0.00    -0.098 SA
ENDBRANCH  31  32
ENDBRANCH  30  31
ENDBRANCH  29  30
ENDBRANCH  24  29
BRANCH  20  34
HETATM   34  C21 UNL     1       9.539  48.048  85.759  1.00  0.00     0.020 C
HETATM   35  C22 UNL     1       9.156  46.855  86.580  1.00  0.00     0.013 C
BRANCH  34  36
HETATM   36  C23 UNL     1       9.799  47.560  84.337  1.00  0.00     0.003 C
HETATM   37  C24 UNL     1       8.761  48.122  83.415  1.00  0.00     0.005 C
ENDBRANCH  34  36
ENDBRANCH  20  34
BRANCH   1  38
HETATM   38  C3  UNL     1      12.246  52.148  92.456  1.00  0.00     0.013 C
HETATM   39  C4  UNL     1      13.552  52.878  92.417  1.00  0.00     0.012 C
BRANCH  38  40
HETATM   40  C2  UNL     1      11.152  52.901  93.107  1.00  0.00     0.002 C
HETATM   41  C1  UNL     1      11.513  54.394  92.951  1.00  0.00     0.005 C
ENDBRANCH  38  40
ENDBRANCH   1  38
BRANCH  15  42
HETATM   42  C14 UNL     1       8.577  51.710  84.576  1.00  0.00     0.039 C
BRANCH  42  43
HETATM   43  C15 UNL     1       7.175  51.514  84.995  1.00  0.00    -0.020 C
HETATM   44  C16 UNL     1       7.238  50.709  86.320  1.00  0.00     0.009 C
HETATM   45  C17 UNL     1       6.470  52.806  85.367  1.00  0.00     0.009 C
ENDBRANCH  42  43
ENDBRANCH  15  42
TORSDOF 10
ENDMDL