MODEL 1
REMARK VINA RESULT: -6.967271398      0.000      0.000
REMARK  12 active torsions:
REMARK  status: ('A' for Active; 'I' for Inactive)
REMARK    1  A    between atoms: C2_2  and  C3_3
REMARK    2  A    between atoms: C3_3  and  C5_5
REMARK    3  A    between atoms: C5_5  and  C6_6
REMARK    4  A    between atoms: C6_6  and  O1_7
REMARK    5  A    between atoms: C6_6  and  C7_9
REMARK    6  A    between atoms: C7_9  and  C8_10
REMARK    7  A    between atoms: C7_9  and  N3_21
REMARK    8  A    between atoms: C8_10  and  N1_11
REMARK       I    between atoms: N1_11  and  C9_12
REMARK    9  A    between atoms: C9_12  and  C10_14
REMARK   10  A    between atoms: C10_14  and  N2_15
REMARK       I    between atoms: N3_21  and  C15_23
REMARK   11  A    between atoms: C15_23  and  C16_25
REMARK   12  A    between atoms: C16_25  and  N4_26
REMARK       I    between atoms: N4_26  and  C17_28
REMARK       I    between atoms: C17_28  and  N5_30
ROOT
HETATM    1  N3  UNL     1      10.903  52.120  85.456  1.00  0.00    -0.346 N
ATOM      2  H3  UNL     1      11.409  51.239  85.546  1.00  0.00     0.163 HD
HETATM    3  C15 UNL     1      10.005  52.472  86.474  1.00  0.00     0.248 C
HETATM    4  O4  UNL     1       9.399  53.602  86.278  1.00  0.00    -0.271 OA
ENDROOT
BRANCH   3   5
HETATM    5  C16 UNL     1       9.662  51.749  87.692  1.00  0.00     0.132 C
HETATM    6  C28 UNL     1      10.170  50.327  87.597  1.00  0.00     0.053 C
HETATM    7  C29 UNL     1       9.855  49.639  88.890  1.00  0.00     0.077 C
HETATM    8  S1  UNL     1       8.411  50.557  89.531  1.00  0.00    -0.157 SA
HETATM    9  C30 UNL     1       8.196  51.631  88.016  1.00  0.00     0.035 C
HETATM   10  C31 UNL     1       7.356  50.827  87.111  1.00  0.00     0.030 C
HETATM   11  C32 UNL     1       7.595  52.903  88.476  1.00  0.00     0.030 C
BRANCH   5  12
HETATM   12  N4  UNL     1      10.300  52.413  88.826  1.00  0.00    -0.323 N
HETATM   13  C17 UNL     1      11.474  53.123  88.896  1.00  0.00     0.319 C
HETATM   14  O5  UNL     1      12.256  53.335  87.956  1.00  0.00    -0.247 OA
HETATM   15  N5  UNL     1      11.849  53.686  90.184  1.00  0.00    -0.334 N
HETATM   16  C18 UNL     1      13.079  54.399  90.317  1.00  0.00     0.128 C
HETATM   17  C27 UNL     1      10.962  53.533  91.323  1.00  0.00     0.128 C
HETATM   18  C19 UNL     1      13.828  54.036  91.582  1.00  0.00     0.029 C
HETATM   19  C20 UNL     1      12.921  53.820  92.745  1.00  0.00    -0.037 C
HETATM   20  C21 UNL     1      12.815  52.344  93.040  1.00  0.00     0.010 C
HETATM   21  C25 UNL     1      13.420  54.557  93.942  1.00  0.00     0.010 C
HETATM   22  C26 UNL     1      11.523  54.352  92.457  1.00  0.00     0.029 C
HETATM   23  C22 UNL     1      13.897  51.869  93.995  1.00  0.00     0.001 C
HETATM   24  C23 UNL     1      13.778  52.574  95.332  1.00  0.00     0.000 C
HETATM   25  C24 UNL     1      12.945  53.840  95.169  1.00  0.00     0.001 C
ATOM     26  H4  UNL     1       9.793  52.337  89.708  1.00  0.00     0.165 HD
ENDBRANCH   5  12
ENDBRANCH   3   5
BRANCH   1  27
HETATM   27  C7  UNL     1      11.158  52.953  84.256  1.00  0.00     0.165 C
BRANCH  27  28
HETATM   28  C6  UNL     1      12.536  53.453  84.247  1.00  0.00     0.147 C
BRANCH  28  29
HETATM   29  C5  UNL     1      13.523  52.395  83.867  1.00  0.00     0.038 C
BRANCH  29  30
HETATM   30  C3  UNL     1      14.453  52.738  82.763  1.00  0.00    -0.016 C
HETATM   31  C4  UNL     1      15.698  53.473  83.184  1.00  0.00     0.010 C
BRANCH  30  32
HETATM   32  C2  UNL     1      14.720  51.593  81.837  1.00  0.00    -0.000 C
HETATM   33  C1  UNL     1      15.708  52.000  80.730  1.00  0.00     0.005 C
ENDBRANCH  30  32
ENDBRANCH  29  30
ENDBRANCH  28  29
BRANCH  28  34
HETATM   34  O1  UNL     1      12.961  54.238  85.288  1.00  0.00    -0.393 OA
ATOM     35  H1  UNL     1      12.703  55.148  85.200  1.00  0.00     0.210 HD
ENDBRANCH  28  34
ENDBRANCH  27  28
BRANCH  27  36
HETATM   36  C8  UNL     1      10.619  52.226  83.063  1.00  0.00     0.186 C
BRANCH  36  37
HETATM   37  N1  UNL     1      10.810  50.886  82.924  1.00  0.00    -0.384 NA
HETATM   38  C9  UNL     1      11.001  49.537  82.786  1.00  0.00     0.319 C
HETATM   39  O2  UNL     1      10.654  48.637  83.585  1.00  0.00    -0.255 OA
BRANCH  38  40
HETATM   40  C10 UNL     1      11.701  48.964  81.574  1.00  0.00     0.391 C
BRANCH  40  41
HETATM   41  N2  UNL     1      11.500  49.719  80.377  1.00  0.00     0.102 N
HETATM   42  C11 UNL     1      10.360  49.265  79.602  1.00  0.00     0.299 C
HETATM   43  C12 UNL     1      10.702  49.439  78.132  1.00  0.00     0.198 C
HETATM   44  O3  UNL     1      11.663  48.515  77.700  1.00  0.00    -0.388 OA
HETATM   45  C13 UNL     1      12.703  48.440  78.636  1.00  0.00     0.198 C
HETATM   46  C14 UNL     1      12.712  49.646  79.554  1.00  0.00     0.299 C
ENDBRANCH  40  41
ENDBRANCH  38  40
ENDBRANCH  36  37
ENDBRANCH  27  36
ENDBRANCH   1  27
TORSDOF 12
ENDMDL