MODEL 4
REMARK VINA RESULT: -7.026486045      2.913      9.734
REMARK  11 active torsions:
REMARK  status: ('A' for Active; 'I' for Inactive)
REMARK    1  A    between atoms: C3_3  and  S1_4
REMARK    2  A    between atoms: S1_4  and  C4_6
REMARK    3  A    between atoms: S1_4  and  C6_8
REMARK    4  A    between atoms: C6_8  and  C7_9
REMARK    5  A    between atoms: C7_9  and  N1_10
REMARK    6  A    between atoms: N1_10  and  C8_12
REMARK    7  A    between atoms: C8_12  and  C10_14
REMARK    8  A    between atoms: C14_18  and  O2_19
REMARK    9  A    between atoms: C18_25  and  O4_26
REMARK   10  A    between atoms: C20_29  and  O5_30
REMARK   11  A    between atoms: C24_35  and  C25_36
ROOT
HETATM    1  C1  UNL     1      11.429  58.270  95.087  1.00  0.00     0.013 C
HETATM    2  C2  UNL     1      10.686  57.352  94.919  1.00  0.00    -0.106 C
HETATM    3  C3  UNL     1       9.789  56.212  94.712  1.00  0.00     0.188 C
ENDROOT
BRANCH   3   4
HETATM    4  S1  UNL     1      10.771  54.808  94.330  1.00  0.00    -0.043 S
HETATM    5  O1  UNL     1      11.371  55.081  92.948  1.00  0.00    -0.269 OA
BRANCH   4   6
HETATM    6  C4  UNL     1      12.186  54.664  95.410  1.00  0.00     0.092 C
HETATM    7  C5  UNL     1      12.094  53.476  96.330  1.00  0.00     0.017 C
ENDBRANCH   4   6
BRANCH   4   8
HETATM    8  C6  UNL     1       9.865  53.318  94.184  1.00  0.00     0.116 C
BRANCH   8   9
HETATM    9  C7  UNL     1      10.334  52.376  93.123  1.00  0.00     0.126 C
BRANCH   9  10
HETATM   10  N1  UNL     1       9.691  52.676  91.891  1.00  0.00    -0.416 N
ATOM     11  H1  UNL     1       9.797  53.580  91.430  1.00  0.00     0.153 HD
BRANCH  10  12
HETATM   12  C8  UNL     1       8.878  51.624  91.335  1.00  0.00     0.081 C
HETATM   13  C9  UNL     1       9.183  50.323  92.020  1.00  0.00     0.032 C
BRANCH  12  14
HETATM   14  C10 UNL     1       8.895  51.568  89.824  1.00  0.00     0.044 C
HETATM   15  C11 UNL     1       8.685  52.914  89.260  1.00  0.00     0.012 C
HETATM   16  C12 UNL     1       8.817  53.150  87.840  1.00  0.00     0.009 C
HETATM   17  C13 UNL     1       9.642  52.346  86.937  1.00  0.00     0.028 C
HETATM   18  C14 UNL     1       9.097  50.907  86.976  1.00  0.00     0.197 C
HETATM   19  C33 UNL     1      11.121  52.409  86.964  1.00  0.00     0.014 C
HETATM   20  C15 UNL     1       9.812  50.222  88.035  1.00  0.00     0.184 C
HETATM   21  O3  UNL     1      10.247  49.096  87.797  1.00  0.00    -0.290 OA
HETATM   22  C16 UNL     1      10.069  50.787  89.419  1.00  0.00    -0.001 C
HETATM   23  C17 UNL     1      11.437  51.189  89.615  1.00  0.00     0.044 C
HETATM   24  C18 UNL     1      12.051  52.457  89.300  1.00  0.00     0.051 C
HETATM   25  C19 UNL     1      11.737  53.205  88.049  1.00  0.00     0.076 C
HETATM   26  C20 UNL     1      12.937  54.046  87.719  1.00  0.00     0.129 C
HETATM   27  C21 UNL     1      13.180  54.371  86.309  1.00  0.00     0.038 C
HETATM   28  C22 UNL     1      13.120  53.030  85.564  1.00  0.00    -0.003 C
HETATM   29  C23 UNL     1      13.664  53.265  84.212  1.00  0.00     0.014 C
HETATM   30  C31 UNL     1      11.687  52.662  85.565  1.00  0.00    -0.035 C
HETATM   31  C24 UNL     1      13.088  52.428  83.108  1.00  0.00     0.021 C
HETATM   32  C29 UNL     1      12.507  51.177  83.690  1.00  0.00     0.010 C
HETATM   33  C30 UNL     1      11.478  51.388  84.740  1.00  0.00     0.010 C
HETATM   34  C32 UNL     1      10.913  53.759  84.854  1.00  0.00     0.016 C
BRANCH  18  35
HETATM   35  O2  UNL     1       7.726  51.009  87.129  1.00  0.00    -0.387 OA
ATOM     36  H2  UNL     1       7.371  51.199  86.268  1.00  0.00     0.210 HD
ENDBRANCH  18  35
BRANCH  24  37
HETATM   37  O4  UNL     1      12.058  53.386  90.379  1.00  0.00    -0.364 OA
ATOM     38  H4  UNL     1      11.767  54.259  90.143  1.00  0.00     0.217 HD
ENDBRANCH  24  37
BRANCH  26  39
HETATM   39  O5  UNL     1      12.955  55.266  88.438  1.00  0.00    -0.395 OA
ATOM     40  H5  UNL     1      13.829  55.633  88.506  1.00  0.00     0.210 HD
ENDBRANCH  26  39
BRANCH  31  41
HETATM   41  C25 UNL     1      14.152  52.001  82.152  1.00  0.00    -0.030 A
HETATM   42  C26 UNL     1      15.444  52.456  82.077  1.00  0.00     0.034 A
HETATM   43  C27 UNL     1      16.048  51.773  81.044  1.00  0.00     0.142 A
HETATM   44  O6  UNL     1      15.165  50.956  80.530  1.00  0.00    -0.334 OA
HETATM   45  C28 UNL     1      14.020  51.041  81.141  1.00  0.00     0.148 A
ENDBRANCH  31  41
ENDBRANCH  12  14
ENDBRANCH  10  12
ENDBRANCH   9  10
ENDBRANCH   8   9
ENDBRANCH   4   8
ENDBRANCH   3   4
TORSDOF 11
ENDMDL