MODEL 4
REMARK VINA RESULT: -6.685785088      2.235      3.387
REMARK  8 active torsions:
REMARK  status: ('A' for Active; 'I' for Inactive)
REMARK    1  A    between atoms: C2_2  and  C3_3
REMARK    2  A    between atoms: C5_7  and  C6_8
REMARK    3  A    between atoms: C6_8  and  N2_9
REMARK    4  A    between atoms: N2_9  and  C7_11
REMARK    5  A    between atoms: C7_11  and  C8_12
REMARK    6  A    between atoms: C8_12  and  N3_13
REMARK    7  A    between atoms: C25_34  and  C26_35
REMARK    8  A    between atoms: C26_35  and  C27_36
ROOT
HETATM    1  C3  UNL     1      13.005  53.944  91.236  1.00  0.00     0.169 C
HETATM    2  C4  UNL     1      13.523  52.877  92.156  1.00  0.00     0.088 C
HETATM    3  N1  UNL     1      12.796  52.710  93.334  1.00  0.00    -0.389 N
ATOM      4  H1  UNL     1      13.286  52.695  94.228  1.00  0.00     0.159 HD
HETATM    5  C5  UNL     1      11.413  52.564  93.309  1.00  0.00     0.136 C
HETATM    6  C14 UNL     1      10.894  51.999  92.005  1.00  0.00     0.148 C
HETATM    7  N4  UNL     1      10.195  52.944  91.205  1.00  0.00    -0.390 N
HETATM    8  C15 UNL     1       8.866  53.249  91.619  1.00  0.00     0.118 C
HETATM    9  C16 UNL     1       7.895  52.123  91.545  1.00  0.00     0.019 C
HETATM   10  C17 UNL     1       6.479  52.618  91.214  1.00  0.00     0.002 C
HETATM   11  C18 UNL     1       5.584  51.418  91.245  1.00  0.00     0.000 C
HETATM   12  C19 UNL     1       4.168  51.707  90.831  1.00  0.00     0.000 C
HETATM   13  C20 UNL     1       4.056  52.174  89.400  1.00  0.00     0.000 C
HETATM   14  C21 UNL     1       4.349  51.009  88.506  1.00  0.00     0.002 C
HETATM   15  C22 UNL     1       4.264  51.405  87.063  1.00  0.00     0.020 C
HETATM   16  C23 UNL     1       5.687  51.385  86.493  1.00  0.00     0.122 C
HETATM   17  N5  UNL     1       6.043  52.782  86.285  1.00  0.00    -0.359 N
ATOM     18  H5  UNL     1       5.614  53.253  85.488  1.00  0.00     0.162 HD
HETATM   19  C24 UNL     1       6.910  53.537  87.068  1.00  0.00     0.240 C
HETATM   20  O1  UNL     1       6.512  54.684  87.477  1.00  0.00    -0.271 OA
HETATM   21  C25 UNL     1       8.280  53.132  87.481  1.00  0.00     0.177 C
HETATM   22  N6  UNL     1       9.009  54.215  88.095  1.00  0.00    -0.346 N
ATOM     23  H6  UNL     1       8.780  55.164  87.796  1.00  0.00     0.163 HD
HETATM   24  C30 UNL     1      10.018  54.066  89.080  1.00  0.00     0.251 C
HETATM   25  O2  UNL     1      10.681  55.084  89.389  1.00  0.00    -0.271 OA
HETATM   26  C31 UNL     1      10.360  52.802  89.781  1.00  0.00     0.273 C
HETATM   27  C32 UNL     1      11.804  52.576  89.523  1.00  0.00     0.291 C
HETATM   28  O3  UNL     1      12.149  51.529  88.916  1.00  0.00    -0.262 OA
HETATM   29  O4  UNL     1      12.700  53.516  89.954  1.00  0.00    -0.309 OA
ENDROOT
BRANCH   5  30
HETATM   30  C6  UNL     1      10.966  51.741  94.494  1.00  0.00     0.086 C
BRANCH  30  31
HETATM   31  N2  UNL     1      11.418  52.096  95.753  1.00  0.00    -0.379 N
ATOM     32  H2  UNL     1      12.112  51.486  96.186  1.00  0.00     0.164 HD
BRANCH  31  33
HETATM   33  C7  UNL     1      11.015  53.199  96.477  1.00  0.00     0.090 C
BRANCH  33  34
HETATM   34  C8  UNL     1      11.773  54.459  96.494  1.00  0.00     0.316 C
BRANCH  34  35
HETATM   35  N3  UNL     1      11.075  55.637  96.045  1.00  0.00     0.093 N
HETATM   36  C9  UNL     1      11.748  56.183  94.842  1.00  0.00     0.273 C
HETATM   37  C10 UNL     1      11.414  57.661  94.823  1.00  0.00     0.030 C
HETATM   38  C11 UNL     1       9.964  57.858  95.227  1.00  0.00     0.003 C
HETATM   39  C12 UNL     1       9.225  56.590  94.843  1.00  0.00     0.030 C
HETATM   40  C13 UNL     1       9.713  55.411  95.674  1.00  0.00     0.273 C
ENDBRANCH  34  35
ENDBRANCH  33  34
ENDBRANCH  31  33
ENDBRANCH  30  31
ENDBRANCH   5  30
BRANCH   1  41
HETATM   41  C2  UNL     1      14.053  55.062  91.059  1.00  0.00     0.033 C
HETATM   42  C1  UNL     1      14.676  55.028  89.695  1.00  0.00     0.008 C
ENDBRANCH   1  41
BRANCH  21  43
HETATM   43  C26 UNL     1       9.058  52.395  86.472  1.00  0.00     0.039 C
BRANCH  43  44
HETATM   44  C27 UNL     1       9.942  53.101  85.541  1.00  0.00    -0.012 A
HETATM   45  C28 UNL     1      10.670  52.264  84.483  1.00  0.00     0.005 A
HETATM   46  C29 UNL     1      11.403  53.067  85.512  1.00  0.00     0.005 A
ENDBRANCH  43  44
ENDBRANCH  21  43
TORSDOF 8
ENDMDL