MODEL 4
REMARK VINA RESULT: -7.839420333      2.349      4.173
REMARK  9 active torsions:
REMARK  status: ('A' for Active; 'I' for Inactive)
REMARK    1  A    between atoms: O1_2  and  C2_3
REMARK    2  A    between atoms: C5_6  and  S1_7
REMARK    3  A    between atoms: S1_7  and  N1_10
REMARK    4  A    between atoms: C8_13  and  N2_14
REMARK    5  A    between atoms: C9_15  and  C10_16
REMARK    6  A    between atoms: C17_28  and  N5_29
REMARK    7  A    between atoms: N5_29  and  C18_31
REMARK    8  A    between atoms: C18_31  and  C19_32
REMARK    9  A    between atoms: C19_32  and  C20_33
ROOT
HETATM    1  N2  UNL     1      11.759  52.456  90.994  1.00  0.00    -0.293 N
HETATM    2  C9  UNL     1      11.451  53.716  91.271  1.00  0.00     0.059 A
HETATM    3  C15 UNL     1      11.083  54.353  90.082  1.00  0.00     0.064 A
HETATM    4  C16 UNL     1      11.175  53.417  89.057  1.00  0.00     0.081 A
HETATM    5  N4  UNL     1      10.907  53.527  87.735  1.00  0.00    -0.335 N
ATOM      6  H4  UNL     1      10.599  54.419  87.349  1.00  0.00     0.168 HD
HETATM    7  C17 UNL     1      11.047  52.457  86.934  1.00  0.00     0.171 A
HETATM    8  C28 UNL     1      11.471  51.260  87.516  1.00  0.00     0.291 A
HETATM    9  O5  UNL     1      11.593  50.276  86.747  1.00  0.00    -0.264 OA
HETATM   10  N7  UNL     1      11.729  51.187  88.827  1.00  0.00    -0.304 N
ATOM     11  H7  UNL     1      12.039  50.301  89.228  1.00  0.00     0.171 HD
HETATM   12  C29 UNL     1      11.589  52.260  89.630  1.00  0.00     0.143 A
ENDROOT
BRANCH   1  13
HETATM   13  C8  UNL     1      12.173  51.393  91.810  1.00  0.00     0.067 A
HETATM   14  C5  UNL     1      11.289  50.423  92.249  1.00  0.00     0.107 A
HETATM   15  C4  UNL     1      11.744  49.426  93.127  1.00  0.00     0.030 A
HETATM   16  C3  UNL     1      13.052  49.400  93.556  1.00  0.00     0.038 A
HETATM   17  C2  UNL     1      13.949  50.353  93.133  1.00  0.00     0.070 A
HETATM   18  C30 UNL     1      13.485  51.315  92.279  1.00  0.00     0.068 A
BRANCH  14  19
HETATM   19  S1  UNL     1       9.649  50.286  91.736  1.00  0.00     0.262 S
HETATM   20  O2  UNL     1       9.425  49.953  90.314  1.00  0.00    -0.200 OA
HETATM   21  O3  UNL     1       9.015  49.123  92.524  1.00  0.00    -0.200 OA
BRANCH  19  22
HETATM   22  N1  UNL     1       8.698  51.653  92.169  1.00  0.00    -0.315 N
HETATM   23  C6  UNL     1       8.007  51.536  93.398  1.00  0.00     0.162 C
HETATM   24  C7  UNL     1       8.014  52.280  91.093  1.00  0.00     0.162 C
ENDBRANCH  19  22
ENDBRANCH  14  19
BRANCH  17  25
HETATM   25  O1  UNL     1      15.250  50.285  93.590  1.00  0.00    -0.356 OA
HETATM   26  C1  UNL     1      15.531  50.298  94.975  1.00  0.00     0.210 C
ENDBRANCH  17  25
ENDBRANCH   1  13
BRANCH   2  27
HETATM   27  C10 UNL     1      11.338  54.423  92.565  1.00  0.00     0.059 A
HETATM   28  C11 UNL     1      10.108  54.609  93.167  1.00  0.00     0.021 A
HETATM   29  C12 UNL     1      10.037  55.342  94.352  1.00  0.00     0.018 A
HETATM   30  C13 UNL     1      11.143  55.884  94.942  1.00  0.00     0.091 A
HETATM   31  N3  UNL     1      12.324  55.691  94.342  1.00  0.00    -0.333 N
HETATM   32  C14 UNL     1      12.437  54.987  93.191  1.00  0.00     0.257 A
ATOM     33  H3  UNL     1      13.164  56.087  94.764  1.00  0.00     0.168 HD
HETATM   34  O4  UNL     1      13.578  54.883  92.737  1.00  0.00    -0.267 OA
ENDBRANCH   2  27
BRANCH   7  35
HETATM   35  N5  UNL     1      10.799  52.539  85.690  1.00  0.00    -0.371 N
ATOM     36  H5  UNL     1      10.058  51.956  85.300  1.00  0.00     0.161 HD
BRANCH  35  37
HETATM   37  C18 UNL     1      11.519  53.422  84.807  1.00  0.00     0.126 C
BRANCH  37  38
HETATM   38  C19 UNL     1      12.861  52.846  84.431  1.00  0.00     0.060 C
BRANCH  38  39
HETATM   39  C20 UNL     1      12.796  52.169  83.110  1.00  0.00    -0.029 A
HETATM   40  C21 UNL     1      11.713  51.543  82.524  1.00  0.00     0.096 A
HETATM   41  N6  UNL     1      12.089  51.063  81.334  1.00  0.00    -0.365 N
HETATM   42  C22 UNL     1      13.393  51.344  81.099  1.00  0.00     0.042 A
ATOM     43  H6  UNL     1      11.479  50.555  80.692  1.00  0.00     0.165 HD
HETATM   44  C23 UNL     1      14.264  51.094  80.066  1.00  0.00     0.030 A
HETATM   45  C27 UNL     1      13.833  52.029  82.197  1.00  0.00    -0.002 A
HETATM   46  C24 UNL     1      15.569  51.523  80.125  1.00  0.00     0.002 A
HETATM   47  C25 UNL     1      15.985  52.208  81.238  1.00  0.00     0.001 A
HETATM   48  C26 UNL     1      15.138  52.469  82.278  1.00  0.00     0.014 A
ENDBRANCH  38  39
ENDBRANCH  37  38
ENDBRANCH  35  37
ENDBRANCH   7  35
TORSDOF 9
ENDMDL