MODEL 1
REMARK VINA RESULT: -8.090996748      0.000      0.000
REMARK  12 active torsions:
REMARK  status: ('A' for Active; 'I' for Inactive)
REMARK    1  A    between atoms: C4_4  and  N1_5
REMARK    2  A    between atoms: N1_5  and  C5_7
REMARK    3  A    between atoms: C5_7  and  C6_8
REMARK    4  A    between atoms: C6_8  and  N2_9
REMARK    5  A    between atoms: N3_12  and  C9_13
REMARK    6  A    between atoms: C9_13  and  C10_14
REMARK    7  A    between atoms: C10_14  and  C11_15
REMARK    8  A    between atoms: C11_15  and  N4_16
REMARK    9  A    between atoms: N4_16  and  C12_18
REMARK   10  A    between atoms: C18_28  and  N7_29
REMARK   11  A    between atoms: N7_29  and  C19_30
REMARK   12  A    between atoms: C22_33  and  N8_35
ROOT
HETATM    1  N4  UNL     1       9.137  52.249  89.684  1.00  0.00    -0.376 N
ATOM      2  H4  UNL     1       8.477  52.674  90.334  1.00  0.00     0.161 HD
ENDROOT
BRANCH   1   3
HETATM    3  C11 UNL     1       8.617  51.286  88.766  1.00  0.00     0.123 C
BRANCH   3   4
HETATM    4  C10 UNL     1       7.366  51.798  88.073  1.00  0.00     0.039 C
BRANCH   4   5
HETATM    5  C9  UNL     1       7.481  53.141  87.475  1.00  0.00     0.119 C
BRANCH   5   6
HETATM    6  N3  UNL     1       7.818  53.259  86.104  1.00  0.00    -0.406 N
HETATM    7  C8  UNL     1       6.997  52.448  85.262  1.00  0.00     0.161 C
HETATM    8  C7  UNL     1       7.410  52.385  83.826  1.00  0.00     0.077 C
HETATM    9  N2  UNL     1       8.783  52.105  83.701  1.00  0.00    -0.389 N
HETATM   10  C27 UNL     1       9.587  52.204  84.875  1.00  0.00     0.141 C
HETATM   11  C26 UNL     1       9.192  53.341  85.793  1.00  0.00     0.137 C
BRANCH   9  12
HETATM   12  C6  UNL     1       9.193  51.070  82.813  1.00  0.00     0.141 C
BRANCH  12  13
HETATM   13  C5  UNL     1      10.558  50.546  83.269  1.00  0.00     0.139 C
BRANCH  13  14
HETATM   14  N1  UNL     1      11.501  50.794  82.216  1.00  0.00    -0.388 N
ATOM     15  H1  UNL     1      11.337  50.406  81.287  1.00  0.00     0.159 HD
BRANCH  14  16
HETATM   16  C4  UNL     1      12.544  51.498  82.435  1.00  0.00     0.042 A
HETATM   17  C3  UNL     1      12.646  52.305  83.531  1.00  0.00     0.054 A
HETATM   18  C2  UNL     1      13.765  53.108  83.768  1.00  0.00     0.007 A
HETATM   19  C1  UNL     1      13.786  53.969  84.975  1.00  0.00     0.068 C
HETATM   20  N10 UNL     1      14.765  53.079  82.890  1.00  0.00    -0.359 N
HETATM   21  C33 UNL     1      14.712  52.280  81.768  1.00  0.00     0.044 A
ATOM     22  H10 UNL     1      15.588  53.659  83.051  1.00  0.00     0.166 HD
HETATM   23  C28 UNL     1      13.600  51.499  81.556  1.00  0.00     0.017 A
HETATM   24  C32 UNL     1      15.773  52.320  80.894  1.00  0.00     0.030 A
HETATM   25  C29 UNL     1      13.541  50.706  80.398  1.00  0.00     0.016 A
HETATM   26  C30 UNL     1      14.591  50.745  79.530  1.00  0.00     0.001 A
HETATM   27  C31 UNL     1      15.708  51.517  79.724  1.00  0.00     0.002 A
ENDBRANCH  14  16
ENDBRANCH  13  14
ENDBRANCH  12  13
ENDBRANCH   9  12
ENDBRANCH   5   6
ENDBRANCH   4   5
ENDBRANCH   3   4
ENDBRANCH   1   3
BRANCH   1  28
HETATM   28  C12 UNL     1      10.353  52.623  89.764  1.00  0.00     0.103 C
HETATM   29  C13 UNL     1      11.104  52.550  88.627  1.00  0.00     0.050 C
HETATM   30  C14 UNL     1      12.162  53.358  88.243  1.00  0.00     0.036 C
HETATM   31  C15 UNL     1      12.943  54.121  89.074  1.00  0.00     0.065 A
HETATM   32  N5  UNL     1      14.086  54.701  88.621  1.00  0.00    -0.350 N
HETATM   33  C17 UNL     1      12.734  54.415  90.397  1.00  0.00     0.118 A
HETATM   34  C16 UNL     1      14.597  55.366  89.674  1.00  0.00     0.181 A
ATOM     35  H5  UNL     1      14.474  54.644  87.679  1.00  0.00     0.166 HD
HETATM   36  N6  UNL     1      13.771  55.189  90.749  1.00  0.00    -0.347 N
ATOM     37  H6  UNL     1      13.921  55.585  91.678  1.00  0.00     0.167 HD
HETATM   38  C18 UNL     1      11.703  54.061  91.280  1.00  0.00     0.204 C
HETATM   39  N9  UNL     1      10.787  53.082  90.960  1.00  0.00    -0.316 N
ATOM     40  H9  UNL     1      10.362  52.624  91.767  1.00  0.00     0.170 HD
BRANCH  38  41
HETATM   41  N7  UNL     1      11.587  54.593  92.327  1.00  0.00    -0.423 NA
BRANCH  41  42
HETATM   42  C19 UNL     1      11.454  55.203  93.529  1.00  0.00     0.165 C
HETATM   43  C20 UNL     1      10.024  55.099  94.021  1.00  0.00     0.042 C
HETATM   44  C21 UNL     1       9.752  55.499  95.407  1.00  0.00     0.041 C
HETATM   45  C22 UNL     1      10.989  55.704  96.214  1.00  0.00     0.120 C
HETATM   46  C23 UNL     1      10.610  55.648  97.698  1.00  0.00     0.046 C
HETATM   47  C24 UNL     1      11.964  54.585  95.926  1.00  0.00     0.041 C
HETATM   48  C25 UNL     1      12.447  54.598  94.516  1.00  0.00     0.042 C
BRANCH  45  49
HETATM   49  N8  UNL     1      11.625  56.957  95.956  1.00  0.00    -0.071 N
ATOM     50  H83 UNL     1      12.588  56.819  95.650  1.00  0.00     0.275 HD
ATOM     51  H82 UNL     1      11.242  57.392  95.116  1.00  0.00     0.275 HD
ATOM     52  H81 UNL     1      11.584  57.598  96.748  1.00  0.00     0.275 HD
ENDBRANCH  45  49
ENDBRANCH  41  42
ENDBRANCH  38  41
ENDBRANCH   1  28
TORSDOF 12
ENDMDL