MODEL 3
REMARK VINA RESULT: -8.028582114      0.918      1.177
REMARK  11 active torsions:
REMARK  status: ('A' for Active; 'I' for Inactive)
REMARK    1  A    between atoms: C2_2  and  N1_4
REMARK    2  A    between atoms: C8_11  and  N3_12
REMARK    3  A    between atoms: N3_12  and  C9_14
REMARK    4  A    between atoms: C9_14  and  C10_15
REMARK    5  A    between atoms: C13_18  and  C14_19
REMARK       I    between atoms: C14_19  and  N4_21
REMARK    6  A    between atoms: N4_21  and  C15_23
REMARK    7  A    between atoms: C15_23  and  C16_24
REMARK    8  A    between atoms: C16_24  and  N5_25
REMARK    9  A    between atoms: C23_35  and  N7_36
REMARK   10  A    between atoms: N7_36  and  C24_38
REMARK   11  A    between atoms: C26_40  and  C27_41
ROOT
HETATM    1  N1  UNL     1       9.929  49.785  85.568  1.00  0.00    -0.396 N
HETATM    2  C4  UNL     1      10.627  48.683  85.997  1.00  0.00     0.083 C
HETATM    3  C5  UNL     1      11.055  48.529  87.406  1.00  0.00     0.031 C
HETATM    4  C6  UNL     1      11.158  49.669  88.296  1.00  0.00     0.060 C
HETATM    5  C7  UNL     1      11.441  50.984  87.646  1.00  0.00     0.038 A
HETATM    6  N2  UNL     1      11.735  51.910  88.596  1.00  0.00    -0.195 N
ATOM      7  H2  UNL     1      11.750  51.632  89.577  1.00  0.00     0.184 HD
HETATM    8  C8  UNL     1      12.010  53.198  88.267  1.00  0.00     0.683 A
HETATM    9  N6  UNL     1      11.987  53.541  86.968  1.00  0.00    -0.176 N
ATOM     10  H6  UNL     1      12.193  54.508  86.720  1.00  0.00     0.186 HD
HETATM   11  C23 UNL     1      11.704  52.667  85.970  1.00  0.00     0.133 A
HETATM   12  C30 UNL     1      11.425  51.371  86.329  1.00  0.00     0.032 A
HETATM   13  C31 UNL     1      11.050  50.521  85.142  1.00  0.00     0.121 C
HETATM   14  C32 UNL     1      11.861  49.246  85.247  1.00  0.00     0.055 C
ENDROOT
BRANCH   8  15
HETATM   15  N3  UNL     1      12.270  54.035  89.200  1.00  0.00    -0.205 N
ATOM     16  H3  UNL     1      12.631  54.926  88.861  1.00  0.00     0.183 HD
BRANCH  15  17
HETATM   17  C9  UNL     1      12.159  53.971  90.588  1.00  0.00     0.083 C
BRANCH  17  18
HETATM   18  C10 UNL     1      13.449  53.900  91.324  1.00  0.00     0.025 C
HETATM   19  C11 UNL     1      13.582  52.682  92.138  1.00  0.00     0.011 C
HETATM   20  C12 UNL     1      13.055  52.626  93.511  1.00  0.00     0.015 C
HETATM   21  C13 UNL     1      12.739  53.898  94.181  1.00  0.00     0.078 C
HETATM   22  C21 UNL     1      12.634  55.092  93.331  1.00  0.00     0.015 C
HETATM   23  C22 UNL     1      13.597  55.162  92.207  1.00  0.00     0.011 C
BRANCH  21  24
HETATM   24  C14 UNL     1      11.465  53.736  94.991  1.00  0.00     0.222 C
HETATM   25  O1  UNL     1      10.662  52.822  94.690  1.00  0.00    -0.273 OA
HETATM   26  N4  UNL     1      11.221  54.613  96.052  1.00  0.00    -0.356 N
ATOM     27  H4  UNL     1      11.894  55.351  96.264  1.00  0.00     0.162 HD
BRANCH  26  28
HETATM   28  C15 UNL     1      10.013  54.481  96.857  1.00  0.00     0.167 C
BRANCH  28  29
HETATM   29  C16 UNL     1       9.136  55.701  96.836  1.00  0.00     0.082 C
BRANCH  29  30
HETATM   30  N5  UNL     1       8.960  56.204  95.532  1.00  0.00    -0.368 N
HETATM   31  C17 UNL     1       8.113  55.434  94.690  1.00  0.00     0.153 C
HETATM   32  C18 UNL     1       6.731  56.084  94.713  1.00  0.00     0.188 C
HETATM   33  O2  UNL     1       6.823  57.377  94.236  1.00  0.00    -0.385 OA
HETATM   34  C19 UNL     1       7.569  58.154  95.113  1.00  0.00     0.212 C
HETATM   35  C20 UNL     1       8.977  57.576  95.259  1.00  0.00     0.089 C
ENDBRANCH  29  30
ENDBRANCH  28  29
ENDBRANCH  26  28
ENDBRANCH  21  24
ENDBRANCH  17  18
ENDBRANCH  15  17
ENDBRANCH   8  15
BRANCH  11  36
HETATM   36  N7  UNL     1      11.755  53.105  84.593  1.00  0.00    -0.327 N
ATOM     37  H7  UNL     1      10.933  53.439  84.089  1.00  0.00     0.169 HD
BRANCH  36  38
HETATM   38  C24 UNL     1      12.955  53.038  84.041  1.00  0.00     0.123 A
HETATM   39  C25 UNL     1      13.385  52.141  83.093  1.00  0.00     0.076 A
HETATM   40  C26 UNL     1      14.698  52.426  82.739  1.00  0.00     0.033 A
HETATM   41  N8  UNL     1      15.026  53.490  83.490  1.00  0.00    -0.303 N
HETATM   42  N9  UNL     1      13.991  53.853  84.263  1.00  0.00    -0.285 N
ATOM     43  H8  UNL     1      15.933  53.956  83.474  1.00  0.00     0.186 HD
ATOM     44  H9  UNL     1      13.994  54.633  84.920  1.00  0.00     0.188 HD
BRANCH  40  45
HETATM   45  C27 UNL     1      15.472  51.703  81.702  1.00  0.00     0.037 A
HETATM   46  C28 UNL     1      14.807  51.068  80.574  1.00  0.00     0.011 A
HETATM   47  C29 UNL     1      15.579  52.322  80.291  1.00  0.00     0.011 A
ENDBRANCH  40  45
ENDBRANCH  36  38
ENDBRANCH  11  36
BRANCH   1  48
HETATM   48  C2  UNL     1       8.617  50.007  85.324  1.00  0.00     0.072 C
HETATM   49  C1  UNL     1       7.831  50.234  86.628  1.00  0.00     0.031 C
HETATM   50  C3  UNL     1       8.239  51.031  84.289  1.00  0.00     0.031 C
ENDBRANCH   1  48
TORSDOF 11
ENDMDL