MODEL 5
REMARK VINA RESULT: -7.844213159      1.175      1.472
REMARK  8 active torsions:
REMARK  status: ('A' for Active; 'I' for Inactive)
REMARK    1  A    between atoms: C3_5  and  C4_6
REMARK    2  A    between atoms: C4_6  and  C5_7
REMARK    3  A    between atoms: C5_7  and  C6_8
REMARK    4  A    between atoms: C6_8  and  N2_9
REMARK    5  A    between atoms: N3_12  and  C9_13
REMARK    6  A    between atoms: C9_13  and  C10_14
REMARK    7  A    between atoms: C20_32  and  C21_33
REMARK    8  A    between atoms: N7_39  and  C27_40
ROOT
HETATM    1  N2  UNL     1       7.199  51.503  87.321  1.00  0.00    -0.390 N
HETATM    2  C7  UNL     1       6.747  51.412  88.647  1.00  0.00     0.152 C
HETATM    3  C8  UNL     1       7.564  52.270  89.620  1.00  0.00     0.292 C
HETATM    4  N3  UNL     1       7.685  53.616  89.177  1.00  0.00     0.095 N
HETATM    5  C18 UNL     1       7.231  53.834  87.830  1.00  0.00     0.292 C
HETATM    6  C19 UNL     1       7.662  52.760  86.860  1.00  0.00     0.152 C
ENDROOT
BRANCH   1   7
HETATM    7  C6  UNL     1       6.778  50.553  86.386  1.00  0.00     0.058 C
BRANCH   7   8
HETATM    8  C5  UNL     1       7.591  49.307  86.275  1.00  0.00     0.049 C
BRANCH   8   9
HETATM    9  C4  UNL     1       8.024  49.117  84.822  1.00  0.00     0.052 C
BRANCH   9  10
HETATM   10  C3  UNL     1       8.903  50.166  84.358  1.00  0.00     0.041 A
HETATM   11  C2  UNL     1       8.534  51.177  83.490  1.00  0.00     0.270 A
HETATM   12  N1  UNL     1       9.558  51.997  83.333  1.00  0.00    -0.254 N
HETATM   13  O1  UNL     1       7.411  51.263  82.963  1.00  0.00    -0.266 OA
HETATM   14  C1  UNL     1       9.581  53.197  82.482  1.00  0.00     0.182 C
HETATM   15  N7  UNL     1      10.600  51.563  84.070  1.00  0.00    -0.251 N
HETATM   16  C20 UNL     1      10.206  50.422  84.712  1.00  0.00     0.079 A
BRANCH  15  17
HETATM   17  C27 UNL     1      11.845  52.236  84.068  1.00  0.00     0.057 A
HETATM   18  C28 UNL     1      12.839  51.964  83.124  1.00  0.00     0.031 A
HETATM   19  C29 UNL     1      14.040  52.636  83.099  1.00  0.00     0.002 A
HETATM   20  C30 UNL     1      14.321  53.623  84.017  1.00  0.00     0.000 A
HETATM   21  C31 UNL     1      13.359  53.913  84.960  1.00  0.00     0.002 A
HETATM   22  C32 UNL     1      12.156  53.238  84.984  1.00  0.00     0.031 A
ENDBRANCH  15  17
BRANCH  16  23
HETATM   23  C21 UNL     1      11.155  49.608  85.475  1.00  0.00    -0.007 A
HETATM   24  C22 UNL     1      11.269  49.737  86.836  1.00  0.00     0.014 A
HETATM   25  C23 UNL     1      12.219  49.077  87.608  1.00  0.00     0.001 A
HETATM   26  C24 UNL     1      13.109  48.237  86.996  1.00  0.00     0.000 A
HETATM   27  C25 UNL     1      13.042  48.065  85.637  1.00  0.00     0.001 A
HETATM   28  C26 UNL     1      12.073  48.746  84.886  1.00  0.00     0.014 A
ENDBRANCH  16  23
ENDBRANCH   9  10
ENDBRANCH   8   9
ENDBRANCH   7   8
ENDBRANCH   1   7
BRANCH   4  29
HETATM   29  C9  UNL     1       9.133  53.958  89.185  1.00  0.00     0.302 C
BRANCH  29  30
HETATM   30  C10 UNL     1       9.873  53.175  90.123  1.00  0.00     0.033 C
HETATM   31  C11 UNL     1      11.056  53.073  90.639  1.00  0.00     0.046 A
HETATM   32  N4  UNL     1      11.310  52.015  91.620  1.00  0.00    -0.332 N
HETATM   33  C17 UNL     1      12.205  53.937  90.354  1.00  0.00     0.035 A
HETATM   34  C12 UNL     1      12.566  51.868  92.217  1.00  0.00     0.177 A
ATOM     35  H4  UNL     1      10.557  51.376  91.873  1.00  0.00     0.168 HD
HETATM   36  S1  UNL     1      12.767  50.652  93.309  1.00  0.00    -0.040 SA
HETATM   37  N5  UNL     1      13.658  52.709  91.925  1.00  0.00    -0.318 N
HETATM   38  C13 UNL     1      13.433  53.761  90.962  1.00  0.00     0.122 A
ATOM     39  H5  UNL     1      14.565  52.582  92.373  1.00  0.00     0.170 HD
HETATM   40  N6  UNL     1      14.482  54.576  90.702  1.00  0.00    -0.309 N
HETATM   41  C14 UNL     1      14.391  55.593  89.847  1.00  0.00     0.246 A
ATOM     42  H6  UNL     1      15.369  54.406  91.175  1.00  0.00     0.170 HD
HETATM   43  O2  UNL     1      15.369  56.335  89.618  1.00  0.00    -0.268 OA
HETATM   44  C15 UNL     1      13.188  55.801  89.224  1.00  0.00     0.075 A
HETATM   45  C16 UNL     1      12.108  54.982  89.477  1.00  0.00     0.023 A
ENDBRANCH  29  30
ENDBRANCH   4  29
TORSDOF 8
ENDMDL