MODEL 3
REMARK VINA RESULT: -8.375831431      3.825     12.532
REMARK  9 active torsions:
REMARK  status: ('A' for Active; 'I' for Inactive)
REMARK    1  A    between atoms: N3_8  and  C5_10
REMARK    2  A    between atoms: C5_10  and  C6_11
REMARK    3  A    between atoms: C6_11  and  C7_12
REMARK    4  A    between atoms: C7_12  and  C8_13
REMARK    5  A    between atoms: C11_22  and  N7_23
REMARK    6  A    between atoms: N7_23  and  C12_24
REMARK    7  A    between atoms: C15_27  and  N8_28
REMARK    8  A    between atoms: N8_28  and  S1_30
REMARK    9  A    between atoms: S1_30  and  N9_33
ROOT
HETATM    1  C1  UNL     1      14.440  49.577  93.731  1.00  0.00     0.158 C
HETATM    2  N1  UNL     1      14.016  50.881  94.129  1.00  0.00    -0.332 N
HETATM    3  C2  UNL     1      14.317  51.490  95.288  1.00  0.00     0.184 A
HETATM    4  N2  UNL     1      13.762  52.703  95.345  1.00  0.00    -0.346 N
ATOM      5  H2  UNL     1      13.835  53.371  96.113  1.00  0.00     0.167 HD
HETATM    6  C3  UNL     1      13.095  52.871  94.203  1.00  0.00     0.122 A
HETATM    7  C4  UNL     1      12.336  53.954  93.740  1.00  0.00     0.135 A
HETATM    8  N3  UNL     1      12.228  54.990  94.530  1.00  0.00    -0.374 N
ATOM      9  H3  UNL     1      12.689  54.979  95.440  1.00  0.00     0.161 HD
HETATM   10  N6  UNL     1      11.783  53.846  92.562  1.00  0.00    -0.301 N
ATOM     11  H6  UNL     1      11.229  54.632  92.222  1.00  0.00     0.171 HD
HETATM   12  C11 UNL     1      11.897  52.735  91.743  1.00  0.00     0.257 A
HETATM   13  N10 UNL     1      12.657  51.696  92.248  1.00  0.00    -0.300 N
ATOM     14  H10 UNL     1      12.772  50.855  91.683  1.00  0.00     0.171 HD
HETATM   15  C28 UNL     1      13.242  51.748  93.436  1.00  0.00     0.142 A
ENDROOT
BRANCH  12  16
HETATM   16  N7  UNL     1      11.369  52.713  90.696  1.00  0.00    -0.410 NA
BRANCH  16  17
HETATM   17  C12 UNL     1      10.847  52.661  89.486  1.00  0.00     0.167 C
HETATM   18  C13 UNL     1      10.115  53.959  89.061  1.00  0.00     0.041 C
HETATM   19  C14 UNL     1       9.144  53.579  87.969  1.00  0.00     0.029 C
HETATM   20  C15 UNL     1       9.796  52.726  86.925  1.00  0.00     0.094 C
HETATM   21  C26 UNL     1      11.317  52.832  87.014  1.00  0.00     0.029 C
HETATM   22  C27 UNL     1      11.826  52.352  88.339  1.00  0.00     0.041 C
BRANCH  20  23
HETATM   23  N8  UNL     1       9.400  53.105  85.606  1.00  0.00    -0.302 N
ATOM     24  H8  UNL     1       9.356  54.081  85.311  1.00  0.00     0.173 HD
BRANCH  23  25
HETATM   25  S1  UNL     1       9.008  51.828  84.564  1.00  0.00     0.299 S
HETATM   26  O1  UNL     1       7.709  52.086  83.818  1.00  0.00    -0.188 OA
HETATM   27  O2  UNL     1       8.696  50.623  85.448  1.00  0.00    -0.188 OA
BRANCH  25  28
HETATM   28  N9  UNL     1      10.234  51.365  83.465  1.00  0.00    -0.193 NA
HETATM   29  C16 UNL     1      11.331  50.777  84.204  1.00  0.00     0.109 C
HETATM   30  C17 UNL     1      12.296  50.185  83.220  1.00  0.00     0.025 C
HETATM   31  C18 UNL     1      12.875  51.346  82.405  1.00  0.00    -0.038 C
HETATM   32  C19 UNL     1      13.671  52.179  83.350  1.00  0.00     0.010 C
HETATM   33  C23 UNL     1      13.704  50.685  81.316  1.00  0.00     0.010 C
HETATM   34  C24 UNL     1      11.781  52.130  81.727  1.00  0.00     0.025 C
HETATM   35  C20 UNL     1      14.807  52.938  82.751  1.00  0.00     0.001 C
HETATM   36  C21 UNL     1      15.635  52.031  81.867  1.00  0.00     0.000 C
HETATM   37  C22 UNL     1      14.697  51.633  80.717  1.00  0.00     0.001 C
HETATM   38  C25 UNL     1      10.628  52.467  82.657  1.00  0.00     0.109 C
ENDBRANCH  25  28
ENDBRANCH  23  25
ENDBRANCH  20  23
ENDBRANCH  16  17
ENDBRANCH  12  16
BRANCH   8  39
HETATM   39  C5  UNL     1      11.472  56.140  94.137  1.00  0.00     0.121 C
BRANCH  39  40
HETATM   40  C6  UNL     1      11.774  57.297  95.099  1.00  0.00     0.024 C
BRANCH  40  41
HETATM   41  C7  UNL     1      10.637  58.304  95.048  1.00  0.00     0.043 C
BRANCH  41  42
HETATM   42  C8  UNL     1       9.466  57.722  95.740  1.00  0.00    -0.024 A
HETATM   43  C9  UNL     1       9.515  57.044  96.929  1.00  0.00     0.115 A
HETATM   44  N4  UNL     1       8.260  56.682  97.213  1.00  0.00    -0.312 N
HETATM   45  N5  UNL     1       7.451  57.098  96.271  1.00  0.00    -0.312 N
ATOM     46  H4  UNL     1       7.974  56.159  98.042  1.00  0.00     0.186 HD
HETATM   47  C10 UNL     1       8.144  57.769  95.297  1.00  0.00     0.115 A
ATOM     48  H5  UNL     1       6.443  56.944  96.263  1.00  0.00     0.186 HD
ENDBRANCH  41  42
ENDBRANCH  40  41
ENDBRANCH  39  40
ENDBRANCH   8  39
TORSDOF 9
ENDMDL