MODEL 3
REMARK VINA RESULT: -6.704765168      3.138      9.770
REMARK  11 active torsions:
REMARK  status: ('A' for Active; 'I' for Inactive)
REMARK    1  A    between atoms: C2_2  and  N1_3
REMARK    2  A    between atoms: N1_3  and  C3_4
REMARK    3  A    between atoms: N1_3  and  C30_42
REMARK    4  A    between atoms: C3_4  and  C4_5
REMARK       I    between atoms: C4_5  and  N2_7
REMARK    5  A    between atoms: N2_7  and  C5_9
REMARK    6  A    between atoms: C9_13  and  C10_14
REMARK    7  A    between atoms: C12_16  and  O2_17
REMARK    8  A    between atoms: C13_19  and  O3_20
REMARK    9  A    between atoms: C14_22  and  N3_23
REMARK   10  A    between atoms: C23_33  and  O5_34
REMARK   11  A    between atoms: C30_42  and  C31_43
ROOT
HETATM    1  C5  UNL     1       9.799  53.256  84.266  1.00  0.00     0.084 C
HETATM    2  C6  UNL     1       8.528  52.858  83.557  1.00  0.00     0.025 C
HETATM    3  C7  UNL     1       8.542  51.469  83.013  1.00  0.00     0.007 C
HETATM    4  C8  UNL     1       9.732  51.184  82.142  1.00  0.00    -0.005 C
HETATM    5  C9  UNL     1       9.764  52.055  80.916  1.00  0.00    -0.005 C
HETATM    6  C20 UNL     1      11.055  52.010  80.200  1.00  0.00     0.011 C
HETATM    7  C21 UNL     1      12.096  51.110  80.760  1.00  0.00    -0.003 C
HETATM    8  C22 UNL     1      13.436  51.553  80.152  1.00  0.00     0.037 C
HETATM    9  C23 UNL     1      14.586  50.853  80.844  1.00  0.00     0.118 C
HETATM   10  C24 UNL     1      14.700  51.446  82.221  1.00  0.00     0.032 C
HETATM   11  C25 UNL     1      13.367  51.932  82.756  1.00  0.00     0.012 C
HETATM   12  C26 UNL     1      12.223  51.085  82.247  1.00  0.00    -0.036 C
HETATM   13  C27 UNL     1      12.532  49.652  82.686  1.00  0.00     0.016 C
HETATM   14  C28 UNL     1      10.956  51.496  82.963  1.00  0.00     0.000 C
HETATM   15  C29 UNL     1      10.978  52.941  83.396  1.00  0.00     0.031 C
ENDROOT
BRANCH   5  16
HETATM   16  C10 UNL     1       8.565  51.740  80.000  1.00  0.00    -0.006 C
HETATM   17  C11 UNL     1       7.486  52.723  80.171  1.00  0.00     0.039 C
HETATM   18  C12 UNL     1       6.864  53.300  78.970  1.00  0.00     0.149 C
HETATM   19  C13 UNL     1       7.402  52.940  77.653  1.00  0.00     0.180 C
HETATM   20  C14 UNL     1       8.163  51.679  77.503  1.00  0.00     0.254 C
HETATM   21  C19 UNL     1       9.120  51.548  78.643  1.00  0.00     0.043 C
BRANCH  18  22
HETATM   22  O2  UNL     1       6.839  54.718  79.054  1.00  0.00    -0.393 OA
ATOM     23  H2  UNL     1       6.073  55.063  78.610  1.00  0.00     0.210 HD
ENDBRANCH  18  22
BRANCH  19  24
HETATM   24  O3  UNL     1       8.239  53.996  77.210  1.00  0.00    -0.391 OA
ATOM     25  H3  UNL     1       8.390  53.886  76.278  1.00  0.00     0.210 HD
ENDBRANCH  19  24
BRANCH  20  26
HETATM   26  N3  UNL     1       7.437  50.498  77.191  1.00  0.00     0.099 N
HETATM   27  C15 UNL     1       6.443  50.526  76.202  1.00  0.00     0.299 C
HETATM   28  C16 UNL     1       6.140  49.061  75.830  1.00  0.00     0.198 C
HETATM   29  O4  UNL     1       6.211  48.233  76.926  1.00  0.00    -0.388 OA
HETATM   30  C17 UNL     1       7.527  48.072  77.335  1.00  0.00     0.198 C
HETATM   31  C18 UNL     1       8.281  49.335  76.998  1.00  0.00     0.299 C
ENDBRANCH  20  26
ENDBRANCH   5  16
BRANCH   1  32
HETATM   32  N2  UNL     1       9.910  52.646  85.568  1.00  0.00    -0.355 N
HETATM   33  C4  UNL     1      11.063  52.815  86.395  1.00  0.00     0.246 C
HETATM   34  O1  UNL     1      11.999  53.524  85.947  1.00  0.00    -0.272 OA
ATOM     35  H2  UNL     1       9.138  52.075  85.911  1.00  0.00     0.162 HD
BRANCH  33  36
HETATM   36  C3  UNL     1      11.115  52.178  87.696  1.00  0.00     0.375 C
BRANCH  36  37
HETATM   37  N1  UNL     1      10.863  52.987  88.842  1.00  0.00     0.102 N
BRANCH  37  38
HETATM   38  C2  UNL     1       9.463  52.912  89.261  1.00  0.00     0.269 C
HETATM   39  C1  UNL     1       8.858  54.281  89.071  1.00  0.00     0.037 C
ENDBRANCH  37  38
BRANCH  37  40
HETATM   40  C30 UNL     1      11.724  52.691  89.979  1.00  0.00     0.337 C
BRANCH  40  41
HETATM   41  C31 UNL     1      12.718  53.790  90.084  1.00  0.00     0.080 A
HETATM   42  C32 UNL     1      12.584  54.994  89.387  1.00  0.00     0.036 A
HETATM   43  C33 UNL     1      13.656  55.803  89.690  1.00  0.00     0.027 A
HETATM   44  C34 UNL     1      14.415  55.037  90.580  1.00  0.00     0.142 A
HETATM   45  O6  UNL     1      13.819  53.881  90.769  1.00  0.00    -0.325 OA
ENDBRANCH  40  41
ENDBRANCH  37  40
ENDBRANCH  36  37
ENDBRANCH  33  36
ENDBRANCH   1  32
BRANCH   9  46
HETATM   46  O5  UNL     1      15.736  51.148  80.079  1.00  0.00    -0.396 OA
ATOM     47  H5  UNL     1      16.378  50.487  80.309  1.00  0.00     0.210 HD
ENDBRANCH   9  46
TORSDOF 11
ENDMDL