MODEL 3
REMARK VINA RESULT: -9.172893329      1.663      2.264
REMARK  11 active torsions:
REMARK  status: ('A' for Active; 'I' for Inactive)
REMARK    1  A    between atoms: C4_4  and  N1_5
REMARK    2  A    between atoms: N1_5  and  C5_7
REMARK    3  A    between atoms: C6_10  and  N3_11
REMARK    4  A    between atoms: N3_11  and  C7_13
REMARK    5  A    between atoms: C16_22  and  C17_23
REMARK    6  A    between atoms: C22_32  and  N6_33
REMARK    7  A    between atoms: N6_33  and  C23_35
REMARK    8  A    between atoms: C23_35  and  C24_36
REMARK    9  A    between atoms: C24_36  and  C25_37
REMARK   10  A    between atoms: C25_37  and  C26_38
REMARK   11  A    between atoms: C26_38  and  N7_39
ROOT
HETATM    1  C5  UNL     1      10.730  53.120  87.902  1.00  0.00     0.713 A
HETATM    2  N2  UNL     1      10.942  52.679  86.653  1.00  0.00    -0.021 N
ATOM      3  H2  UNL     1      10.249  52.073  86.216  1.00  0.00     0.203 HD
HETATM    4  C6  UNL     1      12.067  53.022  85.951  1.00  0.00     0.707 A
HETATM    5  N5  UNL     1      12.939  53.811  86.561  1.00  0.00    -0.022 N
ATOM      6  H5  UNL     1      13.782  54.077  86.052  1.00  0.00     0.203 HD
HETATM    7  C22 UNL     1      12.777  54.291  87.834  1.00  0.00     0.707 A
HETATM    8  N9  UNL     1      11.652  53.918  88.469  1.00  0.00    -0.021 N
ATOM      9  H9  UNL     1      11.491  54.254  89.418  1.00  0.00     0.203 HD
ENDROOT
BRANCH   4  10
HETATM   10  N3  UNL     1      12.156  52.549  84.786  1.00  0.00    -0.219 N
ATOM     11  H3  UNL     1      11.259  52.393  84.325  1.00  0.00     0.178 HD
BRANCH  10  12
HETATM   12  C7  UNL     1      13.284  52.195  84.005  1.00  0.00     0.114 C
HETATM   13  C8  UNL     1      14.071  53.428  83.566  1.00  0.00     0.031 C
HETATM   14  C9  UNL     1      15.291  53.005  82.819  1.00  0.00     0.041 C
HETATM   15  C10 UNL     1      14.904  52.131  81.691  1.00  0.00    -0.051 A
HETATM   16  C11 UNL     1      15.742  52.178  80.566  1.00  0.00     0.007 A
HETATM   17  C15 UNL     1      13.809  51.331  81.736  1.00  0.00    -0.040 A
HETATM   18  C12 UNL     1      15.470  51.400  79.462  1.00  0.00     0.001 A
HETATM   19  C13 UNL     1      14.363  50.584  79.492  1.00  0.00     0.001 A
HETATM   20  C14 UNL     1      13.547  50.553  80.616  1.00  0.00     0.008 A
HETATM   21  C16 UNL     1      12.926  51.266  82.907  1.00  0.00     0.092 C
BRANCH  21  22
HETATM   22  C17 UNL     1      11.489  51.267  82.541  1.00  0.00     0.019 A
HETATM   23  C18 UNL     1      10.953  52.313  81.861  1.00  0.00     0.026 A
HETATM   24  C19 UNL     1       9.612  52.364  81.495  1.00  0.00     0.003 A
HETATM   25  C20 UNL     1       8.804  51.302  81.842  1.00  0.00     0.017 A
HETATM   26  C21 UNL     1       9.361  50.244  82.533  1.00  0.00     0.088 A
HETATM   27  N4  UNL     1      10.665  50.254  82.858  1.00  0.00    -0.369 N
ATOM     28  H4  UNL     1      11.045  49.458  83.369  1.00  0.00     0.165 HD
ENDBRANCH  21  22
ENDBRANCH  10  12
ENDBRANCH   4  10
BRANCH   1  29
HETATM   29  N1  UNL     1       9.574  52.778  88.651  1.00  0.00    -0.174 N
ATOM     30  H1  UNL     1       9.529  51.889  89.150  1.00  0.00     0.186 HD
BRANCH  29  31
HETATM   31  C4  UNL     1       8.578  53.600  88.696  1.00  0.00     0.137 A
HETATM   32  C3  UNL     1       7.503  53.552  87.802  1.00  0.00     0.076 A
HETATM   33  C2  UNL     1       6.615  54.559  88.122  1.00  0.00     0.025 A
HETATM   34  C1  UNL     1       5.328  54.862  87.416  1.00  0.00     0.070 C
HETATM   35  N11 UNL     1       7.150  55.194  89.184  1.00  0.00    -0.304 N
HETATM   36  N10 UNL     1       8.313  54.615  89.515  1.00  0.00    -0.285 N
ATOM     37  H11 UNL     1       6.733  55.992  89.663  1.00  0.00     0.186 HD
ATOM     38  H10 UNL     1       8.911  54.912  90.286  1.00  0.00     0.188 HD
ENDBRANCH  29  31
ENDBRANCH   1  29
BRANCH   7  39
HETATM   39  N6  UNL     1      13.679  55.048  88.340  1.00  0.00    -0.225 N
ATOM     40  H6  UNL     1      14.559  55.142  87.834  1.00  0.00     0.177 HD
BRANCH  39  41
HETATM   41  C23 UNL     1      13.534  55.769  89.569  1.00  0.00     0.138 C
BRANCH  41  42
HETATM   42  C24 UNL     1      14.440  55.063  90.585  1.00  0.00     0.022 C
BRANCH  42  43
HETATM   43  C25 UNL     1      13.593  54.691  91.745  1.00  0.00     0.021 C
BRANCH  43  44
HETATM   44  C26 UNL     1      13.264  53.251  91.913  1.00  0.00     0.117 C
BRANCH  44  45
HETATM   45  N7  UNL     1      13.270  52.706  93.214  1.00  0.00    -0.411 N
HETATM   46  C27 UNL     1      12.172  52.961  94.058  1.00  0.00     0.118 C
HETATM   47  C28 UNL     1      12.596  53.567  95.406  1.00  0.00     0.050 C
HETATM   48  C29 UNL     1      13.099  52.375  96.210  1.00  0.00     0.273 C
HETATM   49  N8  UNL     1      14.313  51.943  95.538  1.00  0.00     0.085 N
HETATM   50  C30 UNL     1      15.405  51.745  96.440  1.00  0.00     0.309 C
HETATM   51  C31 UNL     1      14.065  50.865  94.627  1.00  0.00     0.291 C
HETATM   52  C32 UNL     1      13.829  51.399  93.234  1.00  0.00     0.147 C
ENDBRANCH  44  45
ENDBRANCH  43  44
ENDBRANCH  42  43
ENDBRANCH  41  42
ENDBRANCH  39  41
ENDBRANCH   7  39
TORSDOF 11
ENDMDL