MODEL 1
REMARK VINA RESULT: -6.863893217      0.000      0.000
REMARK  13 active torsions:
REMARK  status: ('A' for Active; 'I' for Inactive)
REMARK    1  A    between atoms: C3_3  and  C4_4
REMARK    2  A    between atoms: C4_4  and  N1_5
REMARK    3  A    between atoms: N1_5  and  C6_7
REMARK    4  A    between atoms: C6_7  and  C7_8
REMARK    5  A    between atoms: C9_10  and  S1_11
REMARK    6  A    between atoms: S1_11  and  C10_12
REMARK    7  A    between atoms: C15_20  and  N2_21
REMARK    8  A    between atoms: N2_21  and  C16_23
REMARK    9  A    between atoms: C16_23  and  O3_24
REMARK   10  A    between atoms: C16_23  and  C17_26
REMARK   11  A    between atoms: C21_32  and  C23_34
REMARK   12  A    between atoms: C23_34  and  O5_36
REMARK   13  A    between atoms: O5_36  and  C24_37
ROOT
HETATM    1  C10 UNL     1      14.855   4.275  13.659  1.00  0.00     0.086 C
HETATM    2  C11 UNL     1      13.887   4.111  12.474  1.00  0.00     0.158 C
HETATM    3  S2  UNL     1      14.947   4.848  11.217  1.00  0.00     0.155 S
HETATM    4  O1  UNL     1      15.882   3.801  10.728  1.00  0.00    -0.227 OA
HETATM    5  O2  UNL     1      14.156   5.511  10.156  1.00  0.00    -0.227 OA
HETATM    6  C12 UNL     1      15.775   6.017  12.295  1.00  0.00     0.078 C
HETATM    7  C13 UNL     1      17.279   5.906  12.145  1.00  0.00     0.034 C
HETATM    8  C14 UNL     1      15.347   7.386  11.828  1.00  0.00     0.034 C
HETATM    9  C15 UNL     1      15.315   5.684  13.679  1.00  0.00     0.120 C
ENDROOT
BRANCH   9  10
HETATM   10  N2  UNL     1      14.288   6.602  14.159  1.00  0.00    -0.367 N
ATOM     11  H2  UNL     1      13.375   6.598  13.703  1.00  0.00     0.161 HD
BRANCH  10  12
HETATM   12  C16 UNL     1      14.506   7.492  15.224  1.00  0.00     0.117 C
BRANCH  12  13
HETATM   13  O3  UNL     1      15.765   7.804  15.372  1.00  0.00    -0.349 OA
ATOM     14  H3  UNL     1      16.122   7.508  16.201  1.00  0.00     0.219 HD
ENDBRANCH  12  13
BRANCH  12  15
HETATM   15  C17 UNL     1      13.587   8.088  16.149  1.00  0.00     0.088 C
HETATM   16  C18 UNL     1      12.195   7.449  16.169  1.00  0.00     0.035 C
HETATM   17  C19 UNL     1      12.066   6.337  17.184  1.00  0.00     0.014 C
HETATM   18  C20 UNL     1      11.696   8.795  16.680  1.00  0.00     0.134 C
HETATM   19 CL1  UNL     1      10.126   9.306  16.118  1.00  0.00    -0.100 Cl
HETATM   20 CL2  UNL     1      11.835   8.883  18.442  1.00  0.00    -0.100 Cl
HETATM   21  C21 UNL     1      12.909   9.395  15.929  1.00  0.00     0.091 C
HETATM   22  C22 UNL     1      13.477  10.540  16.787  1.00  0.00     0.030 C
BRANCH  21  23
HETATM   23  C23 UNL     1      12.567   9.877  14.605  1.00  0.00     0.271 C
HETATM   24  O4  UNL     1      12.120  11.073  14.511  1.00  0.00    -0.264 OA
BRANCH  23  25
HETATM   25  O5  UNL     1      12.662   9.194  13.407  1.00  0.00    -0.321 OA
BRANCH  25  26
HETATM   26  C24 UNL     1      11.561   8.510  12.855  1.00  0.00     0.174 C
HETATM   27  C25 UNL     1      11.787   8.076  11.423  1.00  0.00     0.034 C
ENDBRANCH  25  26
ENDBRANCH  23  25
ENDBRANCH  21  23
ENDBRANCH  12  15
ENDBRANCH  10  12
ENDBRANCH   9  10
BRANCH   1  28
HETATM   28  S1  UNL     1      14.001   3.788  15.182  1.00  0.00    -0.155 SA
BRANCH  28  29
HETATM   29  C9  UNL     1      15.249   3.310  16.366  1.00  0.00     0.075 C
HETATM   30  C8  UNL     1      16.030   4.505  16.932  1.00  0.00     0.051 C
HETATM   31  C7  UNL     1      16.765   3.766  18.063  1.00  0.00     0.215 C
HETATM   32  N3  UNL     1      15.815   2.880  18.621  1.00  0.00    -0.068 N
HETATM   33  C26 UNL     1      14.745   2.695  17.629  1.00  0.00     0.247 C
ATOM     34  H32 UNL     1      16.226   2.000  18.931  1.00  0.00     0.277 HD
ATOM     35  H31 UNL     1      15.466   3.191  19.528  1.00  0.00     0.277 HD
BRANCH  31  36
HETATM   36  C6  UNL     1      17.464   4.710  18.968  1.00  0.00     0.305 C
BRANCH  36  37
HETATM   37  N1  UNL     1      18.810   5.059  18.666  1.00  0.00     0.089 N
HETATM   38  C5  UNL     1      19.636   3.909  19.052  1.00  0.00     0.310 C
BRANCH  37  39
HETATM   39  C4  UNL     1      19.349   6.230  19.262  1.00  0.00     0.299 C
BRANCH  39  40
HETATM   40  C3  UNL     1      20.093   7.072  18.250  1.00  0.00    -0.002 C
HETATM   41  C2  UNL     1      21.414   6.971  18.177  1.00  0.00    -0.033 C
HETATM   42  C1  UNL     1      22.175   7.780  17.198  1.00  0.00     0.036 C
ENDBRANCH  39  40
ENDBRANCH  37  39
ENDBRANCH  36  37
ENDBRANCH  31  36
ENDBRANCH  28  29
ENDBRANCH   1  28
TORSDOF 13
ENDMDL