MODEL 4
REMARK VINA RESULT: -5.721522909      2.602      4.762
REMARK  13 active torsions:
REMARK  status: ('A' for Active; 'I' for Inactive)
REMARK    1  A    between atoms: C3_5  and  C4_6
REMARK    2  A    between atoms: N2_12  and  C9_13
REMARK    3  A    between atoms: C10_16  and  C11_17
REMARK       I    between atoms: C11_17  and  N3_19
REMARK    4  A    between atoms: N3_19  and  C12_21
REMARK    5  A    between atoms: C12_21  and  C13_22
REMARK    6  A    between atoms: C12_21  and  C14_29
REMARK    7  A    between atoms: C13_22  and  N4_23
REMARK    8  A    between atoms: N4_23  and  N5_25
REMARK    9  A    between atoms: N5_25  and  N6_26
REMARK   10  A    between atoms: C17_32  and  C18_33
REMARK   11  A    between atoms: C20_37  and  C21_38
REMARK   12  A    between atoms: C21_38  and  S1_39
REMARK   13  A    between atoms: S1_39  and  C22_40
ROOT
HETATM    1  C1  UNL     1       8.509   8.695  18.197  1.00  0.00     0.074 C
HETATM    2  C2  UNL     1       9.774   8.353  17.528  1.00  0.00     0.074 C
HETATM    3  N1  UNL     1      10.666   7.791  18.217  1.00  0.00    -0.358 N
ATOM      4  H1  UNL     1      10.323   7.675  19.171  1.00  0.00     0.165 HD
HETATM    5  C3  UNL     1      12.030   7.242  18.131  1.00  0.00     0.029 C
HETATM    6  C7  UNL     1      12.928   7.472  17.239  1.00  0.00     0.068 A
HETATM    7  C8  UNL     1      14.072   6.740  17.551  1.00  0.00     0.261 A
HETATM    8  O1  UNL     1      14.283   6.127  18.610  1.00  0.00    -0.267 OA
HETATM    9  N2  UNL     1      15.115   6.696  16.568  1.00  0.00    -0.274 N
HETATM   10  C10 UNL     1      15.043   7.275  15.267  1.00  0.00     0.226 A
HETATM   11  C17 UNL     1      13.803   8.079  14.979  1.00  0.00     0.064 A
HETATM   12  C19 UNL     1      12.908   8.152  15.868  1.00  0.00     0.021 A
HETATM   13  C20 UNL     1      12.098   9.295  15.468  1.00  0.00     0.034 C
HETATM   14  N8  UNL     1      10.846   9.598  15.529  1.00  0.00    -0.324 N
ATOM     15  H8  UNL     1      10.585  10.501  15.132  1.00  0.00     0.169 HD
HETATM   16  C27 UNL     1       9.744   8.800  16.103  1.00  0.00     0.268 C
HETATM   17  O5  UNL     1       8.813   8.510  15.419  1.00  0.00    -0.266 OA
ENDROOT
BRANCH  10  18
HETATM   18  C11 UNL     1      15.292   6.263  14.218  1.00  0.00     0.246 C
HETATM   19  O2  UNL     1      16.407   6.247  13.662  1.00  0.00    -0.271 OA
HETATM   20  N3  UNL     1      14.342   5.302  13.797  1.00  0.00    -0.352 N
ATOM     21  H3  UNL     1      13.427   5.311  14.249  1.00  0.00     0.163 HD
BRANCH  20  22
HETATM   22  C12 UNL     1      14.570   4.314  12.776  1.00  0.00     0.108 C
BRANCH  22  23
HETATM   23  C13 UNL     1      13.756   3.080  12.927  1.00  0.00     0.181 C
BRANCH  23  24
HETATM   24  N4  UNL     1      13.069   2.916  14.165  1.00  0.00    -0.251 N
ATOM     25  H4  UNL     1      12.153   3.344  14.298  1.00  0.00     0.197 HD
BRANCH  24  26
HETATM   26  N5  UNL     1      13.568   2.271  15.058  1.00  0.00    -0.248 NA
BRANCH  26  27
HETATM   27  N6  UNL     1      13.926   1.669  16.083  1.00  0.00    -0.261 N
ATOM     28  H62 UNL     1      13.431   2.381  16.619  1.00  0.00     0.193 HD
ATOM     29  H61 UNL     1      14.293   1.071  16.823  1.00  0.00     0.193 HD
ENDBRANCH  26  27
ENDBRANCH  24  26
ENDBRANCH  23  24
ENDBRANCH  22  23
BRANCH  22  30
HETATM   30  C14 UNL     1      14.599   4.928  11.416  1.00  0.00     0.002 C
HETATM   31  C15 UNL     1      13.326   5.528  10.938  1.00  0.00     0.011 C
HETATM   32  C16 UNL     1      15.201   3.956  10.420  1.00  0.00     0.011 C
ENDBRANCH  22  30
ENDBRANCH  20  22
ENDBRANCH  10  18
BRANCH   9  33
HETATM   33  C9  UNL     1      16.346   6.018  17.005  1.00  0.00     0.464 C
HETATM   34  F1  UNL     1      17.435   6.730  16.541  1.00  0.00    -0.191 F
HETATM   35  F2  UNL     1      16.392   4.701  16.631  1.00  0.00    -0.191 F
ENDBRANCH   9  33
BRANCH  11  36
HETATM   36  C18 UNL     1      13.541   8.423  13.571  1.00  0.00     0.208 C
HETATM   37  O3  UNL     1      12.496   8.063  12.998  1.00  0.00    -0.644 OA
HETATM   38  O4  UNL     1      14.400   9.154  12.777  1.00  0.00    -0.644 OA
ENDBRANCH  11  36
BRANCH  13  39
HETATM   39  C21 UNL     1      12.972  10.466  15.214  1.00  0.00     0.139 C
BRANCH  39  40
HETATM   40  S1  UNL     1      12.944  11.501  16.781  1.00  0.00    -0.106 SA
BRANCH  40  41
HETATM   41  C22 UNL     1      14.082  10.668  17.885  1.00  0.00     0.069 A
HETATM   42  C23 UNL     1      13.695  10.352  19.186  1.00  0.00     0.037 A
HETATM   43  C24 UNL     1      14.551   9.710  20.054  1.00  0.00     0.004 A
HETATM   44  C25 UNL     1      15.823   9.367  19.639  1.00  0.00     0.017 A
HETATM   45  C26 UNL     1      16.197   9.683  18.354  1.00  0.00     0.089 A
HETATM   46  N7  UNL     1      15.330  10.309  17.539  1.00  0.00    -0.361 N
ATOM     47  H7  UNL     1      15.642  10.526  16.592  1.00  0.00     0.165 HD
ENDBRANCH  40  41
ENDBRANCH  39  40
ENDBRANCH  13  39
BRANCH   5  48
HETATM   48  C4  UNL     1      12.112   6.264  19.176  1.00  0.00     0.028 C
HETATM   49  C5  UNL     1      11.501   6.809  20.500  1.00  0.00     0.016 C
HETATM   50  C6  UNL     1      10.931   5.277  18.738  1.00  0.00     0.016 C
ENDBRANCH   5  48
TORSDOF 13
ENDMDL