MODEL 5
REMARK VINA RESULT: -7.610684331      1.094      1.434
REMARK  15 active torsions:
REMARK  status: ('A' for Active; 'I' for Inactive)
REMARK    1  A    between atoms: C2_2  and  O1_3
REMARK    2  A    between atoms: O1_3  and  C3_4
REMARK       I    between atoms: C3_4  and  N1_6
REMARK    3  A    between atoms: N2_9  and  C6_10
REMARK    4  A    between atoms: C6_10  and  O3_11
REMARK    5  A    between atoms: C6_10  and  C7_13
REMARK    6  A    between atoms: C7_13  and  N3_14
REMARK    7  A    between atoms: C7_13  and  C19_33
REMARK       I    between atoms: N3_14  and  C8_16
REMARK    8  A    between atoms: C8_16  and  C9_18
REMARK    9  A    between atoms: C10_21  and  C11_22
REMARK   10  A    between atoms: C17_29  and  C18_30
REMARK   11  A    between atoms: C22_36  and  N6_37
REMARK   12  A    between atoms: N6_37  and  C24_39
REMARK   13  A    between atoms: C24_39  and  C25_40
REMARK   14  A    between atoms: C25_40  and  N7_41
REMARK   15  A    between atoms: C25_40  and  O5_45
ROOT
HETATM    1  C7  UNL     1      14.579   8.682  17.913  1.00  0.00     0.067 C
ENDROOT
BRANCH   1   2
HETATM    2  C6  UNL     1      15.515   7.779  18.545  1.00  0.00     0.161 C
BRANCH   2   3
HETATM    3  N2  UNL     1      16.861   7.879  18.909  1.00  0.00    -0.357 N
HETATM    4  C5  UNL     1      17.470   9.085  19.351  1.00  0.00     0.145 C
HETATM    5  C4  UNL     1      18.724   8.902  20.183  1.00  0.00     0.148 C
HETATM    6  N1  UNL     1      19.348   7.634  20.070  1.00  0.00    -0.325 N
HETATM    7  C3  UNL     1      20.677   7.359  19.708  1.00  0.00     0.362 C
HETATM    8  C29 UNL     1      18.380   6.502  20.216  1.00  0.00     0.148 C
HETATM    9  O2  UNL     1      21.070   6.154  19.880  1.00  0.00    -0.238 OA
HETATM   10  C28 UNL     1      17.649   6.620  18.868  1.00  0.00     0.145 C
BRANCH   7  11
HETATM   11  O1  UNL     1      21.583   8.228  19.184  1.00  0.00    -0.304 OA
BRANCH  11  12
HETATM   12  C2  UNL     1      22.658   7.886  18.359  1.00  0.00     0.176 C
HETATM   13  C1  UNL     1      22.421   8.141  16.877  1.00  0.00     0.034 C
ENDBRANCH  11  12
ENDBRANCH   7  11
ENDBRANCH   2   3
BRANCH   2  14
HETATM   14  O3  UNL     1      15.007   6.603  18.880  1.00  0.00    -0.345 OA
ATOM     15  H3  UNL     1      14.168   6.697  19.314  1.00  0.00     0.219 HD
ENDBRANCH   2  14
ENDBRANCH   1   2
BRANCH   1  16
HETATM   16  N3  UNL     1      14.375   8.333  16.521  1.00  0.00    -0.321 N
HETATM   17  C8  UNL     1      13.561   7.451  15.898  1.00  0.00     0.274 C
HETATM   18  O4  UNL     1      12.776   6.706  16.537  1.00  0.00    -0.266 OA
ATOM     19  H3  UNL     1      14.966   8.862  15.880  1.00  0.00     0.169 HD
BRANCH  17  20
HETATM   20  C9  UNL     1      13.560   7.309  14.417  1.00  0.00     0.131 A
HETATM   21  N4  UNL     1      14.528   6.763  13.667  1.00  0.00    -0.339 N
HETATM   22  C10 UNL     1      14.223   6.834  12.389  1.00  0.00     0.088 A
ATOM     23  H4  UNL     1      15.384   6.348  14.036  1.00  0.00     0.167 HD
HETATM   24  N5  UNL     1      13.031   7.434  12.315  1.00  0.00    -0.338 N
HETATM   25  C16 UNL     1      12.233   7.746  11.113  1.00  0.00     0.157 C
HETATM   26  C17 UNL     1      12.571   7.750  13.574  1.00  0.00     0.110 A
BRANCH  22  27
HETATM   27  C11 UNL     1      14.967   6.396  11.156  1.00  0.00     0.053 C
HETATM   28  C12 UNL     1      14.375   5.080  10.660  1.00  0.00     0.012 C
HETATM   29  C13 UNL     1      15.481   4.081  10.687  1.00  0.00     0.001 C
HETATM   30  C14 UNL     1      16.461   4.611  11.684  1.00  0.00     0.001 C
HETATM   31  C15 UNL     1      16.388   6.120  11.457  1.00  0.00     0.012 C
ENDBRANCH  22  27
BRANCH  26  32
HETATM   32  C18 UNL     1      11.229   8.338  13.833  1.00  0.00     0.405 C
HETATM   33  F1  UNL     1      10.417   7.436  14.548  1.00  0.00    -0.207 F
HETATM   34  F2  UNL     1      11.325   9.442  14.659  1.00  0.00    -0.207 F
ENDBRANCH  26  32
ENDBRANCH  17  20
ENDBRANCH   1  16
BRANCH   1  35
HETATM   35  C19 UNL     1      13.395   9.317  18.421  1.00  0.00     0.040 C
HETATM   36  C20 UNL     1      13.075   9.599  19.817  1.00  0.00     0.013 C
HETATM   37  C21 UNL     1      11.523   9.735  19.881  1.00  0.00     0.036 C
HETATM   38  C22 UNL     1      11.096  10.919  19.088  1.00  0.00     0.222 C
HETATM   39  C26 UNL     1      11.570  10.749  17.616  1.00  0.00     0.036 C
HETATM   40  C27 UNL     1      13.082  10.669  17.682  1.00  0.00     0.013 C
BRANCH  38  41
HETATM   41  N6  UNL     1       9.649  11.014  19.009  1.00  0.00     0.093 N
HETATM   42  C23 UNL     1       9.106  11.717  20.116  1.00  0.00     0.310 C
BRANCH  41  43
HETATM   43  C24 UNL     1       9.128   9.705  18.857  1.00  0.00     0.332 C
BRANCH  43  44
HETATM   44  C25 UNL     1       8.237   9.411  17.739  1.00  0.00     0.344 C
BRANCH  44  45
HETATM   45  N7  UNL     1       8.476   9.324  16.368  1.00  0.00    -0.051 N
ATOM     46  H73 UNL     1       9.479   9.154  16.292  1.00  0.00     0.277 HD
ATOM     47  H72 UNL     1       8.048   8.442  16.088  1.00  0.00     0.277 HD
ATOM     48  H71 UNL     1       8.266   9.967  15.605  1.00  0.00     0.277 HD
ENDBRANCH  44  45
BRANCH  44  49
HETATM   49  O5  UNL     1       6.978   9.176  18.068  1.00  0.00    -0.369 OA
ATOM     50  H5  UNL     1       6.410   8.928  17.348  1.00  0.00     0.212 HD
ENDBRANCH  44  49
ENDBRANCH  43  44
ENDBRANCH  41  43
ENDBRANCH  38  41
ENDBRANCH   1  35
TORSDOF 15
ENDMDL