MODEL 5
REMARK VINA RESULT: -7.845850887      2.066      2.956
REMARK  10 active torsions:
REMARK  status: ('A' for Active; 'I' for Inactive)
REMARK    1  A    between atoms: C2_2  and  C3_3
REMARK    2  A    between atoms: C3_3  and  C4_4
REMARK    3  A    between atoms: C4_4  and  N1_5
REMARK    4  A    between atoms: C4_4  and  C13_18
REMARK       I    between atoms: N1_5  and  C5_7
REMARK    5  A    between atoms: C5_7  and  C6_9
REMARK    6  A    between atoms: C13_18  and  C14_20
REMARK    7  A    between atoms: C14_20  and  C15_23
REMARK       I    between atoms: C15_23  and  N2_25
REMARK    8  A    between atoms: N2_25  and  C16_27
REMARK    9  A    between atoms: C16_27  and  C18_29
REMARK       I    between atoms: C18_29  and  N3_31
REMARK   10  A    between atoms: N4_34  and  C21_35
ROOT
HETATM    1  C14 UNL     1      14.979   2.989  14.711  1.00  0.00     0.383 C
HETATM    2  F1  UNL     1      16.116   2.215  14.999  1.00  0.00    -0.186 F
HETATM    3  F2  UNL     1      14.458   2.422  13.567  1.00  0.00    -0.186 F
ENDROOT
BRANCH   1   4
HETATM    4  C13 UNL     1      15.333   4.403  14.628  1.00  0.00     0.230 C
HETATM    5  O2  UNL     1      15.834   4.926  15.649  1.00  0.00    -0.288 OA
BRANCH   4   6
HETATM    6  C4  UNL     1      15.163   5.300  13.490  1.00  0.00     0.161 C
BRANCH   6   7
HETATM    7  C3  UNL     1      16.301   5.358  12.530  1.00  0.00     0.033 C
BRANCH   7   8
HETATM    8  C2  UNL     1      16.307   4.392  11.413  1.00  0.00    -0.002 C
HETATM    9  C1  UNL     1      15.067   4.112  10.665  1.00  0.00     0.005 C
ENDBRANCH   7   8
ENDBRANCH   6   7
BRANCH   6  10
HETATM   10  N1  UNL     1      14.729   6.655  13.841  1.00  0.00    -0.349 N
HETATM   11  C5  UNL     1      13.451   6.974  14.342  1.00  0.00     0.225 C
HETATM   12  O1  UNL     1      12.683   5.943  14.459  1.00  0.00    -0.273 OA
ATOM     13  H1  UNL     1      15.396   7.417  13.714  1.00  0.00     0.163 HD
BRANCH  11  14
HETATM   14  C6  UNL     1      12.955   8.313  14.722  1.00  0.00     0.115 C
HETATM   15  C7  UNL     1      11.628   8.596  14.067  1.00  0.00     0.025 C
HETATM   16  C8  UNL     1      10.462   7.828  14.493  1.00  0.00     0.028 C
HETATM   17  C9  UNL     1      11.810   8.438  12.577  1.00  0.00     0.028 C
HETATM   18  S1  UNL     1      11.425  10.404  14.350  1.00  0.00    -0.087 SA
HETATM   19  S2  UNL     1      12.312  10.332  16.321  1.00  0.00    -0.087 SA
HETATM   20  C10 UNL     1      12.886   8.588  16.165  1.00  0.00     0.025 C
HETATM   21  C11 UNL     1      12.100   7.670  17.018  1.00  0.00     0.028 C
HETATM   22  C12 UNL     1      14.306   8.620  16.732  1.00  0.00     0.028 C
ENDBRANCH  11  14
ENDBRANCH   6  10
ENDBRANCH   4   6
ENDBRANCH   1   4
BRANCH   1  23
HETATM   23  C15 UNL     1      13.999   2.697  15.805  1.00  0.00     0.299 C
HETATM   24  O3  UNL     1      14.027   1.562  16.384  1.00  0.00    -0.266 OA
HETATM   25  N2  UNL     1      13.025   3.597  16.260  1.00  0.00    -0.343 N
ATOM     26  H2  UNL     1      12.966   4.516  15.822  1.00  0.00     0.163 HD
BRANCH  25  27
HETATM   27  C16 UNL     1      12.090   3.275  17.333  1.00  0.00     0.172 C
HETATM   28  C17 UNL     1      12.335   4.342  18.401  1.00  0.00     0.042 C
BRANCH  27  29
HETATM   29  C18 UNL     1      10.714   3.451  16.842  1.00  0.00     0.242 C
HETATM   30  O4  UNL     1      10.170   4.594  16.826  1.00  0.00    -0.271 OA
HETATM   31  N3  UNL     1       9.973   2.343  16.376  1.00  0.00    -0.347 N
HETATM   32  C19 UNL     1      10.525   1.028  16.336  1.00  0.00     0.145 C
HETATM   33  C27 UNL     1       8.583   2.507  15.911  1.00  0.00     0.145 C
HETATM   34  C20 UNL     1      10.568   0.556  14.869  1.00  0.00     0.137 C
HETATM   35  N4  UNL     1       9.428   1.069  14.195  1.00  0.00    -0.405 N
HETATM   36  C26 UNL     1       8.283   1.343  14.995  1.00  0.00     0.137 C
BRANCH  35  37
HETATM   37  C21 UNL     1       9.201   0.609  12.874  1.00  0.00     0.083 C
HETATM   38  C22 UNL     1       7.806   0.861  12.343  1.00  0.00     0.051 C
HETATM   39  C23 UNL     1       7.586   0.037  11.097  1.00  0.00     0.169 C
HETATM   40  O5  UNL     1       8.784  -0.245  10.455  1.00  0.00    -0.391 OA
HETATM   41  C24 UNL     1       9.581  -1.111  11.178  1.00  0.00     0.169 C
HETATM   42  C25 UNL     1       9.518  -0.854  12.668  1.00  0.00     0.051 C
ENDBRANCH  35  37
ENDBRANCH  27  29
ENDBRANCH  25  27
ENDBRANCH   1  23
TORSDOF 10
ENDMDL