MODEL 4
REMARK VINA RESULT: -7.721338950      2.957      5.592
REMARK  13 active torsions:
REMARK  status: ('A' for Active; 'I' for Inactive)
REMARK    1  A    between atoms: C2_2  and  C3_3
REMARK    2  A    between atoms: C3_3  and  C4_4
REMARK    3  A    between atoms: C8_10  and  C9_11
REMARK    4  A    between atoms: C9_11  and  C10_12
REMARK    5  A    between atoms: C10_12  and  N2_13
REMARK    6  A    between atoms: C10_12  and  C23_36
REMARK       I    between atoms: N2_13  and  C11_15
REMARK    7  A    between atoms: C11_15  and  C12_17
REMARK    8  A    between atoms: C12_17  and  N3_18
REMARK    9  A    between atoms: C12_17  and  C19_32
REMARK       I    between atoms: N3_18  and  C13_20
REMARK   10  A    between atoms: C13_20  and  O3_22
REMARK   11  A    between atoms: O3_22  and  C14_23
REMARK   12  A    between atoms: C23_36  and  O6_37
REMARK   13  A    between atoms: C23_36  and  N5_39
ROOT
HETATM    1  C14 UNL     1       9.898   9.272  17.865  1.00  0.00     0.166 C
HETATM    2  C15 UNL     1       8.752   9.482  16.958  1.00  0.00     0.050 C
HETATM    3  C16 UNL     1       9.210   9.238  15.536  1.00  0.00     0.144 C
HETATM    4  S1  UNL     1      10.195   7.768  15.767  1.00  0.00     0.164 S
HETATM    5  O4  UNL     1       9.333   6.543  15.617  1.00  0.00    -0.226 OA
HETATM    6  O5  UNL     1      11.390   7.746  14.894  1.00  0.00    -0.226 OA
HETATM    7  C17 UNL     1      10.616   8.001  17.490  1.00  0.00     0.244 C
HETATM    8  C18 UNL     1      10.156   6.865  18.285  1.00  0.00     0.082 C
HETATM    9  N4  UNL     1       9.807   5.971  18.905  1.00  0.00    -0.196 NA
ENDROOT
BRANCH   1  10
HETATM   10  O3  UNL     1      10.748  10.400  17.911  1.00  0.00    -0.296 OA
BRANCH  10  11
HETATM   11  C13 UNL     1      12.043  10.356  17.361  1.00  0.00     0.361 C
HETATM   12  N3  UNL     1      13.118   9.778  18.067  1.00  0.00    -0.323 N
ATOM     13  H3  UNL     1      12.941   9.386  18.992  1.00  0.00     0.165 HD
HETATM   14  O2  UNL     1      12.160  10.861  16.212  1.00  0.00    -0.238 OA
BRANCH  12  15
HETATM   15  C12 UNL     1      14.473   9.718  17.529  1.00  0.00     0.186 C
BRANCH  15  16
HETATM   16  C11 UNL     1      14.598   8.469  16.746  1.00  0.00     0.242 C
HETATM   17  N2  UNL     1      15.302   8.279  15.565  1.00  0.00    -0.344 N
ATOM     18  H2  UNL     1      15.818   9.043  15.128  1.00  0.00     0.163 HD
HETATM   19  O1  UNL     1      13.977   7.450  17.220  1.00  0.00    -0.271 OA
BRANCH  17  20
HETATM   20  C10 UNL     1      15.277   6.879  14.941  1.00  0.00     0.183 C
BRANCH  20  21
HETATM   21  C9  UNL     1      16.181   6.081  15.722  1.00  0.00     0.020 C
BRANCH  21  22
HETATM   22  C8  UNL     1      15.991   4.734  16.207  1.00  0.00    -0.015 A
HETATM   23  C4  UNL     1      16.353   4.201  17.421  1.00  0.00     0.019 A
HETATM   24  N1  UNL     1      16.147   2.867  17.730  1.00  0.00    -0.368 N
HETATM   25  C5  UNL     1      15.591   2.014  16.878  1.00  0.00     0.088 A
ATOM     26  H1  UNL     1      16.434   2.527  18.648  1.00  0.00     0.165 HD
HETATM   27  C6  UNL     1      15.207   2.482  15.643  1.00  0.00     0.018 A
HETATM   28  C7  UNL     1      15.403   3.794  15.327  1.00  0.00     0.014 A
BRANCH  23  29
HETATM   29  C3  UNL     1      17.047   5.028  18.433  1.00  0.00     0.057 C
BRANCH  29  30
HETATM   30  C2  UNL     1      16.056   5.554  19.435  1.00  0.00     0.002 C
HETATM   31  C1  UNL     1      16.886   6.064  20.621  1.00  0.00     0.005 C
ENDBRANCH  29  30
ENDBRANCH  23  29
ENDBRANCH  21  22
ENDBRANCH  20  21
BRANCH  20  32
HETATM   32  C23 UNL     1      15.161   7.132  13.548  1.00  0.00     0.140 C
BRANCH  32  33
HETATM   33  O6  UNL     1      15.119   8.487  13.356  1.00  0.00    -0.348 OA
ATOM     34  H6  UNL     1      16.010   8.814  13.322  1.00  0.00     0.219 HD
ENDBRANCH  32  33
BRANCH  32  35
HETATM   35  N5  UNL     1      15.078   6.503  12.338  1.00  0.00    -0.363 N
HETATM   36  C24 UNL     1      16.280   5.826  11.784  1.00  0.00     0.130 C
HETATM   37  C25 UNL     1      15.979   4.351  11.791  1.00  0.00     0.099 C
HETATM   38  C26 UNL     1      14.755   4.090  10.960  1.00  0.00     0.246 C
HETATM   39  F1  UNL     1      15.131   3.279   9.886  1.00  0.00    -0.206 F
HETATM   40  F2  UNL     1      13.760   3.457  11.708  1.00  0.00    -0.206 F
HETATM   41  C27 UNL     1      14.249   5.389  10.387  1.00  0.00     0.099 C
HETATM   42  C28 UNL     1      13.926   6.381  11.507  1.00  0.00     0.130 C
ENDBRANCH  32  35
ENDBRANCH  20  32
ENDBRANCH  17  20
ENDBRANCH  15  16
BRANCH  15  43
HETATM   43  C19 UNL     1      15.482   9.812  18.653  1.00  0.00    -0.022 C
HETATM   44  C20 UNL     1      14.919   9.214  19.934  1.00  0.00     0.017 C
HETATM   45  C21 UNL     1      15.810  11.247  18.948  1.00  0.00     0.017 C
HETATM   46  C22 UNL     1      16.764   9.077  18.341  1.00  0.00     0.017 C
ENDBRANCH  15  43
ENDBRANCH  12  15
ENDBRANCH  10  11
ENDBRANCH   1  10
TORSDOF 13
ENDMDL