MODEL 1
REMARK VINA RESULT: -6.226817289      0.000      0.000
REMARK  14 active torsions:
REMARK  status: ('A' for Active; 'I' for Inactive)
REMARK    1  A    between atoms: C3_3  and  C4_4
REMARK    2  A    between atoms: C4_4  and  O2_6
REMARK    3  A    between atoms: O2_6  and  C5_7
REMARK    4  A    between atoms: C5_7  and  C6_8
REMARK    5  A    between atoms: C5_7  and  C9_13
REMARK    6  A    between atoms: C6_8  and  O3_9
REMARK    7  A    between atoms: O3_9  and  C7_10
REMARK    8  A    between atoms: C11_15  and  O5_16
REMARK    9  A    between atoms: O5_16  and  C12_17
REMARK   10  A    between atoms: C12_17  and  C16_21
REMARK   11  A    between atoms: C13_18  and  C14_19
REMARK   12  A    between atoms: C16_21  and  O6_22
REMARK   13  A    between atoms: C21_30  and  O7_31
REMARK   14  A    between atoms: C23_33  and  O8_34
ROOT
HETATM    1  C9  UNL     1      12.797   6.079  15.894  1.00  0.00     0.056 C
HETATM    2  C10 UNL     1      13.818   5.882  14.822  1.00  0.00     0.030 C
HETATM    3  C11 UNL     1      14.884   6.987  14.952  1.00  0.00     0.141 C
HETATM    4  C17 UNL     1      15.546   6.109  15.950  1.00  0.00     0.060 C
HETATM    5  C18 UNL     1      14.906   4.940  15.246  1.00  0.00     0.018 C
HETATM    6  C19 UNL     1      14.614   3.965  16.339  1.00  0.00     0.080 C
HETATM    7 BR1  UNL     1      15.869   2.480  16.105  1.00  0.00    -0.089 Br
HETATM    8  C20 UNL     1      14.915   4.660  17.650  1.00  0.00     0.110 C
HETATM    9 BR2  UNL     1      13.690   4.021  18.954  1.00  0.00    -0.087 Br
HETATM   10  C21 UNL     1      14.824   6.113  17.305  1.00  0.00     0.107 C
HETATM   11  C23 UNL     1      13.426   6.622  17.125  1.00  0.00     0.161 C
ENDROOT
BRANCH   1  12
HETATM   12  C5  UNL     1      11.621   6.929  15.464  1.00  0.00     0.163 C
BRANCH  12  13
HETATM   13  O2  UNL     1      11.603   7.146  14.074  1.00  0.00    -0.310 OA
BRANCH  13  14
HETATM   14  C4  UNL     1      11.374   8.421  13.526  1.00  0.00     0.283 C
HETATM   15  O1  UNL     1      11.143   8.471  12.292  1.00  0.00    -0.260 OA
BRANCH  14  16
HETATM   16  C3  UNL     1      11.401   9.620  14.333  1.00  0.00     0.077 C
HETATM   17  C2  UNL     1      12.517  10.153  14.791  1.00  0.00    -0.025 C
HETATM   18  C1  UNL     1      12.522  11.372  15.610  1.00  0.00     0.036 C
ENDBRANCH  14  16
ENDBRANCH  13  14
ENDBRANCH  12  13
BRANCH  12  19
HETATM   19  C6  UNL     1      10.344   6.328  15.970  1.00  0.00     0.211 C
BRANCH  19  20
HETATM   20  O3  UNL     1       9.784   6.971  17.077  1.00  0.00    -0.319 OA
BRANCH  20  21
HETATM   21  C7  UNL     1       9.567   8.320  17.171  1.00  0.00     0.254 C
HETATM   22  C8  UNL     1      10.389   9.207  18.066  1.00  0.00     0.126 C
HETATM   23  O4  UNL     1       8.662   8.860  16.501  1.00  0.00    -0.266 OA
ENDBRANCH  20  21
ENDBRANCH  19  20
ENDBRANCH  12  19
ENDBRANCH   1  12
BRANCH  11  24
HETATM   24  O8  UNL     1      12.621   6.328  18.229  1.00  0.00    -0.392 OA
ATOM     25  H8  UNL     1      13.035   6.655  19.019  1.00  0.00     0.210 HD
ENDBRANCH  11  24
BRANCH   3  26
HETATM   26  O5  UNL     1      15.630   7.270  13.844  1.00  0.00    -0.347 OA
BRANCH  26  27
HETATM   27  C12 UNL     1      15.444   7.400  12.524  1.00  0.00     0.066 C
HETATM   28  C13 UNL     1      16.017   6.587  11.611  1.00  0.00     0.007 C
BRANCH  28  29
HETATM   29  C14 UNL     1      16.914   5.468  11.988  1.00  0.00     0.025 C
HETATM   30  C15 UNL     1      16.223   4.183  11.592  1.00  0.00     0.009 C
ENDBRANCH  28  29
BRANCH  27  31
HETATM   31  C16 UNL     1      14.565   8.471  11.958  1.00  0.00     0.228 C
BRANCH  31  32
HETATM   32  O6  UNL     1      13.591   7.822  11.193  1.00  0.00    -0.394 OA
ATOM     33  H6  UNL     1      12.769   8.265  11.371  1.00  0.00     0.209 HD
ENDBRANCH  31  32
ENDBRANCH  27  31
ENDBRANCH  26  27
ENDBRANCH   3  26
BRANCH  10  34
HETATM   34  O7  UNL     1      15.475   6.963  18.121  1.00  0.00    -0.381 OA
HETATM   35  C22 UNL     1      16.760   6.806  18.459  1.00  0.00     0.202 C
ENDBRANCH  10  34
TORSDOF 14
ENDMDL