MODEL 3
REMARK VINA RESULT: -7.995590685      2.631      4.116
REMARK  12 active torsions:
REMARK  status: ('A' for Active; 'I' for Inactive)
REMARK    1  A    between atoms: C6_8  and  N2_9
REMARK    2  A    between atoms: N2_9  and  C7_11
REMARK    3  A    between atoms: C7_11  and  C8_12
REMARK    4  A    between atoms: C8_12  and  C9_14
REMARK    5  A    between atoms: C9_14  and  N3_15
REMARK    6  A    between atoms: C9_14  and  C18_28
REMARK       I    between atoms: N3_15  and  C10_16
REMARK    7  A    between atoms: C10_16  and  C11_18
REMARK    8  A    between atoms: C11_18  and  C13_21
REMARK    9  A    between atoms: C13_21  and  C14_22
REMARK   10  A    between atoms: C18_28  and  C19_30
REMARK       I    between atoms: C19_30  and  N4_32
REMARK   11  A    between atoms: N4_32  and  C20_34
REMARK   12  A    between atoms: C20_34  and  C21_35
ROOT
HETATM    1  C9  UNL     1      14.597   4.979  12.420  1.00  0.00     0.213 C
ENDROOT
BRANCH   1   2
HETATM    2  C8  UNL     1      13.994   3.623  12.505  1.00  0.00     0.212 C
HETATM    3  O1  UNL     1      13.403   3.128  11.525  1.00  0.00    -0.288 OA
BRANCH   2   4
HETATM    4  C7  UNL     1      14.093   2.858  13.758  1.00  0.00     0.224 C
BRANCH   4   5
HETATM    5  N2  UNL     1      12.821   2.650  14.369  1.00  0.00    -0.219 N
ATOM      6  H2  UNL     1      12.444   3.373  14.982  1.00  0.00     0.178 HD
BRANCH   5   7
HETATM    7  C6  UNL     1      12.138   1.585  14.172  1.00  0.00     0.678 A
HETATM    8  N1  UNL     1      11.182   1.565  13.245  1.00  0.00    -0.196 N
HETATM    9  C4  UNL     1      10.493   0.407  13.069  1.00  0.00     0.024 A
ATOM     10  H1  UNL     1      10.973   2.392  12.685  1.00  0.00     0.184 HD
HETATM   11  C3  UNL     1      10.755  -0.716  13.810  1.00  0.00     0.050 A
HETATM   12  C5  UNL     1       9.419   0.366  12.036  1.00  0.00     0.068 C
HETATM   13  C2  UNL     1      11.753  -0.626  14.748  1.00  0.00     0.024 A
HETATM   14  C1  UNL     1      12.051  -1.842  15.561  1.00  0.00     0.068 C
HETATM   15  N6  UNL     1      12.440   0.500  14.936  1.00  0.00    -0.196 N
ATOM     16  H6  UNL     1      13.178   0.548  15.638  1.00  0.00     0.184 HD
ENDBRANCH   5   7
ENDBRANCH   4   5
ENDBRANCH   2   4
ENDBRANCH   1   2
BRANCH   1  17
HETATM   17  N3  UNL     1      15.376   5.310  13.269  1.00  0.00    -0.360 NA
HETATM   18  C10 UNL     1      16.198   5.937  14.093  1.00  0.00     0.332 C
HETATM   19  O2  UNL     1      17.388   6.281  13.699  1.00  0.00    -0.253 OA
BRANCH  18  20
HETATM   20  C11 UNL     1      15.902   6.319  15.515  1.00  0.00     0.198 C
HETATM   21  C12 UNL     1      17.095   6.813  16.261  1.00  0.00     0.064 C
HETATM   22  F1  UNL     1      15.370   5.252  16.190  1.00  0.00    -0.231 F
BRANCH  20  23
HETATM   23  C13 UNL     1      14.816   7.401  15.535  1.00  0.00     0.100 C
BRANCH  23  24
HETATM   24  C14 UNL     1      13.662   6.845  16.303  1.00  0.00    -0.013 A
HETATM   25  C15 UNL     1      12.660   6.010  15.878  1.00  0.00     0.034 A
HETATM   26  C16 UNL     1      11.736   5.648  16.755  1.00  0.00     0.018 A
HETATM   27 BR1  UNL     1      10.246   4.474  16.333  1.00  0.00    -0.051 Br
HETATM   28  C17 UNL     1      11.840   6.130  18.029  1.00  0.00     0.069 A
HETATM   29  S1  UNL     1      13.256   7.094  17.959  1.00  0.00    -0.105 SA
ENDBRANCH  23  24
ENDBRANCH  20  23
ENDBRANCH  18  20
ENDBRANCH   1  17
BRANCH   1  30
HETATM   30  C18 UNL     1      14.191   5.793  11.292  1.00  0.00     0.283 C
HETATM   31  O3  UNL     1      14.849   5.666  10.205  1.00  0.00    -0.279 OA
BRANCH  30  32
HETATM   32  C19 UNL     1      13.102   6.744  11.282  1.00  0.00     0.295 C
HETATM   33  O4  UNL     1      12.424   7.056  10.276  1.00  0.00    -0.264 OA
HETATM   34  N4  UNL     1      12.704   7.433  12.490  1.00  0.00    -0.350 N
ATOM     35  H4  UNL     1      13.210   7.230  13.352  1.00  0.00     0.163 HD
BRANCH  34  36
HETATM   36  C20 UNL     1      11.637   8.383  12.537  1.00  0.00     0.162 C
BRANCH  36  37
HETATM   37  C21 UNL     1      11.488   8.956  13.912  1.00  0.00    -0.025 A
HETATM   38  C22 UNL     1      12.327   9.922  14.413  1.00  0.00     0.011 A
HETATM   39  C23 UNL     1      12.167  10.427  15.683  1.00  0.00     0.018 A
HETATM   40  C24 UNL     1      11.146   9.951  16.455  1.00  0.00     0.087 A
HETATM   41  N5  UNL     1      10.319   9.010  15.983  1.00  0.00    -0.375 N
HETATM   42  C25 UNL     1      10.466   8.502  14.729  1.00  0.00     0.096 A
ATOM     43  H5  UNL     1       9.562   8.668  16.575  1.00  0.00     0.164 HD
ENDBRANCH  36  37
ENDBRANCH  34  36
ENDBRANCH  30  32
ENDBRANCH   1  30
TORSDOF 12
ENDMDL