MODEL 2
REMARK VINA RESULT: -8.162887070      2.898      6.099
REMARK  14 active torsions:
REMARK  status: ('A' for Active; 'I' for Inactive)
REMARK    1  A    between atoms: N1_2  and  C2_4
REMARK    2  A    between atoms: C2_4  and  C3_5
REMARK    3  A    between atoms: C2_4  and  N5_18
REMARK    4  A    between atoms: C3_5  and  N2_6
REMARK    5  A    between atoms: C5_8  and  C6_9
REMARK    6  A    between atoms: N5_18  and  C12_20
REMARK    7  A    between atoms: C13_25  and  C14_26
REMARK    8  A    between atoms: C14_26  and  C15_27
REMARK    9  A    between atoms: C15_27  and  C16_28
REMARK   10  A    between atoms: C16_28  and  C17_29
REMARK   11  A    between atoms: C17_29  and  C18_30
REMARK   12  A    between atoms: C21_33  and  N8_34
REMARK       I    between atoms: N8_34  and  C22_36
REMARK   13  A    between atoms: C22_36  and  C23_38
REMARK   14  A    between atoms: C23_38  and  C24_39
ROOT
HETATM    1  C12 UNL     1      13.562   2.378  14.285  1.00  0.00     0.166 A
HETATM    2  N6  UNL     1      12.760   2.637  13.244  1.00  0.00    -0.279 N
ATOM      3  H6  UNL     1      11.780   2.355  13.261  1.00  0.00     0.189 HD
HETATM    4  N7  UNL     1      13.240   3.238  12.240  1.00  0.00    -0.296 N
ATOM      5  H7  UNL     1      12.642   3.444  11.439  1.00  0.00     0.187 HD
HETATM    6  C13 UNL     1      14.512   3.602  12.219  1.00  0.00     0.069 A
HETATM    7  S1  UNL     1      15.046   3.044  13.744  1.00  0.00    -0.038 SA
ENDROOT
BRANCH   6   8
HETATM    8  C14 UNL     1      15.216   4.314  11.101  1.00  0.00     0.066 C
BRANCH   8   9
HETATM    9  C15 UNL     1      16.611   4.677  11.631  1.00  0.00     0.007 C
BRANCH   9  10
HETATM   10  C16 UNL     1      16.580   6.071  12.210  1.00  0.00     0.006 C
BRANCH  10  11
HETATM   11  C17 UNL     1      15.791   6.963  11.270  1.00  0.00     0.058 C
BRANCH  11  12
HETATM   12  C18 UNL     1      14.693   7.654  11.964  1.00  0.00     0.026 A
HETATM   13  C19 UNL     1      13.407   7.431  11.524  1.00  0.00     0.030 A
HETATM   14  C20 UNL     1      12.330   8.043  12.122  1.00  0.00     0.052 A
HETATM   15  C21 UNL     1      12.621   8.904  13.202  1.00  0.00     0.122 A
HETATM   16  N9  UNL     1      13.881   9.105  13.612  1.00  0.00    -0.285 N
HETATM   17  N10 UNL     1      14.889   8.485  12.997  1.00  0.00    -0.303 N
ATOM     18  H9  UNL     1      14.069   9.731  14.395  1.00  0.00     0.188 HD
ATOM     19  H10 UNL     1      15.841   8.650  13.323  1.00  0.00     0.186 HD
BRANCH  15  20
HETATM   20  N8  UNL     1      11.626   9.469  13.755  1.00  0.00    -0.312 N
HETATM   21  C22 UNL     1      11.010   9.031  14.933  1.00  0.00     0.227 C
HETATM   22  O1  UNL     1      11.298   9.672  15.999  1.00  0.00    -0.273 OA
ATOM     23  H8  UNL     1      11.249  10.304  13.307  1.00  0.00     0.170 HD
BRANCH  21  24
HETATM   24  C23 UNL     1      10.055   7.888  15.006  1.00  0.00     0.141 C
BRANCH  24  25
HETATM   25  C24 UNL     1      10.585   6.833  15.908  1.00  0.00    -0.044 A
HETATM   26  C25 UNL     1       9.798   6.299  16.929  1.00  0.00     0.050 A
HETATM   27  C26 UNL     1      10.331   5.326  17.744  1.00  0.00     0.119 A
HETATM   28  F1  UNL     1       9.600   4.787  18.746  1.00  0.00    -0.206 F
HETATM   29  C27 UNL     1      11.626   4.870  17.570  1.00  0.00     0.084 A
HETATM   30  C28 UNL     1      12.398   5.408  16.554  1.00  0.00     0.119 A
HETATM   31  F2  UNL     1      13.676   4.960  16.380  1.00  0.00    -0.206 F
HETATM   32  C29 UNL     1      11.873   6.390  15.723  1.00  0.00     0.050 A
ENDBRANCH  24  25
ENDBRANCH  21  24
ENDBRANCH  15  20
ENDBRANCH  11  12
ENDBRANCH  10  11
ENDBRANCH   9  10
ENDBRANCH   8   9
ENDBRANCH   6   8
BRANCH   1  33
HETATM   33  N5  UNL     1      13.243   1.766  15.403  1.00  0.00    -0.324 N
ATOM     34  H5  UNL     1      13.898   1.728  16.185  1.00  0.00     0.169 HD
BRANCH  33  35
HETATM   35  C2  UNL     1      11.963   1.160  15.495  1.00  0.00     0.098 C
BRANCH  35  36
HETATM   36  N1  UNL     1      10.976   1.835  15.999  1.00  0.00    -0.383 N
HETATM   37  C1  UNL     1      10.236   1.393  17.155  1.00  0.00     0.147 C
ATOM     38  H1  UNL     1      10.713   2.717  15.559  1.00  0.00     0.160 HD
ENDBRANCH  35  36
BRANCH  35  39
HETATM   39  C3  UNL     1      11.734  -0.231  15.028  1.00  0.00     0.222 C
BRANCH  39  40
HETATM   40  N2  UNL     1      10.950  -0.130  13.793  1.00  0.00    -0.278 N
HETATM   41  C4  UNL     1      10.738  -1.072  12.866  1.00  0.00     0.139 A
HETATM   42  C5  UNL     1       9.947  -0.583  11.853  1.00  0.00     0.073 A
HETATM   43  N3  UNL     1       9.691   0.691  12.206  1.00  0.00    -0.282 N
HETATM   44  N4  UNL     1      10.289   0.948  13.357  1.00  0.00    -0.020 NA
ATOM     45  H3  UNL     1       9.126   1.352  11.672  1.00  0.00     0.184 HD
BRANCH  42  46
HETATM   46  C6  UNL     1       9.464  -1.234  10.650  1.00  0.00    -0.007 A
HETATM   47  C7  UNL     1       8.506  -0.617   9.875  1.00  0.00     0.014 A
HETATM   48  C8  UNL     1       8.016  -1.200   8.720  1.00  0.00     0.001 A
HETATM   49  C9  UNL     1       8.484  -2.431   8.320  1.00  0.00     0.000 A
HETATM   50  C10 UNL     1       9.442  -3.071   9.077  1.00  0.00     0.001 A
HETATM   51  C11 UNL     1       9.917  -2.466  10.229  1.00  0.00     0.014 A
ENDBRANCH  42  46
ENDBRANCH  39  40
ENDBRANCH  35  39
ENDBRANCH  33  35
ENDBRANCH   1  33
TORSDOF 14
ENDMDL