MODEL 4
REMARK VINA RESULT: -6.584980068      5.061      9.148
REMARK  12 active torsions:
REMARK  status: ('A' for Active; 'I' for Inactive)
REMARK    1  A    between atoms: C2_2  and  C4_4
REMARK    2  A    between atoms: C4_4  and  N1_5
REMARK    3  A    between atoms: C4_4  and  C9_12
REMARK       I    between atoms: N1_5  and  C5_7
REMARK    4  A    between atoms: C5_7  and  C6_9
REMARK       I    between atoms: C9_12  and  N2_14
REMARK       I    between atoms: N3_17  and  C12_18
REMARK    5  A    between atoms: C12_18  and  O4_20
REMARK    6  A    between atoms: O4_20  and  C13_21
REMARK    7  A    between atoms: C13_21  and  C14_22
REMARK    8  A    between atoms: C16_27  and  C17_28
REMARK       I    between atoms: C17_28  and  N6_30
REMARK    9  A    between atoms: N6_30  and  C18_32
REMARK   10  A    between atoms: C18_32  and  C21_35
REMARK   11  A    between atoms: C21_35  and  O6_36
REMARK   12  A    between atoms: O6_36  and  C22_37
ROOT
HETATM    1  O4  UNL     1       9.470   4.811  18.544  1.00  0.00    -0.298 OA
ENDROOT
BRANCH   1   2
HETATM    2  C12 UNL     1       9.460   6.107  18.234  1.00  0.00     0.366 C
HETATM    3  N3  UNL     1      10.639   6.811  17.880  1.00  0.00    -0.304 N
HETATM    4  C11 UNL     1      11.847   6.000  17.599  1.00  0.00     0.153 C
HETATM    5  C27 UNL     1      10.803   8.204  17.826  1.00  0.00     0.089 C
HETATM    6  C10 UNL     1      12.013   6.291  16.058  1.00  0.00     0.146 C
HETATM    7  N2  UNL     1      12.366   7.688  15.962  1.00  0.00    -0.344 N
HETATM    8  C9  UNL     1      13.069   8.153  14.810  1.00  0.00     0.243 C
HETATM    9  C28 UNL     1      11.957   8.641  16.943  1.00  0.00     0.170 C
HETATM   10  O2  UNL     1      13.582   9.276  14.793  1.00  0.00    -0.271 OA
HETATM   11  O3  UNL     1       8.312   6.656  18.300  1.00  0.00    -0.238 OA
BRANCH   8  12
HETATM   12  C4  UNL     1      13.156   7.251  13.599  1.00  0.00     0.180 C
BRANCH  12  13
HETATM   13  C2  UNL     1      12.592   8.082  12.439  1.00  0.00     0.009 C
HETATM   14  C1  UNL     1      11.165   8.405  12.709  1.00  0.00     0.012 C
HETATM   15  C3  UNL     1      12.730   7.291  11.151  1.00  0.00     0.012 C
ENDBRANCH  12  13
BRANCH  12  16
HETATM   16  N1  UNL     1      14.427   6.693  13.340  1.00  0.00    -0.347 N
HETATM   17  C5  UNL     1      14.751   5.327  13.299  1.00  0.00     0.222 C
HETATM   18  O1  UNL     1      13.919   4.410  13.566  1.00  0.00    -0.273 OA
ATOM     19  H1  UNL     1      15.188   7.349  13.165  1.00  0.00     0.163 HD
BRANCH  17  20
HETATM   20  C6  UNL     1      16.130   4.882  12.926  1.00  0.00     0.078 A
HETATM   21  C7  UNL     1      17.074   5.717  12.206  1.00  0.00     0.015 A
HETATM   22  C8  UNL     1      16.385   4.603  11.450  1.00  0.00     0.015 A
ENDBRANCH  17  20
ENDBRANCH  12  16
ENDBRANCH   8  12
ENDBRANCH   1   2
BRANCH   1  23
HETATM   23  C13 UNL     1       9.128   3.558  18.335  1.00  0.00     0.241 C
BRANCH  23  24
HETATM   24  C14 UNL     1       9.811   2.887  17.163  1.00  0.00     0.074 A
HETATM   25  N4  UNL     1      11.116   2.560  17.103  1.00  0.00    -0.299 N
HETATM   26  N5  UNL     1      11.338   1.848  15.983  1.00  0.00    -0.290 N
ATOM     27  H4  UNL     1      11.822   2.812  17.794  1.00  0.00     0.187 HD
HETATM   28  C15 UNL     1      12.593   1.243  15.654  1.00  0.00     0.178 C
HETATM   29  C16 UNL     1      10.181   1.726  15.324  1.00  0.00     0.142 A
HETATM   30  C26 UNL     1       9.178   2.369  16.056  1.00  0.00     0.094 A
HETATM   31 CL1  UNL     1       7.475   2.507  15.726  1.00  0.00    -0.079 Cl
BRANCH  29  32
HETATM   32  C17 UNL     1       9.916   1.328  13.934  1.00  0.00     0.272 C
HETATM   33  O5  UNL     1      10.679   1.721  13.001  1.00  0.00    -0.266 OA
HETATM   34  N6  UNL     1       8.826   0.486  13.658  1.00  0.00    -0.345 N
ATOM     35  H6  UNL     1       8.240   0.251  14.459  1.00  0.00     0.163 HD
BRANCH  34  36
HETATM   36  C18 UNL     1       8.430  -0.075  12.444  1.00  0.00     0.047 C
HETATM   37  C19 UNL     1       7.256  -1.048  12.643  1.00  0.00     0.040 C
HETATM   38  C20 UNL     1       7.831   1.039  11.542  1.00  0.00     0.040 C
BRANCH  36  39
HETATM   39  C21 UNL     1       9.502  -0.790  11.628  1.00  0.00     0.199 C
BRANCH  39  40
HETATM   40  O6  UNL     1       8.971  -1.958  11.180  1.00  0.00    -0.379 OA
BRANCH  40  41
HETATM   41  C22 UNL     1       8.986  -2.306   9.885  1.00  0.00     0.050 C
HETATM   42  C23 UNL     1      10.221  -3.067   9.405  1.00  0.00     0.045 C
HETATM   43  C24 UNL     1       8.576  -1.272   8.879  1.00  0.00     0.045 C
HETATM   44  C25 UNL     1       7.873  -3.406   9.768  1.00  0.00     0.045 C
ENDBRANCH  40  41
ENDBRANCH  39  40
ENDBRANCH  36  39
ENDBRANCH  34  36
ENDBRANCH  29  32
ENDBRANCH  23  24
ENDBRANCH   1  23
TORSDOF 12
ENDMDL