MODEL 1
REMARK VINA RESULT: -7.224109134      0.000      0.000
REMARK  12 active torsions:
REMARK  status: ('A' for Active; 'I' for Inactive)
REMARK    1  A    between atoms: C2_2  and  C3_3
REMARK    2  A    between atoms: C3_3  and  C5_5
REMARK    3  A    between atoms: C5_5  and  C6_6
REMARK    4  A    between atoms: C6_6  and  N1_7
REMARK    5  A    between atoms: N1_7  and  C7_9
REMARK    6  A    between atoms: C8_12  and  N3_13
REMARK    7  A    between atoms: C10_15  and  C11_16
REMARK    8  A    between atoms: C11_16  and  N4_17
REMARK       I    between atoms: N4_17  and  C12_19
REMARK       I    between atoms: C12_19  and  N5_21
REMARK    9  A    between atoms: C17_29  and  N6_30
REMARK   10  A    between atoms: N7_36  and  C23_37
REMARK   11  A    between atoms: C23_37  and  C24_38
REMARK   12  A    between atoms: C24_38  and  O4_39
ROOT
HETATM    1  C7  UNL     1      21.968   4.844 -14.175  1.00  0.00     0.681 A
HETATM    2  N2  UNL     1      23.041   5.603 -14.203  1.00  0.00    -0.173 N
ATOM      3  H2  UNL     1      23.785   5.404 -13.535  1.00  0.00     0.186 HD
HETATM    4  C8  UNL     1      23.218   6.639 -15.070  1.00  0.00     0.170 A
HETATM    5  C16 UNL     1      22.199   6.885 -15.955  1.00  0.00     0.205 A
HETATM    6  F1  UNL     1      22.321   7.901 -16.835  1.00  0.00    -0.198 F
HETATM    7  C17 UNL     1      21.047   6.101 -15.952  1.00  0.00     0.162 A
HETATM    8  N8  UNL     1      20.960   5.102 -15.063  1.00  0.00    -0.174 N
ATOM      9  H8  UNL     1      20.122   4.521 -15.048  1.00  0.00     0.186 HD
ENDROOT
BRANCH   7  10
HETATM   10  N6  UNL     1      19.993   6.328 -16.867  1.00  0.00    -0.364 N
HETATM   11  C18 UNL     1      19.212   7.552 -16.880  1.00  0.00     0.125 C
HETATM   12  C19 UNL     1      17.826   7.315 -17.438  1.00  0.00     0.029 C
HETATM   13  C20 UNL     1      17.881   6.808 -18.865  1.00  0.00    -0.035 C
HETATM   14  C21 UNL     1      17.944   7.990 -19.812  1.00  0.00     0.029 C
HETATM   15  C27 UNL     1      16.653   5.988 -19.109  1.00  0.00     0.029 C
HETATM   16  C28 UNL     1      19.126   5.988 -19.075  1.00  0.00     0.029 C
HETATM   17  C22 UNL     1      16.537   8.488 -20.091  1.00  0.00     0.117 C
HETATM   18  N7  UNL     1      15.715   7.505 -20.708  1.00  0.00    -0.410 N
HETATM   19  C26 UNL     1      16.081   6.145 -20.495  1.00  0.00     0.117 C
HETATM   20  C29 UNL     1      19.631   5.323 -17.841  1.00  0.00     0.125 C
BRANCH  18  21
HETATM   21  C23 UNL     1      15.219   7.822 -22.013  1.00  0.00     0.143 C
BRANCH  21  22
HETATM   22  C24 UNL     1      15.733   9.101 -22.573  1.00  0.00     0.186 C
BRANCH  22  23
HETATM   23  O4  UNL     1      14.713   9.871 -23.056  1.00  0.00    -0.394 OA
HETATM   24  C25 UNL     1      13.929  10.515 -22.139  1.00  0.00     0.201 C
ENDBRANCH  22  23
ENDBRANCH  21  22
ENDBRANCH  18  21
ENDBRANCH   7  10
BRANCH   4  25
HETATM   25  N3  UNL     1      24.401   7.436 -15.080  1.00  0.00    -0.274 N
HETATM   26  C9  UNL     1      25.309   7.688 -16.169  1.00  0.00     0.170 C
HETATM   27  C10 UNL     1      26.239   8.739 -15.649  1.00  0.00     0.170 C
HETATM   28  O2  UNL     1      26.207   8.582 -14.255  1.00  0.00    -0.295 OA
HETATM   29  C15 UNL     1      24.900   8.142 -13.960  1.00  0.00     0.369 C
HETATM   30  O3  UNL     1      24.295   8.355 -12.867  1.00  0.00    -0.238 OA
BRANCH  27  31
HETATM   31  C11 UNL     1      25.685  10.104 -15.991  1.00  0.00     0.158 C
BRANCH  31  32
HETATM   32  N4  UNL     1      24.910  10.116 -17.192  1.00  0.00    -0.340 N
HETATM   33  C12 UNL     1      23.796  10.979 -17.309  1.00  0.00     0.317 C
HETATM   34  O1  UNL     1      23.524  11.732 -16.327  1.00  0.00    -0.247 OA
HETATM   35  N5  UNL     1      22.977  11.043 -18.460  1.00  0.00    -0.343 N
HETATM   36  C13 UNL     1      21.851  11.973 -18.460  1.00  0.00     0.154 C
HETATM   37  C14 UNL     1      23.154  10.256 -19.658  1.00  0.00     0.154 C
ATOM     38  H4  UNL     1      25.161   9.500 -17.966  1.00  0.00     0.164 HD
ENDBRANCH  31  32
ENDBRANCH  27  31
ENDBRANCH   4  25
BRANCH   1  39
HETATM   39  N1  UNL     1      21.766   3.862 -13.387  1.00  0.00    -0.226 N
ATOM     40  H1  UNL     1      21.281   3.024 -13.707  1.00  0.00     0.177 HD
BRANCH  39  41
HETATM   41  C6  UNL     1      22.252   3.972 -12.013  1.00  0.00     0.138 C
BRANCH  41  42
HETATM   42  C5  UNL     1      21.083   4.499 -11.206  1.00  0.00     0.024 C
BRANCH  42  43
HETATM   43  C3  UNL     1      21.395   5.828 -10.554  1.00  0.00    -0.017 C
HETATM   44  C4  UNL     1      22.879   6.079 -10.707  1.00  0.00     0.010 C
BRANCH  43  45
HETATM   45  C2  UNL     1      20.586   6.870 -11.322  1.00  0.00    -0.000 C
HETATM   46  C1  UNL     1      19.406   6.292 -12.039  1.00  0.00     0.005 C
ENDBRANCH  43  45
ENDBRANCH  42  43
ENDBRANCH  41  42
ENDBRANCH  39  41
ENDBRANCH   1  39
TORSDOF 12
ENDMDL