MODEL 2
REMARK VINA RESULT: -7.836344774      3.729      6.609
REMARK  14 active torsions:
REMARK  status: ('A' for Active; 'I' for Inactive)
REMARK    1  A    between atoms: N1_2  and  C2_4
REMARK    2  A    between atoms: C2_4  and  O1_5
REMARK    3  A    between atoms: C2_4  and  C3_7
REMARK    4  A    between atoms: C3_7  and  C4_8
REMARK    5  A    between atoms: C4_8  and  C5_9
REMARK    6  A    between atoms: C4_8  and  C27_43
REMARK    7  A    between atoms: C5_9  and  N2_10
REMARK    8  A    between atoms: C9_16  and  N4_17
REMARK    9  A    between atoms: C15_25  and  N6_26
REMARK   10  A    between atoms: N6_26  and  C17_28
REMARK   11  A    between atoms: C20_31  and  C21_32
REMARK   12  A    between atoms: C21_32  and  S1_33
REMARK   13  A    between atoms: S1_33  and  N7_36
REMARK   14  A    between atoms: C27_43  and  C28_44
ROOT
HETATM    1  N2  UNL     1      24.903  10.068 -16.355  1.00  0.00    -0.385 N
HETATM    2  C6  UNL     1      25.237  10.340 -15.062  1.00  0.00     0.128 C
HETATM    3  C7  UNL     1      24.042  10.652 -14.146  1.00  0.00     0.078 C
HETATM    4  C8  UNL     1      23.208   9.406 -14.190  1.00  0.00     0.040 A
HETATM    5  N3  UNL     1      22.697   8.805 -13.121  1.00  0.00    -0.195 N
ATOM      6  H3  UNL     1      22.876   9.208 -12.202  1.00  0.00     0.184 HD
HETATM    7  C9  UNL     1      21.951   7.684 -13.202  1.00  0.00     0.682 A
HETATM    8  N5  UNL     1      21.731   7.177 -14.428  1.00  0.00    -0.176 N
ATOM      9  H5  UNL     1      21.169   6.330 -14.516  1.00  0.00     0.186 HD
HETATM   10  C15 UNL     1      22.237   7.761 -15.567  1.00  0.00     0.129 A
HETATM   11  C25 UNL     1      22.988   8.892 -15.448  1.00  0.00     0.027 A
HETATM   12  C26 UNL     1      23.554   9.570 -16.600  1.00  0.00     0.166 C
ENDROOT
BRANCH  10  13
HETATM   13  N6  UNL     1      21.917   7.092 -16.781  1.00  0.00    -0.366 N
HETATM   14  C16 UNL     1      22.598   5.850 -17.063  1.00  0.00     0.151 C
BRANCH  13  15
HETATM   15  C17 UNL     1      20.916   7.657 -17.674  1.00  0.00     0.085 C
HETATM   16  C18 UNL     1      19.763   8.248 -16.962  1.00  0.00     0.026 C
HETATM   17  C19 UNL     1      18.494   7.442 -16.938  1.00  0.00     0.007 C
HETATM   18  C20 UNL     1      18.201   6.926 -18.315  1.00  0.00     0.001 C
HETATM   19  C23 UNL     1      19.337   5.922 -18.604  1.00  0.00     0.007 C
HETATM   20  C24 UNL     1      20.589   6.691 -18.756  1.00  0.00     0.026 C
BRANCH  18  21
HETATM   21  C21 UNL     1      16.877   6.288 -18.518  1.00  0.00     0.167 C
BRANCH  21  22
HETATM   22  S1  UNL     1      15.542   7.428 -18.661  1.00  0.00     0.226 S
HETATM   23  O2  UNL     1      15.132   8.023 -17.322  1.00  0.00    -0.206 OA
HETATM   24  O3  UNL     1      15.839   8.569 -19.581  1.00  0.00    -0.206 OA
BRANCH  22  25
HETATM   25  N7  UNL     1      14.109   6.591 -19.208  1.00  0.00    -0.324 N
HETATM   26  C22 UNL     1      13.832   5.450 -18.370  1.00  0.00     0.159 C
ATOM     27  H7  UNL     1      13.546   6.871 -20.010  1.00  0.00     0.171 HD
ENDBRANCH  22  25
ENDBRANCH  21  22
ENDBRANCH  18  21
ENDBRANCH  13  15
ENDBRANCH  10  13
BRANCH   7  28
HETATM   28  N4  UNL     1      21.417   7.053 -12.057  1.00  0.00    -0.218 N
HETATM   29  C10 UNL     1      20.000   6.851 -11.909  1.00  0.00     0.141 C
HETATM   30  C11 UNL     1      19.677   5.383 -11.790  1.00  0.00     0.020 C
HETATM   31  C12 UNL     1      20.835   4.585 -11.282  1.00  0.00     0.003 C
HETATM   32  C13 UNL     1      21.752   5.341 -10.350  1.00  0.00     0.020 C
HETATM   33  C14 UNL     1      22.299   6.595 -11.011  1.00  0.00     0.141 C
ENDBRANCH   7  28
BRANCH   1  34
HETATM   34  C5  UNL     1      25.746  10.161 -17.426  1.00  0.00     0.093 C
BRANCH  34  35
HETATM   35  C4  UNL     1      26.737   9.057 -17.703  1.00  0.00    -0.030 C
BRANCH  35  36
HETATM   36  C3  UNL     1      27.934   9.497 -18.082  1.00  0.00     0.064 C
BRANCH  36  37
HETATM   37  C2  UNL     1      28.887   9.192 -19.075  1.00  0.00     0.135 C
BRANCH  37  38
HETATM   38  N1  UNL     1      29.107   9.604 -20.388  1.00  0.00    -0.375 N
HETATM   39  C1  UNL     1      28.094  10.447 -21.096  1.00  0.00     0.148 C
ATOM     40  H1  UNL     1      29.964   9.329 -20.868  1.00  0.00     0.161 HD
ENDBRANCH  37  38
BRANCH  37  41
HETATM   41  O1  UNL     1      29.820   8.293 -18.705  1.00  0.00    -0.346 OA
ATOM     42  H1  UNL     1      29.665   8.006 -17.813  1.00  0.00     0.219 HD
ENDBRANCH  37  41
ENDBRANCH  36  37
ENDBRANCH  35  36
BRANCH  35  43
HETATM   43  C27 UNL     1      26.487   7.638 -17.540  1.00  0.00     0.157 C
BRANCH  43  44
HETATM   44  C28 UNL     1      26.651   7.072 -16.162  1.00  0.00     0.391 C
HETATM   45  F1  UNL     1      27.331   5.843 -16.231  1.00  0.00    -0.171 F
HETATM   46  F2  UNL     1      25.388   6.723 -15.659  1.00  0.00    -0.171 F
HETATM   47  F3  UNL     1      27.227   7.900 -15.262  1.00  0.00    -0.171 F
ENDBRANCH  43  44
ENDBRANCH  35  43
ENDBRANCH  34  35
ENDBRANCH   1  34
TORSDOF 14
ENDMDL