MODEL 1
REMARK VINA RESULT: -8.068959956      0.000      0.000
REMARK  10 active torsions:
REMARK  status: ('A' for Active; 'I' for Inactive)
REMARK    1  A    between atoms: C6_9  and  C7_10
REMARK       I    between atoms: C7_10  and  N3_12
REMARK    2  A    between atoms: N3_12  and  C8_14
REMARK    3  A    between atoms: C8_14  and  C9_15
REMARK    4  A    between atoms: C9_15  and  N4_16
REMARK    5  A    between atoms: N4_16  and  C10_18
REMARK    6  A    between atoms: C10_18  and  C11_19
REMARK    7  A    between atoms: C11_19  and  C12_20
REMARK    8  A    between atoms: C12_20  and  C13_21
REMARK    9  A    between atoms: C13_21  and  N5_22
REMARK   10  A    between atoms: C18_28  and  C19_29
ROOT
HETATM    1  N4  UNL     1      23.661   2.910 -13.047  1.00  0.00    -0.420 N
ATOM      2  H4  UNL     1      24.441   2.960 -12.391  1.00  0.00     0.153 HD
ENDROOT
BRANCH   1   3
HETATM    3  C9  UNL     1      23.723   2.101 -14.239  1.00  0.00     0.133 C
BRANCH   3   4
HETATM    4  C8  UNL     1      25.069   1.463 -14.312  1.00  0.00     0.142 C
BRANCH   4   5
HETATM    5  N3  UNL     1      25.583   0.988 -13.034  1.00  0.00    -0.354 N
HETATM    6  C7  UNL     1      25.989  -0.337 -12.815  1.00  0.00     0.270 C
HETATM    7  O1  UNL     1      25.922  -1.165 -13.792  1.00  0.00    -0.266 OA
ATOM      8  H3  UNL     1      25.651   1.651 -12.262  1.00  0.00     0.162 HD
BRANCH   6   9
HETATM    9  C6  UNL     1      26.487  -0.854 -11.576  1.00  0.00     0.132 A
HETATM   10  C5  UNL     1      27.615  -0.511 -10.887  1.00  0.00     0.068 A
HETATM   11  C2  UNL     1      28.726   0.309 -10.754  1.00  0.00     0.038 A
HETATM   12  C4  UNL     1      27.683  -1.365  -9.793  1.00  0.00     0.153 A
HETATM   13  C1  UNL     1      29.068   1.430 -11.665  1.00  0.00     0.071 C
HETATM   14  N1  UNL     1      29.408  -0.058  -9.636  1.00  0.00    -0.301 N
HETATM   15  N2  UNL     1      28.782  -1.048  -9.077  1.00  0.00    -0.279 N
ATOM     16  H1  UNL     1      30.267   0.374  -9.293  1.00  0.00     0.187 HD
HETATM   17  C3  UNL     1      29.242  -1.688  -7.851  1.00  0.00     0.179 C
HETATM   18  N7  UNL     1      26.638  -2.186  -9.821  1.00  0.00    -0.279 N
HETATM   19  N6  UNL     1      25.929  -1.893 -10.864  1.00  0.00    -0.291 N
HETATM   20  C23 UNL     1      26.402  -3.222  -8.802  1.00  0.00     0.179 C
ATOM     21  H6  UNL     1      25.066  -2.371 -11.125  1.00  0.00     0.187 HD
ENDBRANCH   6   9
ENDBRANCH   4   5
ENDBRANCH   3   4
ENDBRANCH   1   3
BRANCH   1  22
HETATM   22  C10 UNL     1      22.459   3.632 -12.836  1.00  0.00     0.113 C
BRANCH  22  23
HETATM   23  C11 UNL     1      22.256   4.158 -11.452  1.00  0.00     0.021 C
BRANCH  23  24
HETATM   24  C12 UNL     1      20.998   4.907 -11.270  1.00  0.00     0.022 C
BRANCH  24  25
HETATM   25  C13 UNL     1      21.078   6.329 -10.845  1.00  0.00     0.135 C
BRANCH  25  26
HETATM   26  N5  UNL     1      21.913   7.025 -11.853  1.00  0.00    -0.280 N
HETATM   27  C14 UNL     1      23.225   7.525 -11.679  1.00  0.00     0.261 A
HETATM   28  O2  UNL     1      23.941   7.469 -10.641  1.00  0.00    -0.267 OA
HETATM   29  C15 UNL     1      23.698   8.156 -12.918  1.00  0.00     0.049 A
HETATM   30  C16 UNL     1      24.859   8.789 -13.305  1.00  0.00     0.019 A
HETATM   31  C21 UNL     1      22.648   8.022 -13.821  1.00  0.00     0.066 A
HETATM   32  C17 UNL     1      24.982   9.290 -14.588  1.00  0.00     0.010 A
HETATM   33  C18 UNL     1      23.941   9.157 -15.483  1.00  0.00    -0.030 A
HETATM   34  C20 UNL     1      22.772   8.525 -15.109  1.00  0.00     0.034 A
HETATM   35 BR2  UNL     1      21.323   8.342 -16.356  1.00  0.00    -0.049 Br
HETATM   36  C22 UNL     1      21.537   7.327 -13.186  1.00  0.00     0.263 A
HETATM   37  O3  UNL     1      20.408   7.022 -13.692  1.00  0.00    -0.267 OA
BRANCH  33  38
HETATM   38  C19 UNL     1      24.102   9.708 -16.854  1.00  0.00     0.125 C
HETATM   39 BR1  UNL     1      23.648  11.607 -16.796  1.00  0.00    -0.091 Br
ENDBRANCH  33  38
ENDBRANCH  25  26
ENDBRANCH  24  25
ENDBRANCH  23  24
ENDBRANCH  22  23
ENDBRANCH   1  22
TORSDOF 10
ENDMDL