MODEL 1
REMARK VINA RESULT: -8.767174903      0.000      0.000
REMARK  13 active torsions:
REMARK  status: ('A' for Active; 'I' for Inactive)
REMARK       I    between atoms: N1_2  and  C3_4
REMARK    1  A    between atoms: C3_4  and  C4_6
REMARK    2  A    between atoms: C4_6  and  O2_7
REMARK    3  A    between atoms: O2_7  and  C5_8
REMARK    4  A    between atoms: C8_11  and  C9_12
REMARK    5  A    between atoms: C9_12  and  C10_13
REMARK    6  A    between atoms: C11_14  and  C12_15
REMARK    7  A    between atoms: C15_20  and  N3_21
REMARK    8  A    between atoms: N3_21  and  C16_23
REMARK    9  A    between atoms: C22_35  and  N6_36
REMARK   10  A    between atoms: N6_36  and  C23_38
REMARK   11  A    between atoms: C23_38  and  C24_39
REMARK   12  A    between atoms: C24_39  and  C25_40
REMARK   13  A    between atoms: N9_49  and  O3_50
ROOT
HETATM    1  C10 UNL     1      25.765   8.635 -16.333  1.00  0.00     0.093 A
HETATM    2  C11 UNL     1      24.830   7.641 -16.323  1.00  0.00     0.103 A
HETATM    3  N5  UNL     1      25.224   6.389 -16.667  1.00  0.00    -0.186 N
ATOM      4  H5  UNL     1      24.532   5.639 -16.657  1.00  0.00     0.184 HD
HETATM    5  C22 UNL     1      26.479   6.100 -17.017  1.00  0.00     0.695 A
HETATM    6  N8  UNL     1      27.387   7.083 -17.027  1.00  0.00    -0.106 N
ATOM      7  H8  UNL     1      28.350   6.873 -17.293  1.00  0.00     0.208 HD
HETATM    8  N9  UNL     1      27.063   8.310 -16.702  1.00  0.00    -0.151 N
ENDROOT
BRANCH   2   9
HETATM    9  C12 UNL     1      23.394   7.868 -16.040  1.00  0.00     0.080 A
HETATM   10  C13 UNL     1      22.478   8.072 -17.050  1.00  0.00     0.050 A
HETATM   11  C14 UNL     1      21.116   8.289 -16.784  1.00  0.00     0.108 A
HETATM   12  N2  UNL     1      20.670   8.304 -15.529  1.00  0.00    -0.202 N
HETATM   13  C15 UNL     1      21.567   8.106 -14.549  1.00  0.00     0.683 A
ATOM     14  H2  UNL     1      19.684   8.461 -15.320  1.00  0.00     0.183 HD
HETATM   15  N4  UNL     1      22.861   7.900 -14.813  1.00  0.00    -0.189 N
ATOM     16  H4  UNL     1      23.488   7.755 -14.022  1.00  0.00     0.184 HD
BRANCH  13  17
HETATM   17  N3  UNL     1      21.109   8.123 -13.320  1.00  0.00    -0.189 N
ATOM     18  H3  UNL     1      20.687   8.980 -12.964  1.00  0.00     0.184 HD
BRANCH  17  19
HETATM   19  C16 UNL     1      21.180   7.001 -12.481  1.00  0.00     0.087 A
HETATM   20  C17 UNL     1      22.287   6.668 -11.704  1.00  0.00     0.036 A
HETATM   21  C18 UNL     1      22.335   5.564 -10.892  1.00  0.00     0.044 A
HETATM   22  C19 UNL     1      21.238   4.731 -10.829  1.00  0.00     0.119 A
HETATM   23  F1  UNL     1      21.303   3.639 -10.018  1.00  0.00    -0.206 F
HETATM   24  C20 UNL     1      20.132   5.028 -11.579  1.00  0.00     0.086 A
HETATM   25  C21 UNL     1      20.102   6.147 -12.394  1.00  0.00     0.146 A
HETATM   26  F2  UNL     1      18.996   6.432 -13.135  1.00  0.00    -0.204 F
ENDBRANCH  17  19
ENDBRANCH  13  17
ENDBRANCH   2   9
BRANCH   1  27
HETATM   27  C9  UNL     1      25.568  10.008 -15.854  1.00  0.00     0.102 C
BRANCH  27  28
HETATM   28  C8  UNL     1      24.859  10.903 -16.808  1.00  0.00    -0.052 A
HETATM   29  C7  UNL     1      25.112  11.058 -18.136  1.00  0.00     0.010 A
HETATM   30  C6  UNL     1      24.397  11.950 -18.921  1.00  0.00     0.037 A
HETATM   31  C5  UNL     1      23.400  12.710 -18.369  1.00  0.00     0.069 A
HETATM   32  C31 UNL     1      23.115  12.585 -17.046  1.00  0.00     0.037 A
HETATM   33  C30 UNL     1      23.827  11.695 -16.259  1.00  0.00     0.010 A
BRANCH  31  34
HETATM   34  O2  UNL     1      22.698  13.595 -19.163  1.00  0.00    -0.342 OA
BRANCH  34  35
HETATM   35  C4  UNL     1      21.791  14.528 -18.612  1.00  0.00     0.278 C
BRANCH  35  36
HETATM   36  C3  UNL     1      20.409  14.187 -19.026  1.00  0.00     0.243 C
HETATM   37  N1  UNL     1      19.531  15.208 -19.441  1.00  0.00    -0.359 N
HETATM   38  C1  UNL     1      19.961  16.592 -19.467  1.00  0.00     0.152 C
HETATM   39  C2  UNL     1      18.187  14.863 -19.845  1.00  0.00     0.152 C
HETATM   40  O1  UNL     1      20.031  12.982 -19.003  1.00  0.00    -0.271 OA
ENDBRANCH  35  36
ENDBRANCH  34  35
ENDBRANCH  31  34
ENDBRANCH  27  28
ENDBRANCH   1  27
BRANCH   8  41
HETATM   41  O3  UNL     1      28.029   9.290 -16.726  1.00  0.00    -0.267 OA
ATOM     42  H3  UNL     1      28.194   9.807 -15.946  1.00  0.00     0.247 HD
ENDBRANCH   8  41
BRANCH   5  43
HETATM   43  N6  UNL     1      26.810   4.878 -17.350  1.00  0.00    -0.224 N
ATOM     44  H6  UNL     1      27.783   4.649 -17.556  1.00  0.00     0.177 HD
BRANCH  43  45
HETATM   45  C23 UNL     1      25.802   3.867 -17.422  1.00  0.00     0.144 C
BRANCH  45  46
HETATM   46  C24 UNL     1      25.592   3.085 -16.180  1.00  0.00     0.077 C
BRANCH  46  47
HETATM   47  C25 UNL     1      24.247   3.177 -15.582  1.00  0.00     0.010 A
HETATM   48  C26 UNL     1      23.106   3.594 -16.209  1.00  0.00     0.025 A
HETATM   49  C27 UNL     1      21.909   3.639 -15.513  1.00  0.00     0.003 A
HETATM   50  C28 UNL     1      21.888   3.260 -14.192  1.00  0.00     0.017 A
HETATM   51  C29 UNL     1      23.038   2.841 -13.564  1.00  0.00     0.088 A
HETATM   52  N7  UNL     1      24.178   2.809 -14.266  1.00  0.00    -0.369 N
ATOM     53  H7  UNL     1      25.031   2.498 -13.801  1.00  0.00     0.165 HD
ENDBRANCH  46  47
ENDBRANCH  45  46
ENDBRANCH  43  45
ENDBRANCH   5  43
TORSDOF 13
ENDMDL