MODEL 1
REMARK VINA RESULT: -7.156912919      0.000      0.000
REMARK  14 active torsions:
REMARK  status: ('A' for Active; 'I' for Inactive)
REMARK    1  A    between atoms: C2_2  and  C4_4
REMARK    2  A    between atoms: C4_4  and  N1_5
REMARK    3  A    between atoms: C4_4  and  C18_29
REMARK       I    between atoms: N1_5  and  C5_7
REMARK    4  A    between atoms: C5_7  and  C6_9
REMARK    5  A    between atoms: C6_9  and  N2_10
REMARK    6  A    between atoms: C6_9  and  C15_26
REMARK       I    between atoms: N2_10  and  C7_12
REMARK    7  A    between atoms: C7_12  and  C8_14
REMARK    8  A    between atoms: C8_14  and  S1_15
REMARK    9  A    between atoms: S1_15  and  S2_16
REMARK   10  A    between atoms: S2_16  and  C9_17
REMARK   11  A    between atoms: C9_17  and  C10_18
REMARK       I    between atoms: C10_18  and  N3_20
REMARK   12  A    between atoms: C18_29  and  O5_30
REMARK   13  A    between atoms: C18_29  and  N4_32
REMARK   14  A    between atoms: N4_32  and  C19_34
ROOT
HETATM    1  N1  UNL     1      23.439   6.406 -15.650  1.00  0.00    -0.347 N
ATOM      2  H1  UNL     1      22.468   6.677 -15.494  1.00  0.00     0.163 HD
HETATM    3  C5  UNL     1      23.750   5.052 -15.676  1.00  0.00     0.241 C
HETATM    4  O1  UNL     1      24.989   4.772 -15.884  1.00  0.00    -0.271 OA
ENDROOT
BRANCH   3   5
HETATM    5  C6  UNL     1      22.859   3.916 -15.500  1.00  0.00     0.180 C
BRANCH   5   6
HETATM    6  N2  UNL     1      23.568   2.711 -15.194  1.00  0.00    -0.347 N
HETATM    7  C7  UNL     1      23.951   2.169 -13.977  1.00  0.00     0.228 C
HETATM    8  O2  UNL     1      23.695   2.745 -12.895  1.00  0.00    -0.273 OA
ATOM      9  H2  UNL     1      23.837   2.158 -16.008  1.00  0.00     0.163 HD
BRANCH   7  10
HETATM   10  C8  UNL     1      24.682   0.886 -13.870  1.00  0.00     0.188 C
BRANCH  10  11
HETATM   11  S1  UNL     1      26.098   0.712 -14.932  1.00  0.00    -0.088 SA
BRANCH  11  12
HETATM   12  S2  UNL     1      27.962   0.769 -14.000  1.00  0.00    -0.088 SA
BRANCH  12  13
HETATM   13  C9  UNL     1      27.942   1.199 -12.272  1.00  0.00     0.189 C
BRANCH  13  14
HETATM   14  C10 UNL     1      28.794   0.415 -11.385  1.00  0.00     0.230 C
HETATM   15  O3  UNL     1      29.991   0.727 -11.204  1.00  0.00    -0.273 OA
HETATM   16  N3  UNL     1      28.273  -0.726 -10.706  1.00  0.00    -0.347 N
HETATM   17  C11 UNL     1      26.875  -1.132 -10.925  1.00  0.00     0.152 C
HETATM   18  C14 UNL     1      29.035  -1.532  -9.780  1.00  0.00     0.152 C
HETATM   19  C12 UNL     1      26.602  -2.269  -9.954  1.00  0.00     0.187 C
HETATM   20  O4  UNL     1      26.932  -1.933  -8.659  1.00  0.00    -0.388 OA
HETATM   21  C13 UNL     1      28.264  -1.637  -8.488  1.00  0.00     0.187 C
ENDBRANCH  13  14
ENDBRANCH  12  13
ENDBRANCH  11  12
ENDBRANCH  10  11
ENDBRANCH   7  10
ENDBRANCH   5   6
BRANCH   5  22
HETATM   22  C15 UNL     1      21.777   3.778 -16.491  1.00  0.00     0.009 C
HETATM   23  C16 UNL     1      20.745   2.782 -16.038  1.00  0.00     0.012 C
HETATM   24  C17 UNL     1      22.322   3.307 -17.832  1.00  0.00     0.012 C
ENDBRANCH   5  22
ENDBRANCH   3   5
BRANCH   1  25
HETATM   25  C4  UNL     1      24.439   7.470 -15.836  1.00  0.00     0.162 C
BRANCH  25  26
HETATM   26  C2  UNL     1      23.818   8.680 -16.458  1.00  0.00     0.008 C
HETATM   27  C1  UNL     1      24.342   8.849 -17.868  1.00  0.00     0.012 C
HETATM   28  C3  UNL     1      22.312   8.677 -16.375  1.00  0.00     0.012 C
ENDBRANCH  25  26
BRANCH  25  29
HETATM   29  C18 UNL     1      25.070   7.773 -14.494  1.00  0.00     0.140 C
BRANCH  29  30
HETATM   30  O5  UNL     1      26.385   7.859 -14.505  1.00  0.00    -0.348 OA
ATOM     31  H5  UNL     1      26.728   8.714 -14.734  1.00  0.00     0.219 HD
ENDBRANCH  29  30
BRANCH  29  32
HETATM   32  N4  UNL     1      24.501   7.966 -13.300  1.00  0.00    -0.337 N
ATOM     33  H4  UNL     1      25.278   8.275 -12.716  1.00  0.00     0.168 HD
BRANCH  32  34
HETATM   34  C19 UNL     1      23.550   7.972 -12.532  1.00  0.00     0.054 C
HETATM   35  C20 UNL     1      22.198   8.588 -12.267  1.00  0.00     0.114 C
HETATM   36  C21 UNL     1      21.698   7.191 -11.983  1.00  0.00     0.126 C
HETATM   37  C22 UNL     1      20.416   7.112 -11.228  1.00  0.00     0.059 C
HETATM   38  O6  UNL     1      21.702   6.301 -13.009  1.00  0.00    -0.303 OA
HETATM   39  S3  UNL     1      23.198   7.034 -10.973  1.00  0.00    -0.077 SA
HETATM   40  C23 UNL     1      19.555   6.243 -12.123  1.00  0.00     0.116 C
HETATM   41  C24 UNL     1      20.459   5.782 -13.233  1.00  0.00     0.356 C
HETATM   42  F1  UNL     1      19.987   6.140 -14.485  1.00  0.00    -0.176 F
HETATM   43  F2  UNL     1      20.591   4.395 -13.244  1.00  0.00    -0.176 F
ENDBRANCH  32  34
ENDBRANCH  29  32
ENDBRANCH  25  29
ENDBRANCH   1  25
TORSDOF 14
ENDMDL