MODEL 3
REMARK VINA RESULT: -7.422359838      3.525      6.856
REMARK  11 active torsions:
REMARK  status: ('A' for Active; 'I' for Inactive)
REMARK    1  A    between atoms: C5_5  and  C6_6
REMARK       I    between atoms: C6_6  and  N1_8
REMARK    2  A    between atoms: N1_8  and  C7_10
REMARK    3  A    between atoms: C7_10  and  C8_11
REMARK    4  A    between atoms: C7_10  and  C12_19
REMARK    5  A    between atoms: C8_11  and  N2_12
REMARK    6  A    between atoms: C12_19  and  C13_21
REMARK       I    between atoms: C13_21  and  N4_23
REMARK    7  A    between atoms: C18_29  and  C19_30
REMARK       I    between atoms: C19_30  and  N5_32
REMARK    8  A    between atoms: N5_32  and  C20_34
REMARK    9  A    between atoms: C20_34  and  C21_35
REMARK   10  A    between atoms: C20_34  and  C25_41
REMARK   11  A    between atoms: C21_35  and  C22_37
ROOT
HETATM    1  C13 UNL     1      21.415   4.706 -17.380  1.00  0.00     0.293 C
HETATM    2  O3  UNL     1      20.145   4.845 -17.205  1.00  0.00    -0.264 OA
HETATM    3  N4  UNL     1      22.165   5.883 -17.153  1.00  0.00    -0.322 N
HETATM    4  C14 UNL     1      23.601   5.980 -17.272  1.00  0.00     0.202 C
HETATM    5  S1  UNL     1      23.687   7.518 -18.296  1.00  0.00    -0.137 SA
HETATM    6  C15 UNL     1      22.186   8.278 -17.548  1.00  0.00     0.032 C
HETATM    7  C16 UNL     1      22.690   9.483 -16.815  1.00  0.00     0.029 C
HETATM    8  C17 UNL     1      21.321   8.670 -18.739  1.00  0.00     0.029 C
HETATM    9  C18 UNL     1      21.617   7.184 -16.759  1.00  0.00     0.198 C
ENDROOT
BRANCH   1  10
HETATM   10  C12 UNL     1      21.844   3.409 -17.770  1.00  0.00     0.240 C
HETATM   11  O2  UNL     1      22.060   3.124 -18.974  1.00  0.00    -0.285 OA
BRANCH  10  12
HETATM   12  C7  UNL     1      22.080   2.275 -16.812  1.00  0.00     0.182 C
BRANCH  12  13
HETATM   13  N1  UNL     1      20.913   1.413 -16.750  1.00  0.00    -0.347 N
HETATM   14  C6  UNL     1      20.692   0.261 -17.502  1.00  0.00     0.222 C
HETATM   15  O1  UNL     1      21.559  -0.127 -18.327  1.00  0.00    -0.273 OA
ATOM     16  H1  UNL     1      20.182   1.678 -16.090  1.00  0.00     0.163 HD
BRANCH  14  17
HETATM   17  C5  UNL     1      19.444  -0.523 -17.348  1.00  0.00     0.078 C
HETATM   18  C4  UNL     1      18.431   0.130 -16.452  1.00  0.00     0.014 C
HETATM   19  C3  UNL     1      17.257   0.591 -17.305  1.00  0.00     0.005 C
HETATM   20  C2  UNL     1      16.534  -0.648 -17.787  1.00  0.00    -0.019 C
HETATM   21  C1  UNL     1      15.474  -0.239 -18.815  1.00  0.00     0.010 C
HETATM   22  C29 UNL     1      17.526  -1.597 -18.398  1.00  0.00     0.005 C
HETATM   23  C28 UNL     1      18.851  -0.937 -18.668  1.00  0.00     0.014 C
ENDBRANCH  14  17
ENDBRANCH  12  13
BRANCH  12  24
HETATM   24  C8  UNL     1      22.364   2.794 -15.445  1.00  0.00     0.162 C
BRANCH  24  25
HETATM   25  N2  UNL     1      23.710   2.541 -14.983  1.00  0.00    -0.346 N
HETATM   26  C9  UNL     1      24.878   2.858 -15.548  1.00  0.00     0.185 A
HETATM   27  N3  UNL     1      25.895   2.449 -14.778  1.00  0.00    -0.328 N
HETATM   28  C10 UNL     1      25.369   1.856 -13.692  1.00  0.00     0.204 A
ATOM     29  H3  UNL     1      26.888   2.567 -14.978  1.00  0.00     0.169 HD
HETATM   30  F1  UNL     1      26.123   1.325 -12.708  1.00  0.00    -0.185 F
HETATM   31  C11 UNL     1      23.998   1.920 -13.832  1.00  0.00     0.153 A
ENDBRANCH  24  25
ENDBRANCH  12  24
ENDBRANCH  10  12
ENDBRANCH   1  10
BRANCH   9  32
HETATM   32  C19 UNL     1      21.667   7.355 -15.326  1.00  0.00     0.242 C
HETATM   33  O4  UNL     1      20.607   7.761 -14.733  1.00  0.00    -0.271 OA
HETATM   34  N5  UNL     1      22.768   7.130 -14.470  1.00  0.00    -0.347 N
ATOM     35  H5  UNL     1      23.635   6.797 -14.891  1.00  0.00     0.163 HD
BRANCH  34  36
HETATM   36  C20 UNL     1      22.751   7.341 -13.039  1.00  0.00     0.161 C
BRANCH  36  37
HETATM   37  C21 UNL     1      22.298   6.224 -12.225  1.00  0.00     0.188 C
HETATM   38  O5  UNL     1      22.969   5.168 -12.394  1.00  0.00    -0.292 OA
BRANCH  37  39
HETATM   39  C22 UNL     1      21.229   6.097 -11.258  1.00  0.00     0.158 C
HETATM   40  C23 UNL     1      20.226   7.179 -11.130  1.00  0.00     0.060 C
HETATM   41  C24 UNL     1      20.406   4.804 -11.484  1.00  0.00     0.060 C
HETATM   42  F2  UNL     1      21.778   5.880  -9.984  1.00  0.00    -0.235 F
ENDBRANCH  37  39
ENDBRANCH  36  37
BRANCH  36  43
HETATM   43  C25 UNL     1      24.078   7.886 -12.554  1.00  0.00     0.008 C
HETATM   44  C26 UNL     1      23.981   8.186 -11.039  1.00  0.00     0.012 C
HETATM   45  C27 UNL     1      24.532   9.109 -13.298  1.00  0.00     0.012 C
ENDBRANCH  36  43
ENDBRANCH  34  36
ENDBRANCH   9  32
TORSDOF 11
ENDMDL