MODEL 5
REMARK VINA RESULT: -8.214790645      3.853      7.320
REMARK  9 active torsions:
REMARK  status: ('A' for Active; 'I' for Inactive)
REMARK    1  A    between atoms: C4_5  and  C5_6
REMARK    2  A    between atoms: C5_6  and  C6_9
REMARK       I    between atoms: C6_9  and  N2_11
REMARK    3  A    between atoms: C7_13  and  C8_14
REMARK    4  A    between atoms: C7_13  and  C10_18
REMARK    5  A    between atoms: C8_14  and  C9_15
REMARK    6  A    between atoms: C10_18  and  C11_20
REMARK    7  A    between atoms: C11_20  and  C12_21
REMARK    8  A    between atoms: C20_29  and  N3_30
REMARK    9  A    between atoms: C23_33  and  N4_34
ROOT
HETATM    1  C11 UNL     1      21.990   6.472 -14.158  1.00  0.00     0.032 C
HETATM    2  C18 UNL     1      22.583   5.313 -14.870  1.00  0.00     0.020 C
HETATM    3  C19 UNL     1      21.613   4.863 -15.923  1.00  0.00     0.037 C
HETATM    4  C20 UNL     1      20.447   5.816 -15.889  1.00  0.00     0.224 C
HETATM    5  C29 UNL     1      20.712   6.865 -14.862  1.00  0.00     0.053 C
ENDROOT
BRANCH   1   6
HETATM    6  C10 UNL     1      22.876   7.682 -14.125  1.00  0.00     0.181 C
HETATM    7  O4  UNL     1      22.980   8.136 -12.954  1.00  0.00    -0.290 OA
BRANCH   6   8
HETATM    8  C7  UNL     1      23.558   8.329 -15.146  1.00  0.00     0.069 C
HETATM    9  N2  UNL     1      23.468   9.411 -15.965  1.00  0.00    -0.323 N
HETATM   10  C6  UNL     1      23.669  10.802 -15.925  1.00  0.00     0.284 C
ATOM     11  H2  UNL     1      23.160   9.125 -16.894  1.00  0.00     0.169 HD
HETATM   12  O1  UNL     1      23.960  11.401 -14.889  1.00  0.00    -0.268 OA
BRANCH  10  13
HETATM   13  C5  UNL     1      23.576  11.636 -17.168  1.00  0.00     0.302 C
HETATM   14  F1  UNL     1      23.579  12.954 -16.689  1.00  0.00    -0.207 F
HETATM   15 CL1  UNL     1      22.159  11.270 -18.103  1.00  0.00    -0.066 Cl
BRANCH  13  16
HETATM   16  C4  UNL     1      24.814  11.412 -17.966  1.00  0.00     0.091 A
HETATM   17  C3  UNL     1      25.139  11.803 -19.248  1.00  0.00     0.050 A
HETATM   18  C2  UNL     1      26.407  11.409 -19.524  1.00  0.00     0.112 A
HETATM   19  N1  UNL     1      26.852  10.778 -18.402  1.00  0.00    -0.307 N
HETATM   20  C1  UNL     1      28.188  10.284 -18.244  1.00  0.00     0.177 C
HETATM   21  N5  UNL     1      25.918  10.768 -17.476  1.00  0.00    -0.298 N
ATOM     22  H5  UNL     1      26.002  10.351 -16.549  1.00  0.00     0.187 HD
ENDBRANCH  13  16
ENDBRANCH  10  13
BRANCH   8  23
HETATM   23  C8  UNL     1      25.076   8.496 -14.479  1.00  0.00     0.174 C
BRANCH  23  24
HETATM   24  C9  UNL     1      26.056   7.785 -15.217  1.00  0.00     0.178 C
HETATM   25  O2  UNL     1      27.099   8.395 -15.609  1.00  0.00    -0.648 OA
HETATM   26  O3  UNL     1      26.012   6.463 -15.547  1.00  0.00    -0.648 OA
ENDBRANCH  23  24
ENDBRANCH   8  23
ENDBRANCH   6   8
ENDBRANCH   1   6
BRANCH   1  27
HETATM   27  C12 UNL     1      21.777   6.119 -12.686  1.00  0.00     0.002 C
HETATM   28  C13 UNL     1      20.355   6.065 -12.325  1.00  0.00     0.006 C
HETATM   29  C14 UNL     1      19.906   4.803 -11.660  1.00  0.00     0.000 C
HETATM   30  C15 UNL     1      20.966   4.485 -10.601  1.00  0.00     0.000 C
HETATM   31  C16 UNL     1      22.155   3.983 -11.366  1.00  0.00     0.000 C
HETATM   32  C17 UNL     1      22.548   4.837 -12.509  1.00  0.00     0.006 C
ENDBRANCH   1  27
BRANCH   4  33
HETATM   33  N3  UNL     1      20.103   6.350 -17.167  1.00  0.00     0.095 N
HETATM   34  C21 UNL     1      19.649   5.423 -18.153  1.00  0.00     0.275 C
HETATM   35  C22 UNL     1      19.059   6.346 -19.246  1.00  0.00     0.068 C
HETATM   36  C23 UNL     1      18.671   7.542 -18.469  1.00  0.00     0.253 C
HETATM   37  C28 UNL     1      19.133   7.386 -17.042  1.00  0.00     0.308 C
BRANCH  36  38
HETATM   38  N4  UNL     1      17.353   8.049 -18.582  1.00  0.00     0.099 N
HETATM   39  C24 UNL     1      17.091   8.590 -19.903  1.00  0.00     0.299 C
HETATM   40  C25 UNL     1      15.742   8.207 -20.384  1.00  0.00     0.198 C
HETATM   41  O5  UNL     1      14.809   8.472 -19.399  1.00  0.00    -0.388 OA
HETATM   42  C26 UNL     1      15.008   7.737 -18.247  1.00  0.00     0.198 C
HETATM   43  C27 UNL     1      16.347   7.037 -18.252  1.00  0.00     0.299 C
ENDBRANCH  36  38
ENDBRANCH   4  33
TORSDOF 9
ENDMDL