MODEL 3
REMARK VINA RESULT: -8.459740093      3.076      4.901
REMARK  10 active torsions:
REMARK  status: ('A' for Active; 'I' for Inactive)
REMARK    1  A    between atoms: C2_2  and  N1_3
REMARK       I    between atoms: N1_3  and  C3_4
REMARK    2  A    between atoms: N1_3  and  C15_20
REMARK    3  A    between atoms: C3_4  and  C4_6
REMARK    4  A    between atoms: C4_6  and  C5_7
REMARK    5  A    between atoms: C5_7  and  C6_8
REMARK    6  A    between atoms: C6_8  and  N2_9
REMARK    7  A    between atoms: N4_23  and  C17_24
REMARK    8  A    between atoms: C17_24  and  C18_25
REMARK    9  A    between atoms: N6_35  and  C25_37
REMARK   10  A    between atoms: C25_37  and  C26_38
ROOT
HETATM    1  C15 UNL     1      25.356   3.069 -16.498  1.00  0.00     0.134 A
HETATM    2  C16 UNL     1      26.227   2.070 -16.138  1.00  0.00     0.164 A
HETATM    3  N3  UNL     1      27.481   2.047 -16.793  1.00  0.00    -0.079 NA
HETATM    4  N4  UNL     1      25.890   1.163 -15.211  1.00  0.00    -0.271 N
HETATM    5  N5  UNL     1      24.713   1.242 -14.651  1.00  0.00    -0.278 N
ATOM      6  H5  UNL     1      24.472   0.544 -13.947  1.00  0.00     0.189 HD
HETATM    7  C24 UNL     1      23.781   2.203 -14.949  1.00  0.00     0.173 A
HETATM    8  N6  UNL     1      22.666   2.170 -14.335  1.00  0.00    -0.347 N
ATOM      9  H6  UNL     1      22.531   1.426 -13.652  1.00  0.00     0.167 HD
HETATM   10  C32 UNL     1      24.116   3.138 -15.897  1.00  0.00     0.247 A
HETATM   11  O4  UNL     1      23.305   4.062 -16.229  1.00  0.00    -0.282 OA
ENDROOT
BRANCH   1  12
HETATM   12  N1  UNL     1      25.686   4.053 -17.466  1.00  0.00    -0.312 N
HETATM   13  C3  UNL     1      26.178   5.308 -16.977  1.00  0.00     0.224 C
HETATM   14  O1  UNL     1      26.308   5.537 -15.744  1.00  0.00    -0.273 OA
BRANCH  12  15
HETATM   15  C2  UNL     1      25.535   3.828 -18.868  1.00  0.00     0.128 C
HETATM   16  C1  UNL     1      24.162   4.096 -19.406  1.00  0.00     0.027 C
ENDBRANCH  12  15
BRANCH  13  17
HETATM   17  C4  UNL     1      26.565   6.414 -17.913  1.00  0.00     0.105 C
BRANCH  17  18
HETATM   18  C5  UNL     1      25.401   7.379 -17.996  1.00  0.00     0.029 C
BRANCH  18  19
HETATM   19  C6  UNL     1      25.708   8.658 -17.258  1.00  0.00     0.136 C
BRANCH  19  20
HETATM   20  N2  UNL     1      24.976   8.651 -15.980  1.00  0.00    -0.280 N
HETATM   21  C7  UNL     1      23.595   8.840 -15.734  1.00  0.00     0.261 A
HETATM   22  O2  UNL     1      22.730   9.056 -16.604  1.00  0.00    -0.267 OA
HETATM   23  C8  UNL     1      23.344   8.740 -14.287  1.00  0.00     0.048 A
HETATM   24  C9  UNL     1      22.214   8.837 -13.494  1.00  0.00     0.018 A
HETATM   25  C13 UNL     1      24.556   8.494 -13.665  1.00  0.00     0.048 A
HETATM   26  C10 UNL     1      22.238   8.701 -12.118  1.00  0.00     0.001 A
HETATM   27  C11 UNL     1      23.461   8.455 -11.519  1.00  0.00     0.001 A
HETATM   28  C12 UNL     1      24.608   8.352 -12.272  1.00  0.00     0.018 A
HETATM   29  C14 UNL     1      25.578   8.436 -14.703  1.00  0.00     0.261 A
HETATM   30  O3  UNL     1      26.805   8.227 -14.479  1.00  0.00    -0.267 OA
ENDBRANCH  19  20
ENDBRANCH  18  19
ENDBRANCH  17  18
ENDBRANCH  13  17
ENDBRANCH   1  12
BRANCH   4  31
HETATM   31  C17 UNL     1      26.782   0.124 -14.820  1.00  0.00     0.189 C
BRANCH  31  32
HETATM   32  C18 UNL     1      27.149   0.118 -13.380  1.00  0.00    -0.038 A
HETATM   33  C19 UNL     1      28.025   1.008 -12.801  1.00  0.00     0.012 A
HETATM   34  C20 UNL     1      28.348   0.972 -11.439  1.00  0.00     0.043 A
HETATM   35  C21 UNL     1      27.786   0.022 -10.618  1.00  0.00     0.116 A
HETATM   36  F1  UNL     1      28.081  -0.032  -9.302  1.00  0.00    -0.206 F
HETATM   37  C22 UNL     1      26.907  -0.873 -11.184  1.00  0.00     0.043 A
HETATM   38  C23 UNL     1      26.589  -0.840 -12.520  1.00  0.00     0.012 A
ENDBRANCH  31  32
ENDBRANCH   4  31
BRANCH   8  39
HETATM   39  C25 UNL     1      21.603   3.076 -14.520  1.00  0.00     0.101 C
BRANCH  39  40
HETATM   40  C26 UNL     1      21.462   3.961 -13.297  1.00  0.00    -0.021 A
HETATM   41  C27 UNL     1      20.428   4.837 -13.225  1.00  0.00     0.016 A
HETATM   42  C28 UNL     1      20.292   5.646 -12.121  1.00  0.00     0.043 A
HETATM   43  C29 UNL     1      21.190   5.582 -11.084  1.00  0.00     0.116 A
HETATM   44  F2  UNL     1      21.066   6.382  -9.980  1.00  0.00    -0.206 F
HETATM   45  C30 UNL     1      22.245   4.689 -11.157  1.00  0.00     0.043 A
HETATM   46  C31 UNL     1      22.370   3.881 -12.276  1.00  0.00     0.016 A
ENDBRANCH  39  40
ENDBRANCH   8  39
TORSDOF 10
ENDMDL