MODEL 1
REMARK VINA RESULT: -7.807916244      0.000      0.000
REMARK  11 active torsions:
REMARK  status: ('A' for Active; 'I' for Inactive)
REMARK    1  A    between atoms: C2_2  and  C3_3
REMARK    2  A    between atoms: C9_9  and  C10_10
REMARK    3  A    between atoms: C10_10  and  C11_11
REMARK    4  A    between atoms: C11_11  and  C12_12
REMARK       I    between atoms: C12_12  and  N1_14
REMARK    5  A    between atoms: C13_16  and  C15_18
REMARK    6  A    between atoms: C23_31  and  C24_32
REMARK    7  A    between atoms: C24_32  and  O7_33
REMARK    8  A    between atoms: O7_33  and  C25_34
REMARK       I    between atoms: C25_34  and  N2_36
REMARK    9  A    between atoms: N2_36  and  C26_38
REMARK   10  A    between atoms: C26_38  and  C28_41
REMARK   11  A    between atoms: C28_41  and  C29_43
ROOT
HETATM    1  C26 UNL     1      22.051   5.428 -13.052  1.00  0.00     0.269 C
HETATM    2  C27 UNL     1      22.486   4.734 -14.289  1.00  0.00     0.092 C
HETATM    3  N3  UNL     1      22.808   4.185 -15.255  1.00  0.00    -0.195 NA
ENDROOT
BRANCH   1   4
HETATM    4  N2  UNL     1      23.003   6.524 -12.885  1.00  0.00    -0.313 N
HETATM    5  C25 UNL     1      22.492   7.855 -12.910  1.00  0.00     0.361 C
HETATM    6  O8  UNL     1      21.260   8.093 -13.074  1.00  0.00    -0.238 OA
ATOM      7  H2  UNL     1      23.999   6.343 -12.756  1.00  0.00     0.166 HD
BRANCH   5   8
HETATM    8  O7  UNL     1      23.306   8.964 -12.758  1.00  0.00    -0.304 OA
BRANCH   8   9
HETATM    9  C24 UNL     1      24.478   9.182 -13.528  1.00  0.00     0.187 C
BRANCH   9  10
HETATM   10  C23 UNL     1      24.013   9.181 -14.999  1.00  0.00     0.045 C
HETATM   11  C3  UNL     1      24.944   8.506 -15.915  1.00  0.00     0.029 C
HETATM   12  C4  UNL     1      24.644   7.992 -17.195  1.00  0.00     0.027 C
HETATM   13  C22 UNL     1      25.754   9.791 -15.835  1.00  0.00     0.147 C
HETATM   14  C5  UNL     1      23.460   8.076 -18.057  1.00  0.00    -0.036 C
HETATM   15  C6  UNL     1      22.401   7.157 -17.346  1.00  0.00     0.015 C
HETATM   16  C7  UNL     1      23.828   7.158 -19.225  1.00  0.00     0.015 C
HETATM   17  C8  UNL     1      22.722   9.275 -18.382  1.00  0.00     0.062 C
HETATM   18  C9  UNL     1      22.982  10.242 -19.455  1.00  0.00    -0.008 C
HETATM   19  C19 UNL     1      22.686  10.102 -17.094  1.00  0.00     0.168 A
HETATM   20  C16 UNL     1      24.358  10.767 -19.389  1.00  0.00     0.158 C
HETATM   21  O4  UNL     1      25.041  10.860 -20.334  1.00  0.00    -0.293 OA
HETATM   22  C17 UNL     1      24.800  11.164 -18.033  1.00  0.00     0.125 C
HETATM   23  C18 UNL     1      23.872  10.767 -16.940  1.00  0.00     0.110 A
HETATM   24  O5  UNL     1      22.689  11.483 -17.094  1.00  0.00    -0.367 OA
HETATM   25  C20 UNL     1      24.459  10.477 -15.611  1.00  0.00     0.058 C
HETATM   26  C21 UNL     1      24.476  11.678 -14.728  1.00  0.00     0.027 C
HETATM   27  O6  UNL     1      26.896  10.171 -15.904  1.00  0.00    -0.296 OA
BRANCH  11  28
HETATM   28  C2  UNL     1      25.824   7.534 -15.074  1.00  0.00     0.013 C
HETATM   29  C1  UNL     1      26.600   6.583 -15.897  1.00  0.00     0.006 C
ENDBRANCH  11  28
BRANCH  18  30
HETATM   30  C10 UNL     1      22.321  10.192 -20.756  1.00  0.00    -0.006 C
BRANCH  30  31
HETATM   31  C11 UNL     1      20.908  10.564 -20.966  1.00  0.00     0.131 C
BRANCH  31  32
HETATM   32  C12 UNL     1      19.987   9.383 -20.761  1.00  0.00     0.225 C
HETATM   33  O1  UNL     1      19.825   8.622 -21.722  1.00  0.00    -0.273 OA
HETATM   34  N1  UNL     1      19.362   9.187 -19.528  1.00  0.00    -0.325 N
HETATM   35  C13 UNL     1      19.116   8.063 -18.955  1.00  0.00     0.085 C
ATOM     36  H1  UNL     1      19.068  10.027 -19.028  1.00  0.00     0.169 HD
HETATM   37  C14 UNL     1      19.518   6.804 -19.629  1.00  0.00     0.076 C
BRANCH  35  38
HETATM   38  C15 UNL     1      18.456   8.000 -17.675  1.00  0.00     0.222 C
HETATM   39  O2  UNL     1      17.248   7.614 -17.582  1.00  0.00    -0.643 OA
HETATM   40  O3  UNL     1      19.065   8.341 -16.476  1.00  0.00    -0.643 OA
ENDBRANCH  35  38
ENDBRANCH  31  32
ENDBRANCH  30  31
ENDBRANCH  18  30
ENDBRANCH   9  10
ENDBRANCH   8   9
ENDBRANCH   5   8
ENDBRANCH   1   4
BRANCH   1  41
HETATM   41  C28 UNL     1      22.167   4.448 -11.943  1.00  0.00     0.227 C
HETATM   42  O9  UNL     1      23.032   3.570 -11.930  1.00  0.00    -0.289 OA
BRANCH  41  43
HETATM   43  C29 UNL     1      21.227   4.503 -10.800  1.00  0.00     0.425 C
HETATM   44  F1  UNL     1      21.549   5.640 -10.068  1.00  0.00    -0.206 F
HETATM   45  F2  UNL     1      19.920   4.685 -11.257  1.00  0.00    -0.206 F
ENDBRANCH  41  43
ENDBRANCH   1  41
TORSDOF 11
ENDMDL