MODEL 4
REMARK VINA RESULT: -8.703148852      1.639      2.207
REMARK  11 active torsions:
REMARK  status: ('A' for Active; 'I' for Inactive)
REMARK    1  A    between atoms: C1_2  and  C2_3
REMARK       I    between atoms: C1_2  and  N1_16
REMARK    2  A    between atoms: C2_3  and  C3_4
REMARK    3  A    between atoms: C3_4  and  S1_5
REMARK    4  A    between atoms: S1_5  and  C4_8
REMARK    5  A    between atoms: C4_8  and  C5_9
REMARK    6  A    between atoms: N1_16  and  C11_18
REMARK    7  A    between atoms: C14_21  and  C15_22
REMARK    8  A    between atoms: C15_22  and  C16_24
REMARK    9  A    between atoms: C19_29  and  N3_30
REMARK   10  A    between atoms: N3_30  and  S2_32
REMARK   11  A    between atoms: S2_32  and  C20_35
ROOT
HETATM    1  C11 UNL     1      23.730   3.344 -15.013  1.00  0.00     0.107 A
HETATM    2  C12 UNL     1      23.518   2.554 -13.914  1.00  0.00     0.050 A
HETATM    3  C13 UNL     1      24.514   1.752 -13.420  1.00  0.00     0.020 A
HETATM    4  C14 UNL     1      25.757   1.729 -14.031  1.00  0.00     0.030 A
HETATM    5  C26 UNL     1      25.956   2.534 -15.147  1.00  0.00     0.105 A
HETATM    6  N5  UNL     1      24.977   3.300 -15.602  1.00  0.00    -0.351 N
ATOM      7  H5  UNL     1      25.151   3.881 -16.421  1.00  0.00     0.166 HD
ENDROOT
BRANCH   4   8
HETATM    8  C15 UNL     1      26.858   0.931 -13.567  1.00  0.00     0.198 C
HETATM    9  O4  UNL     1      28.015   1.199 -14.026  1.00  0.00    -0.286 OA
BRANCH   8  10
HETATM   10  C16 UNL     1      26.709  -0.155 -12.608  1.00  0.00     0.071 A
HETATM   11  C17 UNL     1      25.905  -1.250 -12.975  1.00  0.00     0.106 A
HETATM   12  N2  UNL     1      25.678  -2.279 -12.139  1.00  0.00    -0.372 N
HETATM   13  C18 UNL     1      26.228  -2.297 -10.890  1.00  0.00     0.121 A
ATOM     14  H2  UNL     1      25.089  -3.054 -12.443  1.00  0.00     0.164 HD
HETATM   15  C19 UNL     1      27.034  -1.231 -10.484  1.00  0.00     0.097 A
HETATM   16  C25 UNL     1      27.254  -0.188 -11.352  1.00  0.00     0.160 A
HETATM   17  F2  UNL     1      28.039   0.865 -10.970  1.00  0.00    -0.203 F
BRANCH  15  18
HETATM   18  N3  UNL     1      27.626  -1.226  -9.210  1.00  0.00    -0.276 N
ATOM     19  H3  UNL     1      27.127  -0.767  -8.447  1.00  0.00     0.179 HD
BRANCH  18  20
HETATM   20  S2  UNL     1      29.145  -1.950  -8.871  1.00  0.00     0.263 S
HETATM   21  O5  UNL     1      29.061  -2.679  -7.545  1.00  0.00    -0.200 OA
HETATM   22  O6  UNL     1      29.502  -2.985  -9.909  1.00  0.00    -0.200 OA
BRANCH  20  23
HETATM   23  C20 UNL     1      30.458  -0.820  -8.798  1.00  0.00     0.082 A
HETATM   24  C21 UNL     1      30.993  -0.247  -9.923  1.00  0.00     0.042 A
HETATM   25  C22 UNL     1      32.041   0.675  -9.803  1.00  0.00     0.089 A
HETATM   26  N4  UNL     1      32.539   1.016  -8.606  1.00  0.00    -0.375 N
HETATM   27  C23 UNL     1      32.027   0.465  -7.495  1.00  0.00     0.089 A
ATOM     28  H4  UNL     1      33.302   1.688  -8.541  1.00  0.00     0.164 HD
HETATM   29  C24 UNL     1      30.998  -0.444  -7.584  1.00  0.00     0.042 A
ENDBRANCH  20  23
ENDBRANCH  18  20
ENDBRANCH  15  18
ENDBRANCH   8  10
ENDBRANCH   4   8
BRANCH   1  30
HETATM   30  N1  UNL     1      22.877   4.132 -15.509  1.00  0.00    -0.313 N
HETATM   31  C1  UNL     1      22.470   5.380 -15.140  1.00  0.00     0.224 C
HETATM   32  O1  UNL     1      21.224   5.653 -14.911  1.00  0.00    -0.273 OA
ATOM     33  H1  UNL     1      22.407   3.769 -16.339  1.00  0.00     0.170 HD
BRANCH  31  34
HETATM   34  C2  UNL     1      23.416   6.506 -14.975  1.00  0.00     0.118 C
BRANCH  34  35
HETATM   35  C3  UNL     1      22.558   7.792 -14.971  1.00  0.00     0.149 C
BRANCH  35  36
HETATM   36  S1  UNL     1      23.226   8.941 -13.791  1.00  0.00     0.148 S
HETATM   37  O2  UNL     1      24.584   8.382 -13.397  1.00  0.00    -0.228 OA
HETATM   38  O3  UNL     1      23.388  10.299 -14.359  1.00  0.00    -0.228 OA
BRANCH  36  39
HETATM   39  C4  UNL     1      22.232   8.985 -12.328  1.00  0.00     0.178 C
BRANCH  39  40
HETATM   40  C5  UNL     1      21.949   7.611 -11.801  1.00  0.00    -0.044 A
HETATM   41  C6  UNL     1      20.641   7.126 -11.852  1.00  0.00     0.011 A
HETATM   42  C7  UNL     1      20.351   5.870 -11.366  1.00  0.00     0.043 A
HETATM   43  C8  UNL     1      21.334   5.064 -10.821  1.00  0.00     0.116 A
HETATM   44  F1  UNL     1      21.066   3.812 -10.328  1.00  0.00    -0.206 F
HETATM   45  C9  UNL     1      22.607   5.568 -10.787  1.00  0.00     0.043 A
HETATM   46  C10 UNL     1      22.920   6.820 -11.266  1.00  0.00     0.011 A
ENDBRANCH  39  40
ENDBRANCH  36  39
ENDBRANCH  35  36
ENDBRANCH  34  35
ENDBRANCH  31  34
ENDBRANCH   1  30
TORSDOF 11
ENDMDL