MODEL 2
REMARK VINA RESULT: -5.886846486      0.125      1.050
REMARK  7 active torsions:
REMARK  status: ('A' for Active; 'I' for Inactive)
REMARK    1  A    between atoms: C3_3  and  N1_4
REMARK    2  A    between atoms: N1_4  and  C4_7
REMARK    3  A    between atoms: C4_7  and  C5_8
REMARK    4  A    between atoms: C8_11  and  C9_12
REMARK    5  A    between atoms: C9_12  and  N2_13
REMARK    6  A    between atoms: C12_16  and  C13_17
REMARK    7  A    between atoms: N3_18  and  O1_20
ROOT
HETATM    1  C1  UNL     1      18.011 -23.348 -20.650  1.00  0.00     0.013 C
HETATM    2  C2  UNL     1      18.842 -22.954 -19.871  1.00  0.00    -0.090 C
HETATM    3  C3  UNL     1      19.841 -22.496 -18.915  1.00  0.00     0.325 C
ENDROOT
BRANCH   3   4
HETATM    4  N1  UNL     1      21.139 -23.046 -19.259  1.00  0.00    -0.060 N
ATOM      5  H12 UNL     1      21.182 -23.315 -20.242  1.00  0.00     0.278 HD
ATOM      6  H11 UNL     1      21.861 -22.325 -19.261  1.00  0.00     0.278 HD
BRANCH   4   7
HETATM    7  C4  UNL     1      21.496 -24.150 -18.392  1.00  0.00     0.289 C
BRANCH   7   8
HETATM    8  C5  UNL     1      21.557 -25.413 -19.172  1.00  0.00     0.035 A
HETATM    9  C6  UNL     1      22.121 -26.607 -18.786  1.00  0.00     0.028 A
HETATM   10  C7  UNL     1      21.970 -27.532 -19.802  1.00  0.00     0.028 A
HETATM   11  C8  UNL     1      21.299 -26.878 -20.823  1.00  0.00     0.028 A
HETATM   12  N4  UNL     1      21.077 -25.635 -20.406  1.00  0.00    -0.360 N
ATOM     13  H4  UNL     1      20.595 -24.928 -20.962  1.00  0.00     0.165 HD
BRANCH  11  14
HETATM   14  C9  UNL     1      20.890 -27.426 -22.143  1.00  0.00     0.184 C
BRANCH  14  15
HETATM   15  N2  UNL     1      19.534 -27.039 -22.510  1.00  0.00    -0.361 N
HETATM   16  C10 UNL     1      18.466 -27.494 -21.879  1.00  0.00     0.091 A
HETATM   17  C11 UNL     1      17.162 -27.130 -22.218  1.00  0.00     0.030 A
HETATM   18  C12 UNL     1      16.999 -26.258 -23.258  1.00  0.00    -0.016 A
HETATM   19  C14 UNL     1      18.143 -25.802 -23.896  1.00  0.00     0.030 A
HETATM   20  C15 UNL     1      19.408 -26.186 -23.530  1.00  0.00     0.091 A
BRANCH  18  21
HETATM   21  C13 UNL     1      15.704 -25.823 -23.681  1.00  0.00     0.125 C
HETATM   22  N3  UNL     1      15.244 -24.665 -23.586  1.00  0.00    -0.280 N
ATOM     23  H3  UNL     1      14.296 -24.612 -23.960  1.00  0.00     0.193 HD
BRANCH  22  24
HETATM   24  O1  UNL     1      15.646 -23.492 -23.134  1.00  0.00    -0.290 OA
ATOM     25  H1  UNL     1      15.254 -22.657 -22.907  1.00  0.00     0.244 HD
ENDBRANCH  22  24
ENDBRANCH  18  21
ENDBRANCH  14  15
ENDBRANCH  11  14
ENDBRANCH   7   8
ENDBRANCH   4   7
ENDBRANCH   3   4
TORSDOF 7
ENDMDL