MODEL 2
REMARK VINA RESULT: -6.287446769      2.180      4.256
REMARK  7 active torsions:
REMARK  status: ('A' for Active; 'I' for Inactive)
REMARK    1  A    between atoms: C2_2  and  C3_3
REMARK    2  A    between atoms: C3_3  and  C4_4
REMARK    3  A    between atoms: C4_4  and  C5_5
REMARK    4  A    between atoms: C5_5  and  N1_6
REMARK    5  A    between atoms: N3_15  and  C11_16
REMARK    6  A    between atoms: C11_16  and  C12_17
REMARK    7  A    between atoms: C15_23  and  N5_24
ROOT
HETATM    1  N1  UNL     1      20.049 -25.062 -20.975  1.00  0.00    -0.226 N
ATOM      2  H1  UNL     1      19.152 -25.389 -21.332  1.00  0.00     0.177 HD
HETATM    3  C6  UNL     1      20.013 -24.233 -20.021  1.00  0.00     0.675 C
HETATM    4  N2  UNL     1      21.257 -23.772 -19.513  1.00  0.00    -0.226 N
ATOM      5  H2  UNL     1      22.059 -24.402 -19.538  1.00  0.00     0.177 HD
HETATM    6  C7  UNL     1      21.436 -22.418 -18.951  1.00  0.00     0.138 C
HETATM    7  C8  UNL     1      20.740 -22.271 -17.651  1.00  0.00     0.022 C
HETATM    8  C9  UNL     1      19.509 -23.073 -17.454  1.00  0.00     0.022 C
HETATM    9  C10 UNL     1      18.443 -22.949 -18.475  1.00  0.00     0.147 C
HETATM   10  N3  UNL     1      18.670 -23.857 -19.571  1.00  0.00    -0.193 N
ENDROOT
BRANCH  10  11
HETATM   11  C11 UNL     1      17.618 -24.457 -20.291  1.00  0.00     0.126 C
BRANCH  11  12
HETATM   12  C12 UNL     1      16.732 -23.609 -21.069  1.00  0.00     0.057 A
HETATM   13  C13 UNL     1      15.424 -23.291 -20.638  1.00  0.00     0.088 A
HETATM   14  C14 UNL     1      14.775 -23.793 -19.375  1.00  0.00     0.080 C
HETATM   15  O1  UNL     1      14.920 -22.510 -21.520  1.00  0.00    -0.240 OA
HETATM   16  N4  UNL     1      15.729 -22.269 -22.482  1.00  0.00    -0.244 N
HETATM   17  C15 UNL     1      16.900 -22.943 -22.245  1.00  0.00     0.133 A
ATOM     18  H4  UNL     1      15.536 -21.675 -23.288  1.00  0.00     0.196 HD
BRANCH  17  19
HETATM   19  N5  UNL     1      17.869 -22.810 -23.067  1.00  0.00    -0.383 N
ATOM     20  H52 UNL     1      17.833 -23.306 -23.958  1.00  0.00     0.157 HD
ATOM     21  H51 UNL     1      18.728 -22.262 -23.074  1.00  0.00     0.157 HD
ENDBRANCH  17  19
ENDBRANCH  11  12
ENDBRANCH  10  11
BRANCH   1  22
HETATM   22  C5  UNL     1      21.206 -25.581 -21.593  1.00  0.00     0.138 C
BRANCH  22  23
HETATM   23  C4  UNL     1      20.820 -26.498 -22.744  1.00  0.00     0.024 C
BRANCH  23  24
HETATM   24  C3  UNL     1      19.428 -26.217 -23.244  1.00  0.00     0.028 C
BRANCH  24  25
HETATM   25  C2  UNL     1      19.472 -26.039 -24.709  1.00  0.00    -0.037 C
HETATM   26  C1  UNL     1      18.509 -25.429 -25.344  1.00  0.00     0.007 C
ENDBRANCH  24  25
ENDBRANCH  23  24
ENDBRANCH  22  23
ENDBRANCH   1  22
TORSDOF 7
ENDMDL