MODEL 1
REMARK VINA RESULT: -5.822536239      0.000      0.000
REMARK  6 active torsions:
REMARK  status: ('A' for Active; 'I' for Inactive)
REMARK    1  A    between atoms: N2_8  and  C6_10
REMARK    2  A    between atoms: C6_10  and  C7_11
REMARK    3  A    between atoms: C7_11  and  N3_12
REMARK    4  A    between atoms: N3_12  and  C8_15
REMARK    5  A    between atoms: C8_15  and  C9_16
REMARK    6  A    between atoms: C9_16  and  N4_17
ROOT
HETATM    1  N3  UNL     1      21.328 -24.905 -20.846  1.00  0.00    -0.069 N
ATOM      2  H31 UNL     1      20.489 -24.855 -21.424  1.00  0.00     0.277 HD
ATOM      3  H32 UNL     1      21.959 -24.340 -21.414  1.00  0.00     0.277 HD
ENDROOT
BRANCH   1   4
HETATM    4  C7  UNL     1      21.800 -26.251 -20.753  1.00  0.00     0.252 C
BRANCH   4   5
HETATM    5  C6  UNL     1      21.145 -27.031 -21.897  1.00  0.00     0.148 C
BRANCH   5   6
HETATM    6  N2  UNL     1      19.722 -27.073 -21.756  1.00  0.00    -0.375 N
HETATM    7  C5  UNL     1      18.937 -26.581 -22.651  1.00  0.00     0.101 A
HETATM    8  N1  UNL     1      19.388 -25.991 -23.785  1.00  0.00    -0.353 N
HETATM    9  C13 UNL     1      17.559 -26.627 -22.495  1.00  0.00     0.054 A
HETATM   10  C4  UNL     1      18.533 -25.476 -24.714  1.00  0.00     0.090 A
ATOM     11  H1  UNL     1      20.393 -25.931 -23.948  1.00  0.00     0.166 HD
HETATM   12  C3  UNL     1      17.172 -25.522 -24.558  1.00  0.00     0.024 A
HETATM   13  C2  UNL     1      16.680 -26.110 -23.423  1.00  0.00    -0.057 A
HETATM   14  C1  UNL     1      15.202 -26.173 -23.230  1.00  0.00     0.048 C
ATOM     15  H2  UNL     1      19.319 -27.504 -20.924  1.00  0.00     0.161 HD
ENDBRANCH   5   6
ENDBRANCH   4   5
ENDBRANCH   1   4
BRANCH   1  16
HETATM   16  C8  UNL     1      21.100 -24.281 -19.558  1.00  0.00     0.276 C
BRANCH  16  17
HETATM   17  C9  UNL     1      19.700 -23.826 -19.355  1.00  0.00     0.089 C
BRANCH  17  18
HETATM   18  N4  UNL     1      19.081 -23.362 -20.493  1.00  0.00    -0.361 N
HETATM   19  C10 UNL     1      17.936 -23.162 -20.998  1.00  0.00     0.091 A
HETATM   20  C11 UNL     1      16.653 -23.349 -20.561  1.00  0.00     0.056 A
HETATM   21  S1  UNL     1      17.633 -22.507 -22.598  1.00  0.00     0.003 SA
HETATM   22  C12 UNL     1      15.649 -23.013 -21.391  1.00  0.00     0.099 A
HETATM   23  N5  UNL     1      15.964 -22.521 -22.586  1.00  0.00    -0.335 N
ATOM     24  H5  UNL     1      15.330 -22.221 -23.326  1.00  0.00     0.173 HD
ATOM     25  H4  UNL     1      19.794 -23.081 -21.165  1.00  0.00     0.165 HD
ENDBRANCH  17  18
ENDBRANCH  16  17
ENDBRANCH   1  16
TORSDOF 6
ENDMDL