MODEL 2
REMARK VINA RESULT: -5.978929048      1.154      1.290
REMARK  7 active torsions:
REMARK  status: ('A' for Active; 'I' for Inactive)
REMARK    1  A    between atoms: C2_2  and  C3_3
REMARK    2  A    between atoms: C3_3  and  C4_4
REMARK    3  A    between atoms: C4_4  and  N1_5
REMARK    4  A    between atoms: N1_5  and  C5_7
REMARK    5  A    between atoms: C6_10  and  C7_11
REMARK    6  A    between atoms: N5_20  and  C12_22
REMARK    7  A    between atoms: C12_22  and  C13_23
ROOT
HETATM    1  C13 UNL     1      21.907 -27.287 -21.682  1.00  0.00     0.143 C
HETATM    2  C14 UNL     1      22.234 -27.405 -20.282  1.00  0.00     0.060 C
HETATM    3  N6  UNL     1      22.514 -27.511 -19.157  1.00  0.00    -0.197 NA
ENDROOT
BRANCH   1   4
HETATM    4  C12 UNL     1      21.424 -25.892 -22.056  1.00  0.00     0.135 C
BRANCH   4   5
HETATM    5  N5  UNL     1      21.034 -25.221 -20.858  1.00  0.00    -0.375 N
HETATM    6  C11 UNL     1      19.902 -24.561 -20.836  1.00  0.00     0.119 A
HETATM    7  C10 UNL     1      19.474 -23.898 -19.718  1.00  0.00     0.082 A
HETATM    8  N7  UNL     1      19.119 -24.517 -21.927  1.00  0.00    -0.177 N
HETATM    9  C6  UNL     1      18.267 -23.205 -19.726  1.00  0.00     0.096 A
HETATM   10  N2  UNL     1      17.506 -23.189 -20.854  1.00  0.00    -0.188 N
HETATM   11  C5  UNL     1      17.953 -23.849 -21.932  1.00  0.00     0.680 A
ATOM     12  H2  UNL     1      16.618 -22.687 -20.879  1.00  0.00     0.184 HD
ATOM     13  H7  UNL     1      19.417 -25.004 -22.773  1.00  0.00     0.185 HD
ATOM     14  H5  UNL     1      21.629 -25.255 -20.030  1.00  0.00     0.161 HD
BRANCH   9  15
HETATM   15  C7  UNL     1      17.818 -22.504 -18.540  1.00  0.00     0.133 A
HETATM   16  N3  UNL     1      18.398 -22.521 -17.353  1.00  0.00    -0.349 N
HETATM   17  C8  UNL     1      17.693 -21.743 -16.479  1.00  0.00     0.107 A
ATOM     18  H3  UNL     1      19.246 -23.039 -17.123  1.00  0.00     0.167 HD
HETATM   19  C9  UNL     1      16.641 -21.244 -17.202  1.00  0.00     0.107 A
HETATM   20  N4  UNL     1      16.740 -21.724 -18.455  1.00  0.00    -0.349 N
ATOM     21  H4  UNL     1      16.094 -21.522 -19.218  1.00  0.00     0.167 HD
ENDBRANCH   9  15
BRANCH  11  22
HETATM   22  N1  UNL     1      17.216 -23.816 -22.981  1.00  0.00    -0.226 N
ATOM     23  H1  UNL     1      17.497 -23.263 -23.791  1.00  0.00     0.177 HD
BRANCH  22  24
HETATM   24  C4  UNL     1      15.992 -24.566 -23.000  1.00  0.00     0.138 C
BRANCH  24  25
HETATM   25  C3  UNL     1      16.239 -25.824 -23.810  1.00  0.00     0.020 C
BRANCH  25  26
HETATM   26  C2  UNL     1      15.766 -26.990 -22.945  1.00  0.00    -0.003 C
HETATM   27  C1  UNL     1      16.943 -27.495 -22.153  1.00  0.00     0.005 C
ENDBRANCH  25  26
ENDBRANCH  24  25
ENDBRANCH  22  24
ENDBRANCH  11  22
ENDBRANCH   4   5
ENDBRANCH   1   4
TORSDOF 7
ENDMDL