MODEL 3
REMARK VINA RESULT: -6.057190420      0.908      1.469
REMARK  8 active torsions:
REMARK  status: ('A' for Active; 'I' for Inactive)
REMARK    1  A    between atoms: C2_2  and  C3_3
REMARK    2  A    between atoms: C3_3  and  N1_4
REMARK    3  A    between atoms: N1_4  and  C4_7
REMARK    4  A    between atoms: C4_7  and  C5_8
REMARK    5  A    between atoms: C5_8  and  N2_9
REMARK    6  A    between atoms: N2_9  and  C6_11
REMARK    7  A    between atoms: C9_18  and  N5_19
REMARK    8  A    between atoms: N5_19  and  C10_21
ROOT
HETATM    1  C6  UNL     1      20.498 -24.033 -19.973  1.00  0.00     0.694 A
HETATM    2  N3  UNL     1      21.235 -24.944 -19.327  1.00  0.00    -0.180 N
ATOM      3  H3  UNL     1      21.618 -24.718 -18.410  1.00  0.00     0.185 HD
HETATM    4  C7  UNL     1      21.482 -26.157 -19.865  1.00  0.00     0.109 A
HETATM    5  C8  UNL     1      22.313 -27.117 -19.083  1.00  0.00     0.090 C
HETATM    6  N4  UNL     1      20.993 -26.480 -21.063  1.00  0.00    -0.180 N
ATOM      7  H4  UNL     1      21.181 -27.397 -21.468  1.00  0.00     0.185 HD
HETATM    8  C9  UNL     1      20.247 -25.578 -21.731  1.00  0.00     0.698 A
HETATM    9  N6  UNL     1      20.012 -24.372 -21.177  1.00  0.00    -0.022 N
ATOM     10  H6  UNL     1      19.447 -23.696 -21.689  1.00  0.00     0.203 HD
ENDROOT
BRANCH   1  11
HETATM   11  N2  UNL     1      20.288 -22.893 -19.425  1.00  0.00    -0.224 N
ATOM     12  H2  UNL     1      20.983 -22.512 -18.782  1.00  0.00     0.177 HD
BRANCH  11  13
HETATM   13  C5  UNL     1      19.086 -22.140 -19.702  1.00  0.00     0.165 C
BRANCH  13  14
HETATM   14  C4  UNL     1      18.041 -22.580 -18.688  1.00  0.00     0.252 C
BRANCH  14  15
HETATM   15  N1  UNL     1      16.704 -22.586 -19.242  1.00  0.00    -0.071 N
ATOM     16  H12 UNL     1      16.504 -21.746 -19.785  1.00  0.00     0.277 HD
ATOM     17  H11 UNL     1      15.987 -22.468 -18.527  1.00  0.00     0.277 HD
BRANCH  15  18
HETATM   18  C3  UNL     1      16.520 -23.800 -20.014  1.00  0.00     0.259 C
BRANCH  18  19
HETATM   19  C2  UNL     1      15.732 -23.521 -21.243  1.00  0.00    -0.010 C
HETATM   20  C1  UNL     1      16.230 -22.811 -22.224  1.00  0.00     0.008 C
ENDBRANCH  18  19
ENDBRANCH  15  18
ENDBRANCH  14  15
ENDBRANCH  13  14
ENDBRANCH  11  13
ENDBRANCH   1  11
BRANCH   8  21
HETATM   21  N5  UNL     1      19.747 -25.825 -22.889  1.00  0.00    -0.191 N
ATOM     22  H5  UNL     1      20.337 -25.810 -23.721  1.00  0.00     0.184 HD
BRANCH  21  23
HETATM   23  C10 UNL     1      18.366 -26.118 -22.995  1.00  0.00     0.049 A
HETATM   24  C11 UNL     1      17.638 -25.610 -24.075  1.00  0.00     0.030 A
HETATM   25  C12 UNL     1      16.290 -25.869 -24.214  1.00  0.00     0.002 A
HETATM   26  C13 UNL     1      15.610 -26.640 -23.296  1.00  0.00     0.000 A
HETATM   27  C14 UNL     1      16.341 -27.147 -22.218  1.00  0.00     0.002 A
HETATM   28  C15 UNL     1      17.696 -26.888 -22.073  1.00  0.00     0.030 A
ENDBRANCH  21  23
ENDBRANCH   8  21
TORSDOF 8
ENDMDL