MODEL 5
REMARK VINA RESULT: -5.623367106      1.503      1.778
REMARK  7 active torsions:
REMARK  status: ('A' for Active; 'I' for Inactive)
REMARK    1  A    between atoms: C3_3  and  C4_4
REMARK    2  A    between atoms: C4_4  and  C5_5
REMARK    3  A    between atoms: C5_5  and  C6_6
REMARK    4  A    between atoms: C6_6  and  C7_7
REMARK    5  A    between atoms: C7_7  and  N1_8
REMARK    6  A    between atoms: N2_11  and  C10_12
REMARK    7  A    between atoms: C13_18  and  N4_19
ROOT
HETATM    1  C1  UNL     1      18.505 -29.535 -21.561  1.00  0.00     0.012 C
HETATM    2  C2  UNL     1      18.610 -29.137 -20.427  1.00  0.00    -0.117 C
HETATM    3  C3  UNL     1      18.713 -28.650 -19.025  1.00  0.00     0.093 C
ENDROOT
BRANCH   3   4
HETATM    4  C4  UNL     1      19.938 -29.308 -18.454  1.00  0.00     0.012 C
BRANCH   4   5
HETATM    5  C5  UNL     1      20.848 -28.298 -17.845  1.00  0.00     0.002 C
BRANCH   5   6
HETATM    6  C6  UNL     1      21.783 -27.732 -18.871  1.00  0.00     0.030 C
BRANCH   6   7
HETATM    7  C7  UNL     1      21.903 -26.257 -18.727  1.00  0.00     0.272 C
BRANCH   7   8
HETATM    8  N1  UNL     1      21.569 -25.516 -19.939  1.00  0.00     0.091 N
HETATM    9  C8  UNL     1      21.109 -26.495 -20.908  1.00  0.00     0.292 C
HETATM   10  C9  UNL     1      20.159 -25.922 -21.924  1.00  0.00     0.154 C
HETATM   11  N2  UNL     1      19.001 -25.373 -21.257  1.00  0.00    -0.363 N
HETATM   12  C14 UNL     1      19.169 -25.148 -19.822  1.00  0.00     0.154 C
HETATM   13  C15 UNL     1      20.568 -24.519 -19.714  1.00  0.00     0.292 C
BRANCH  11  14
HETATM   14  C10 UNL     1      17.828 -25.073 -21.954  1.00  0.00     0.124 A
HETATM   15  C11 UNL     1      17.150 -26.035 -22.669  1.00  0.00     0.123 A
HETATM   16  C12 UNL     1      15.971 -25.720 -23.348  1.00  0.00     0.263 A
HETATM   17  O1  UNL     1      15.348 -26.596 -24.003  1.00  0.00    -0.268 OA
HETATM   18  N3  UNL     1      15.497 -24.464 -23.301  1.00  0.00    -0.156 N
HETATM   19  C13 UNL     1      16.151 -23.515 -22.604  1.00  0.00     0.680 A
ATOM     20  H3  UNL     1      14.637 -24.228 -23.796  1.00  0.00     0.187 HD
HETATM   21  N5  UNL     1      17.279 -23.823 -21.955  1.00  0.00    -0.177 N
ATOM     22  H5  UNL     1      17.755 -23.086 -21.434  1.00  0.00     0.185 HD
BRANCH  19  23
HETATM   23  N4  UNL     1      15.636 -22.326 -22.597  1.00  0.00    -0.234 N
ATOM     24  H42 UNL     1      16.199 -21.477 -22.639  1.00  0.00     0.174 HD
ATOM     25  H41 UNL     1      14.619 -22.260 -22.543  1.00  0.00     0.174 HD
ENDBRANCH  19  23
ENDBRANCH  11  14
ENDBRANCH   7   8
ENDBRANCH   6   7
ENDBRANCH   5   6
ENDBRANCH   4   5
ENDBRANCH   3   4
TORSDOF 7
ENDMDL