MODEL 5
REMARK VINA RESULT: -5.762800860      1.724      4.551
REMARK  7 active torsions:
REMARK  status: ('A' for Active; 'I' for Inactive)
REMARK    1  A    between atoms: C4_8  and  C5_9
REMARK    2  A    between atoms: C5_9  and  C6_10
REMARK    3  A    between atoms: C6_10  and  S1_11
REMARK    4  A    between atoms: S1_11  and  C7_12
REMARK    5  A    between atoms: C7_12  and  C8_13
REMARK    6  A    between atoms: C8_13  and  N3_14
REMARK    7  A    between atoms: N3_14  and  C9_16
ROOT
HETATM    1  C7  UNL     1      17.736 -22.500 -18.796  1.00  0.00     0.093 C
ENDROOT
BRANCH   1   2
HETATM    2  S1  UNL     1      18.910 -23.815 -18.920  1.00  0.00    -0.167 SA
BRANCH   2   3
HETATM    3  C6  UNL     1      19.446 -24.213 -20.563  1.00  0.00     0.080 C
BRANCH   3   4
HETATM    4  C5  UNL     1      20.145 -25.529 -20.714  1.00  0.00     0.069 C
BRANCH   4   5
HETATM    5  C4  UNL     1      20.107 -25.851 -22.199  1.00  0.00     0.033 A
HETATM    6  C2  UNL     1      21.078 -26.481 -22.924  1.00  0.00     0.029 A
HETATM    7  C1  UNL     1      22.368 -26.970 -22.362  1.00  0.00     0.070 C
HETATM    8  N1  UNL     1      20.695 -26.590 -24.206  1.00  0.00    -0.354 N
HETATM    9  C3  UNL     1      19.476 -26.023 -24.270  1.00  0.00     0.180 A
ATOM     10  H1  UNL     1      21.218 -27.014 -24.971  1.00  0.00     0.166 HD
HETATM   11  N2  UNL     1      19.108 -25.567 -23.047  1.00  0.00    -0.354 N
ATOM     12  H2  UNL     1      18.233 -25.096 -22.816  1.00  0.00     0.166 HD
ENDBRANCH   4   5
ENDBRANCH   3   4
ENDBRANCH   2   3
ENDBRANCH   1   2
BRANCH   1  13
HETATM   13  C8  UNL     1      16.295 -22.845 -19.018  1.00  0.00     0.131 C
BRANCH  13  14
HETATM   14  N3  UNL     1      15.909 -22.558 -20.411  1.00  0.00    -0.374 N
ATOM     15  H3  UNL     1      15.725 -21.602 -20.714  1.00  0.00     0.161 HD
BRANCH  14  16
HETATM   16  C9  UNL     1      15.809 -23.540 -21.242  1.00  0.00     0.115 A
HETATM   17  C10 UNL     1      15.757 -24.868 -20.883  1.00  0.00     0.055 A
HETATM   18  C11 UNL     1      15.640 -25.896 -21.818  1.00  0.00     0.079 A
HETATM   19  C12 UNL     1      15.579 -25.524 -23.142  1.00  0.00     0.259 A
HETATM   20  O1  UNL     1      15.471 -26.391 -24.073  1.00  0.00    -0.267 OA
HETATM   21  N4  UNL     1      15.632 -24.220 -23.459  1.00  0.00    -0.265 N
HETATM   22  N5  UNL     1      15.741 -23.268 -22.583  1.00  0.00    -0.283 N
ATOM     23  H4  UNL     1      15.585 -23.962 -24.445  1.00  0.00     0.190 HD
ATOM     24  H5  UNL     1      15.777 -22.299 -22.899  1.00  0.00     0.188 HD
ENDBRANCH  14  16
ENDBRANCH  13  14
ENDBRANCH   1  13
TORSDOF 7
ENDMDL