MODEL 5
REMARK VINA RESULT: -6.351199989      2.811      6.449
REMARK  8 active torsions:
REMARK  status: ('A' for Active; 'I' for Inactive)
REMARK    1  A    between atoms: O1_2  and  C2_3
REMARK    2  A    between atoms: C2_3  and  C3_4
REMARK    3  A    between atoms: C3_4  and  N1_5
REMARK    4  A    between atoms: N1_5  and  C4_7
REMARK    5  A    between atoms: C5_12  and  N4_13
REMARK    6  A    between atoms: N4_13  and  C6_15
REMARK    7  A    between atoms: C9_18  and  C10_19
REMARK    8  A    between atoms: C10_19  and  C11_20
ROOT
HETATM    1  C11 UNL     1      22.236 -27.051 -21.981  1.00  0.00     0.128 C
HETATM    2  C12 UNL     1      22.241 -26.776 -20.546  1.00  0.00     0.059 C
HETATM    3  N5  UNL     1      22.253 -26.538 -19.401  1.00  0.00    -0.197 NA
ENDROOT
BRANCH   1   4
HETATM    4  C10 UNL     1      21.190 -28.104 -22.291  1.00  0.00     0.052 C
BRANCH   4   5
HETATM    5  C9  UNL     1      19.837 -27.507 -22.438  1.00  0.00    -0.057 A
HETATM    6  C8  UNL     1      18.729 -28.045 -21.816  1.00  0.00     0.009 A
HETATM    7  C7  UNL     1      17.464 -27.510 -21.936  1.00  0.00     0.030 A
HETATM    8  C6  UNL     1      17.252 -26.390 -22.704  1.00  0.00     0.049 A
HETATM    9  C14 UNL     1      18.346 -25.836 -23.337  1.00  0.00     0.030 A
HETATM   10  C13 UNL     1      19.609 -26.374 -23.211  1.00  0.00     0.009 A
BRANCH   8  11
HETATM   11  N4  UNL     1      15.964 -25.799 -22.862  1.00  0.00    -0.190 N
ATOM     12  H4  UNL     1      15.201 -26.300 -23.317  1.00  0.00     0.184 HD
BRANCH  11  13
HETATM   13  C5  UNL     1      15.803 -24.603 -22.403  1.00  0.00     0.712 A
HETATM   14  N3  UNL     1      15.566 -23.449 -23.020  1.00  0.00    -0.117 N
HETATM   15  N2  UNL     1      15.468 -22.454 -22.165  1.00  0.00    -0.117 N
ATOM     16  H3  UNL     1      15.471 -23.348 -24.031  1.00  0.00     0.206 HD
HETATM   17  C4  UNL     1      15.652 -23.001 -20.947  1.00  0.00     0.707 A
ATOM     18  H2  UNL     1      15.290 -21.472 -22.379  1.00  0.00     0.206 HD
HETATM   19  N6  UNL     1      15.859 -24.324 -21.084  1.00  0.00    -0.020 N
ATOM     20  H6  UNL     1      16.026 -24.991 -20.331  1.00  0.00     0.203 HD
BRANCH  17  21
HETATM   21  N1  UNL     1      15.643 -22.414 -19.801  1.00  0.00    -0.222 N
ATOM     22  H1  UNL     1      15.175 -21.516 -19.672  1.00  0.00     0.177 HD
BRANCH  21  23
HETATM   23  C3  UNL     1      16.326 -23.077 -18.691  1.00  0.00     0.164 C
BRANCH  23  24
HETATM   24  C2  UNL     1      17.162 -22.006 -18.034  1.00  0.00     0.187 C
BRANCH  24  25
HETATM   25  O1  UNL     1      18.366 -21.868 -18.678  1.00  0.00    -0.394 OA
HETATM   26  C1  UNL     1      19.080 -23.037 -18.774  1.00  0.00     0.201 C
ENDBRANCH  24  25
ENDBRANCH  23  24
ENDBRANCH  21  23
ENDBRANCH  17  21
ENDBRANCH  11  13
ENDBRANCH   8  11
ENDBRANCH   4   5
ENDBRANCH   1   4
TORSDOF 8
ENDMDL