MODEL 5
REMARK VINA RESULT: -7.995429841      4.259      7.821
REMARK  6 active torsions:
REMARK  status: ('A' for Active; 'I' for Inactive)
REMARK    1  A    between atoms: C6_8  and  O1_9
REMARK    2  A    between atoms: O1_9  and  C7_10
REMARK    3  A    between atoms: C7_10  and  C8_11
REMARK    4  A    between atoms: C8_11  and  C9_12
REMARK    5  A    between atoms: C9_12  and  N2_13
REMARK    6  A    between atoms: C14_18  and  O2_19
ROOT
HETATM    1  C1  UNL     1      14.134 155.270  36.292  1.00  0.00     0.012 C
HETATM    2  C2  UNL     1      13.414 155.989  37.387  1.00  0.00     0.004 C
HETATM    3  C3  UNL     1      12.015 155.388  37.583  1.00  0.00     0.124 C
HETATM    4  N1  UNL     1      11.569 155.868  38.875  1.00  0.00    -0.389 N
ATOM      5  H1  UNL     1      11.196 155.236  39.584  1.00  0.00     0.159 HD
HETATM    6  C4  UNL     1      11.680 157.287  39.104  1.00  0.00     0.044 A
HETATM    7  C5  UNL     1      12.489 158.048  38.288  1.00  0.00     0.005 A
HETATM    8  C6  UNL     1      12.569 159.414  38.543  1.00  0.00     0.111 A
HETATM    9  C14 UNL     1      11.866 159.972  39.568  1.00  0.00     0.106 A
HETATM   10  C15 UNL     1      11.041 159.169  40.391  1.00  0.00    -0.009 A
HETATM   11  C16 UNL     1      10.957 157.823  40.147  1.00  0.00    -0.021 A
HETATM   12  C17 UNL     1      10.029 157.183  41.140  1.00  0.00     0.047 C
HETATM   13  C18 UNL     1       9.249 158.360  41.645  1.00  0.00    -0.002 C
HETATM   14  C19 UNL     1       8.609 158.167  42.963  1.00  0.00     0.005 C
HETATM   15  C20 UNL     1       9.415 158.577  44.145  1.00  0.00     0.000 C
HETATM   16  C21 UNL     1      10.159 159.871  43.963  1.00  0.00     0.001 C
HETATM   17  C22 UNL     1      11.077 159.676  42.748  1.00  0.00     0.010 C
HETATM   18  C23 UNL     1      10.184 159.532  41.557  1.00  0.00     0.026 C
HETATM   19  C24 UNL     1      13.278 157.457  37.147  1.00  0.00     0.049 C
ENDROOT
BRANCH   8  20
HETATM   20  O1  UNL     1      13.375 160.150  37.725  1.00  0.00    -0.348 OA
BRANCH  20  21
HETATM   21  C7  UNL     1      13.047 160.920  36.622  1.00  0.00     0.177 C
BRANCH  21  22
HETATM   22  C8  UNL     1      13.153 162.411  36.773  1.00  0.00     0.057 C
BRANCH  22  23
HETATM   23  C9  UNL     1      12.653 163.033  35.489  1.00  0.00     0.274 C
BRANCH  23  24
HETATM   24  N2  UNL     1      13.419 164.184  35.100  1.00  0.00     0.088 N
HETATM   25  C10 UNL     1      12.921 165.318  35.860  1.00  0.00     0.272 C
HETATM   26  C11 UNL     1      14.004 166.370  35.801  1.00  0.00     0.032 C
HETATM   27  C12 UNL     1      15.233 165.557  35.469  1.00  0.00     0.032 C
HETATM   28  C13 UNL     1      14.798 164.104  35.567  1.00  0.00     0.272 C
ENDBRANCH  23  24
ENDBRANCH  22  23
ENDBRANCH  21  22
ENDBRANCH  20  21
ENDBRANCH   8  20
BRANCH   9  29
HETATM   29  O2  UNL     1      11.917 161.321  39.870  1.00  0.00    -0.357 OA
ATOM     30  H2  UNL     1      11.360 161.726  40.523  1.00  0.00     0.217 HD
ENDBRANCH   9  29
TORSDOF 6
ENDMDL