MODEL 5
REMARK VINA RESULT: -6.348280567     10.186     12.974
REMARK  6 active torsions:
REMARK  status: ('A' for Active; 'I' for Inactive)
REMARK    1  A    between atoms: C6_6  and  C8_8
REMARK    2  A    between atoms: C8_8  and  C9_9
REMARK    3  A    between atoms: C9_9  and  O1_11
REMARK    4  A    between atoms: C9_9  and  C11_13
REMARK    5  A    between atoms: C22_26  and  C24_28
REMARK    6  A    between atoms: C24_28  and  O4_29
ROOT
HETATM    1  C1  UNL     1      -0.049 149.444  32.318  1.00  0.00     0.020 C
HETATM    2  C2  UNL     1       0.849 150.343  32.659  1.00  0.00    -0.055 C
HETATM    3  C3  UNL     1       1.274 151.172  31.521  1.00  0.00     0.003 C
HETATM    4  C4  UNL     1       1.851 152.483  31.664  1.00  0.00    -0.020 C
HETATM    5  C5  UNL     1       1.632 153.357  32.867  1.00  0.00     0.028 C
HETATM    6  C6  UNL     1       0.321 154.028  32.884  1.00  0.00    -0.034 C
HETATM    7  C7  UNL     1       0.023 154.895  34.087  1.00  0.00     0.016 C
HETATM    8  C13 UNL     1      -0.731 152.895  33.040  1.00  0.00     0.011 C
HETATM    9  C14 UNL     1      -0.447 152.045  34.175  1.00  0.00     0.017 C
HETATM   10  C15 UNL     1       0.977 151.759  34.616  1.00  0.00     0.014 C
HETATM   11  C16 UNL     1       0.826 151.523  36.068  1.00  0.00    -0.009 A
HETATM   12  C17 UNL     1       0.754 152.103  37.343  1.00  0.00     0.150 A
HETATM   13  O2  UNL     1       0.554 151.163  38.210  1.00  0.00    -0.333 OA
HETATM   14  C18 UNL     1       0.481 149.994  37.658  1.00  0.00     0.157 A
HETATM   15  C19 UNL     1       0.648 150.190  36.293  1.00  0.00     0.042 A
HETATM   16  C20 UNL     1       0.663 149.462  35.011  1.00  0.00     0.171 C
HETATM   17  O3  UNL     1       0.195 148.301  34.948  1.00  0.00    -0.291 OA
HETATM   18  C21 UNL     1       1.275 150.357  34.063  1.00  0.00     0.107 C
HETATM   19  C22 UNL     1       2.053 152.621  34.137  1.00  0.00    -0.002 C
HETATM   20  C23 UNL     1       3.329 151.851  33.758  1.00  0.00     0.019 C
ENDROOT
BRANCH   6  21
HETATM   21  C8  UNL     1      -0.115 154.765  31.693  1.00  0.00     0.047 C
BRANCH  21  22
HETATM   22  C9  UNL     1       0.307 156.099  31.332  1.00  0.00     0.054 C
HETATM   23  C10 UNL     1      -0.665 156.928  30.488  1.00  0.00     0.045 C
BRANCH  22  24
HETATM   24  O1  UNL     1       0.744 156.983  32.298  1.00  0.00    -0.390 OA
ATOM     25  H1  UNL     1       0.162 157.261  32.996  1.00  0.00     0.210 HD
ENDBRANCH  22  24
BRANCH  22  26
HETATM   26  C11 UNL     1       1.515 155.940  30.377  1.00  0.00     0.033 C
HETATM   27  C12 UNL     1       1.533 157.023  29.332  1.00  0.00     0.008 C
ENDBRANCH  22  26
ENDBRANCH  21  22
ENDBRANCH   6  21
BRANCH  19  28
HETATM   28  C24 UNL     1       2.702 153.591  35.122  1.00  0.00     0.175 C
BRANCH  28  29
HETATM   29  O4  UNL     1       3.762 154.316  34.524  1.00  0.00    -0.400 OA
ATOM     30  H4  UNL     1       4.154 153.836  33.805  1.00  0.00     0.209 HD
ENDBRANCH  28  29
ENDBRANCH  19  28
TORSDOF 6
ENDMDL