MODEL 5
REMARK VINA RESULT: -6.860615671      4.353      8.721
REMARK  7 active torsions:
REMARK  status: ('A' for Active; 'I' for Inactive)
REMARK    1  A    between atoms: S1_2  and  C2_3
REMARK    2  A    between atoms: C2_3  and  C3_4
REMARK    3  A    between atoms: C3_4  and  C4_5
REMARK    4  A    between atoms: C4_5  and  O1_6
REMARK    5  A    between atoms: O1_6  and  C5_7
REMARK    6  A    between atoms: C13_15  and  O2_16
REMARK    7  A    between atoms: C23_27  and  O3_28
ROOT
HETATM    1  C5  UNL     1       6.743 153.630  33.530  1.00  0.00     0.151 C
HETATM    2  C6  UNL     1       7.380 154.342  34.736  1.00  0.00     0.040 C
HETATM    3  C7  UNL     1       8.798 154.282  34.360  1.00  0.00     0.003 C
HETATM    4  C8  UNL     1       9.824 154.888  35.226  1.00  0.00    -0.001 C
HETATM    5  C9  UNL     1       9.942 154.442  36.614  1.00  0.00     0.033 C
HETATM    6  C10 UNL     1      11.321 154.601  37.117  1.00  0.00    -0.023 C
HETATM    7  C11 UNL     1      12.352 155.101  36.494  1.00  0.00    -0.072 C
HETATM    8  C12 UNL     1      13.710 155.220  37.088  1.00  0.00     0.066 C
HETATM    9  C13 UNL     1      14.571 156.276  36.502  1.00  0.00     0.122 C
HETATM   10  C14 UNL     1      14.479 156.475  35.031  1.00  0.00     0.033 C
HETATM   11  C15 UNL     1      13.441 155.637  34.346  1.00  0.00     0.016 C
HETATM   12  C16 UNL     1      12.160 155.577  35.108  1.00  0.00    -0.017 C
HETATM   13  C17 UNL     1      11.603 156.998  35.184  1.00  0.00     0.020 C
HETATM   14  C18 UNL     1      11.117 154.753  34.443  1.00  0.00     0.003 C
HETATM   15  C19 UNL     1      11.420 153.317  34.256  1.00  0.00     0.007 C
HETATM   16  C20 UNL     1      10.349 152.706  33.349  1.00  0.00     0.012 C
HETATM   17  C21 UNL     1       8.982 152.856  33.964  1.00  0.00    -0.011 C
HETATM   18  C22 UNL     1       8.639 151.813  34.946  1.00  0.00     0.018 C
HETATM   19  C23 UNL     1       7.875 152.807  32.895  1.00  0.00     0.155 C
ENDROOT
BRANCH   1  20
HETATM   20  O1  UNL     1       5.688 152.848  33.897  1.00  0.00    -0.383 OA
BRANCH  20  21
HETATM   21  C4  UNL     1       4.620 153.591  34.377  1.00  0.00     0.169 C
BRANCH  21  22
HETATM   22  C3  UNL     1       3.292 152.885  34.275  1.00  0.00     0.036 C
BRANCH  22  23
HETATM   23  C2  UNL     1       3.435 151.625  33.417  1.00  0.00     0.075 C
BRANCH  23  24
HETATM   24  S1  UNL     1       2.092 151.505  32.217  1.00  0.00    -0.173 SA
HETATM   25  C1  UNL     1       2.216 152.933  31.107  1.00  0.00     0.089 C
ENDBRANCH  23  24
ENDBRANCH  22  23
ENDBRANCH  21  22
ENDBRANCH  20  21
ENDBRANCH   1  20
BRANCH  19  26
HETATM   26  O3  UNL     1       7.477 151.519  32.630  1.00  0.00    -0.392 OA
ATOM     27  H3  UNL     1       8.033 151.108  31.978  1.00  0.00     0.210 HD
ENDBRANCH  19  26
BRANCH   9  28
HETATM   28  O2  UNL     1      14.376 157.492  37.202  1.00  0.00    -0.395 OA
ATOM     29  H2  UNL     1      15.027 158.127  36.926  1.00  0.00     0.210 HD
ENDBRANCH   9  28
TORSDOF 7
ENDMDL