MODEL 4
REMARK VINA RESULT: -5.113765062      0.705      1.604
REMARK  7 active torsions:
REMARK  status: ('A' for Active; 'I' for Inactive)
REMARK    1  A    between atoms: C9_9  and  C11_11
REMARK    2  A    between atoms: C11_11  and  C12_12
REMARK    3  A    between atoms: C14_14  and  O1_15
REMARK    4  A    between atoms: C18_21  and  O3_23
REMARK    5  A    between atoms: C20_25  and  O4_26
REMARK    6  A    between atoms: O4_26  and  C21_27
REMARK    7  A    between atoms: C21_27  and  C22_28
ROOT
HETATM    1  C12 UNL     1       1.226 151.606  33.647  1.00  0.00     0.013 C
HETATM    2  C13 UNL     1       2.448 150.779  33.916  1.00  0.00     0.020 C
HETATM    3  C14 UNL     1       0.701 150.974  32.316  1.00  0.00     0.140 C
HETATM    4  C15 UNL     1       1.510 151.269  31.132  1.00  0.00     0.084 C
HETATM    5  C16 UNL     1       0.653 150.889  29.908  1.00  0.00     0.020 C
HETATM    6  C17 UNL     1       1.729 152.751  30.964  1.00  0.00     0.169 C
HETATM    7  O2  UNL     1       2.323 153.195  30.019  1.00  0.00    -0.294 OA
HETATM    8  C18 UNL     1       1.146 153.567  32.065  1.00  0.00     0.141 C
HETATM    9  C19 UNL     1       1.686 154.969  31.897  1.00  0.00     0.057 C
HETATM   10  C20 UNL     1       1.666 153.018  33.379  1.00  0.00     0.173 C
ENDROOT
BRANCH   1  11
HETATM   11  C11 UNL     1       0.097 151.478  34.562  1.00  0.00     0.028 C
BRANCH  11  12
HETATM   12  C9  UNL     1       0.095 151.569  36.004  1.00  0.00    -0.014 C
HETATM   13  C2  UNL     1      -0.612 150.454  36.691  1.00  0.00    -0.080 C
HETATM   14  C1  UNL     1      -0.096 149.503  37.428  1.00  0.00     0.015 C
HETATM   15  C3  UNL     1      -2.117 150.418  36.527  1.00  0.00     0.034 C
HETATM   16  C4  UNL     1      -2.630 151.557  37.358  1.00  0.00     0.005 C
HETATM   17  C5  UNL     1      -1.553 152.567  37.639  1.00  0.00     0.010 C
HETATM   18  C6  UNL     1      -0.722 152.819  36.393  1.00  0.00    -0.036 C
HETATM   19  C7  UNL     1       0.198 153.993  36.724  1.00  0.00     0.016 C
HETATM   20  C8  UNL     1      -1.641 153.329  35.346  1.00  0.00     0.016 C
HETATM   21  C10 UNL     1       1.401 151.763  36.734  1.00  0.00     0.021 C
ENDBRANCH  11  12
ENDBRANCH   1  11
BRANCH   3  22
HETATM   22  O1  UNL     1       0.760 149.585  32.567  1.00  0.00    -0.394 OA
ATOM     23  H1  UNL     1       0.192 149.216  31.900  1.00  0.00     0.210 HD
ENDBRANCH   3  22
BRANCH  10  24
HETATM   24  O4  UNL     1       3.052 153.148  33.323  1.00  0.00    -0.382 OA
BRANCH  24  25
HETATM   25  C21 UNL     1       3.595 153.699  34.481  1.00  0.00     0.168 C
BRANCH  25  26
HETATM   26  C22 UNL     1       5.102 153.706  34.452  1.00  0.00     0.022 C
HETATM   27  C23 UNL     1       5.563 152.603  33.546  1.00  0.00     0.007 C
ENDBRANCH  25  26
ENDBRANCH  24  25
ENDBRANCH  10  24
BRANCH   8  28
HETATM   28  O3  UNL     1      -0.225 153.636  31.988  1.00  0.00    -0.380 OA
ATOM     29  H3  UNL     1      -0.600 152.867  31.574  1.00  0.00     0.211 HD
ENDBRANCH   8  28
TORSDOF 7
ENDMDL