MODEL 5
REMARK VINA RESULT: -6.758361800      0.859      1.048
REMARK  9 active torsions:
REMARK  status: ('A' for Active; 'I' for Inactive)
REMARK    1  A    between atoms: C2_2  and  C3_3
REMARK    2  A    between atoms: C3_3  and  C4_4
REMARK    3  A    between atoms: C4_4  and  C5_5
REMARK    4  A    between atoms: C5_5  and  C6_6
REMARK    5  A    between atoms: C6_6  and  C7_7
REMARK    6  A    between atoms: C15_15  and  O1_16
REMARK    7  A    between atoms: C18_20  and  O2_22
REMARK    8  A    between atoms: C20_24  and  O3_25
REMARK    9  A    between atoms: C24_30  and  O4_31
ROOT
HETATM    1  C7  UNL     1       3.831 152.933  34.168  1.00  0.00    -0.025 C
HETATM    2  C8  UNL     1       3.658 152.402  32.986  1.00  0.00     0.009 C
HETATM    3  C9  UNL     1       2.558 151.708  32.343  1.00  0.00    -0.003 C
HETATM    4  C10 UNL     1       1.648 152.182  31.472  1.00  0.00    -0.019 C
HETATM    5  C11 UNL     1       1.651 153.591  31.011  1.00  0.00     0.026 C
HETATM    6  C12 UNL     1       0.762 153.733  29.801  1.00  0.00     0.018 C
HETATM    7  C13 UNL     1       1.430 154.590  32.074  1.00  0.00    -0.020 C
HETATM    8  C14 UNL     1       0.420 154.873  32.823  1.00  0.00     0.002 C
HETATM    9  C15 UNL     1      -0.942 154.301  32.920  1.00  0.00     0.147 C
HETATM   10  C16 UNL     1      -1.368 154.007  34.354  1.00  0.00     0.055 C
HETATM   11  C17 UNL     1      -0.802 155.001  35.344  1.00  0.00     0.016 C
HETATM   12  C18 UNL     1      -1.229 152.582  34.730  1.00  0.00     0.109 C
HETATM   13  C19 UNL     1      -2.701 152.112  35.068  1.00  0.00     0.053 C
HETATM   14  C20 UNL     1      -0.427 152.329  35.952  1.00  0.00     0.083 C
HETATM   15  C21 UNL     1       0.832 151.696  36.255  1.00  0.00    -0.027 C
HETATM   16  C22 UNL     1       0.583 150.424  37.146  1.00  0.00     0.051 C
HETATM   17  C23 UNL     1       2.092 151.975  35.997  1.00  0.00     0.046 C
HETATM   18  C24 UNL     1       2.934 152.906  35.362  1.00  0.00     0.072 C
ENDROOT
BRANCH   1  19
HETATM   19  C6  UNL     1       5.202 153.604  34.397  1.00  0.00     0.041 C
BRANCH  19  20
HETATM   20  C5  UNL     1       6.291 152.860  33.763  1.00  0.00     0.005 C
BRANCH  20  21
HETATM   21  C4  UNL     1       7.489 152.728  34.761  1.00  0.00     0.000 C
BRANCH  21  22
HETATM   22  C3  UNL     1       8.258 154.004  34.792  1.00  0.00    -0.000 C
BRANCH  22  23
HETATM   23  C2  UNL     1       9.580 153.923  34.070  1.00  0.00    -0.005 C
HETATM   24  C1  UNL     1       9.763 152.613  33.352  1.00  0.00     0.005 C
ENDBRANCH  22  23
ENDBRANCH  21  22
ENDBRANCH  20  21
ENDBRANCH  19  20
ENDBRANCH   1  19
BRANCH  18  25
HETATM   25  O4  UNL     1       3.008 154.093  35.917  1.00  0.00    -0.360 OA
ATOM     26  H4  UNL     1       3.165 153.952  36.844  1.00  0.00     0.217 HD
ENDBRANCH  18  25
BRANCH  14  27
HETATM   27  O3  UNL     1      -1.109 152.836  36.961  1.00  0.00    -0.361 OA
ATOM     28  H3  UNL     1      -0.935 153.771  36.963  1.00  0.00     0.217 HD
ENDBRANCH  14  27
BRANCH  12  29
HETATM   29  O2  UNL     1      -0.961 151.680  33.719  1.00  0.00    -0.383 OA
ATOM     30  H2  UNL     1      -1.700 151.341  33.227  1.00  0.00     0.211 HD
ENDBRANCH  12  29
BRANCH   9  31
HETATM   31  O1  UNL     1      -1.234 153.273  32.072  1.00  0.00    -0.391 OA
ATOM     32  H1  UNL     1      -2.128 152.952  32.084  1.00  0.00     0.210 HD
ENDBRANCH   9  31
TORSDOF 9
ENDMDL