MODEL 1
REMARK VINA RESULT: -8.681814906      0.000      0.000
REMARK  7 active torsions:
REMARK  status: ('A' for Active; 'I' for Inactive)
REMARK    1  A    between atoms: C4_4  and  O1_5
REMARK    2  A    between atoms: N1_7  and  C5_8
REMARK    3  A    between atoms: C5_8  and  C6_9
REMARK    4  A    between atoms: C6_9  and  C7_10
REMARK    5  A    between atoms: C7_10  and  C8_11
REMARK    6  A    between atoms: C8_11  and  C9_12
REMARK    7  A    between atoms: C22_27  and  O4_28
ROOT
HETATM    1  C9  UNL     1      13.247 157.522  38.300  1.00  0.00     0.090 C
HETATM    2  C10 UNL     1      12.184 156.761  38.987  1.00  0.00     0.263 C
HETATM    3  O2  UNL     1      12.321 156.686  40.226  1.00  0.00    -0.265 OA
HETATM    4  O3  UNL     1      11.044 156.110  38.480  1.00  0.00    -0.313 OA
HETATM    5  C11 UNL     1      10.976 155.941  37.052  1.00  0.00     0.167 C
HETATM    6  C12 UNL     1      10.141 154.842  36.524  1.00  0.00     0.043 C
HETATM    7  C13 UNL     1      11.360 154.471  35.656  1.00  0.00     0.029 C
HETATM    8  C14 UNL     1      11.375 155.140  34.347  1.00  0.00    -0.012 C
HETATM    9  C15 UNL     1      10.084 155.821  33.944  1.00  0.00     0.010 C
HETATM   10  C16 UNL     1      12.481 156.141  34.158  1.00  0.00     0.005 C
HETATM   11  C17 UNL     1      13.723 155.812  34.937  1.00  0.00     0.013 C
HETATM   12  C18 UNL     1      13.430 155.741  36.449  1.00  0.00    -0.006 C
HETATM   13  C19 UNL     1      14.569 154.904  37.009  1.00  0.00     0.019 C
HETATM   14  C20 UNL     1      13.636 157.140  36.949  1.00  0.00     0.006 C
HETATM   15  C21 UNL     1      15.115 157.498  36.793  1.00  0.00     0.011 C
HETATM   16  C22 UNL     1      12.175 155.066  36.733  1.00  0.00     0.096 C
ENDROOT
BRANCH   1  17
HETATM   17  C8  UNL     1      12.695 158.957  38.277  1.00  0.00     0.015 C
BRANCH  17  18
HETATM   18  C7  UNL     1      13.052 159.750  37.083  1.00  0.00     0.002 C
BRANCH  18  19
HETATM   19  C6  UNL     1      13.354 161.211  37.455  1.00  0.00     0.020 C
BRANCH  19  20
HETATM   20  C5  UNL     1      12.811 162.176  36.451  1.00  0.00     0.130 C
BRANCH  20  21
HETATM   21  N1  UNL     1      13.732 163.267  36.209  1.00  0.00    -0.338 N
HETATM   22  C4  UNL     1      13.904 163.851  35.012  1.00  0.00     0.142 A
HETATM   23  C3  UNL     1      14.848 164.861  35.090  1.00  0.00     0.064 A
HETATM   24  C2  UNL     1      15.246 164.864  36.413  1.00  0.00    -0.042 A
HETATM   25  C1  UNL     1      16.261 165.787  36.986  1.00  0.00     0.049 C
HETATM   26  C23 UNL     1      14.555 163.889  37.064  1.00  0.00     0.100 A
BRANCH  22  27
HETATM   27  O1  UNL     1      13.245 163.519  33.825  1.00  0.00    -0.346 OA
ATOM     28  H1  UNL     1      13.464 162.751  33.311  1.00  0.00     0.219 HD
ENDBRANCH  22  27
ENDBRANCH  20  21
ENDBRANCH  19  20
ENDBRANCH  18  19
ENDBRANCH  17  18
ENDBRANCH   1  17
BRANCH  16  29
HETATM   29  O4  UNL     1      12.292 154.120  37.784  1.00  0.00    -0.386 OA
ATOM     30  H4  UNL     1      13.166 153.751  37.732  1.00  0.00     0.210 HD
ENDBRANCH  16  29
TORSDOF 7
ENDMDL