MODEL 4
REMARK VINA RESULT: -6.230846062      1.662      4.012
REMARK  10 active torsions:
REMARK  status: ('A' for Active; 'I' for Inactive)
REMARK    1  A    between atoms: C4_4  and  O1_5
REMARK    2  A    between atoms: O1_5  and  C5_6
REMARK    3  A    between atoms: C9_10  and  O2_12
REMARK    4  A    between atoms: C11_14  and  C12_15
REMARK    5  A    between atoms: C17_20  and  O3_21
REMARK    6  A    between atoms: C17_20  and  C18_23
REMARK    7  A    between atoms: C19_24  and  C20_25
REMARK    8  A    between atoms: C20_25  and  C21_26
REMARK    9  A    between atoms: C21_26  and  C22_27
REMARK   10  A    between atoms: C22_27  and  C23_28
ROOT
HETATM    1  C23 UNL     1       9.700 155.480  34.818  1.00  0.00     0.124 C
HETATM    2  C24 UNL     1      11.028 154.995  34.403  1.00  0.00     0.059 C
HETATM    3  N1  UNL     1      12.064 154.621  34.066  1.00  0.00    -0.197 NA
ENDROOT
BRANCH   1   4
HETATM    4  C22 UNL     1       8.891 154.375  35.444  1.00  0.00     0.015 C
BRANCH   4   5
HETATM    5  C21 UNL     1       7.756 153.934  34.531  1.00  0.00     0.013 C
BRANCH   5   6
HETATM    6  C20 UNL     1       7.001 152.832  35.200  1.00  0.00     0.094 C
BRANCH   6   7
HETATM    7  C19 UNL     1       5.620 152.880  34.724  1.00  0.00    -0.103 C
HETATM    8  C18 UNL     1       4.476 152.899  34.331  1.00  0.00    -0.067 C
BRANCH   8   9
HETATM    9  C17 UNL     1       3.069 152.940  33.826  1.00  0.00     0.131 C
HETATM   10  C2  UNL     1       3.131 152.298  32.481  1.00  0.00     0.031 C
HETATM   11  C1  UNL     1       4.125 151.144  32.469  1.00  0.00     0.014 C
HETATM   12  C3  UNL     1       1.797 151.917  31.882  1.00  0.00     0.043 C
HETATM   13  C4  UNL     1       0.657 152.212  32.884  1.00  0.00     0.157 C
HETATM   14  C9  UNL     1       1.031 151.603  34.215  1.00  0.00     0.088 C
HETATM   15  C10 UNL     1      -0.186 151.279  34.964  1.00  0.00     0.049 C
HETATM   16  C11 UNL     1       2.204 152.214  34.842  1.00  0.00     0.073 C
BRANCH  13  17
HETATM   17  O1  UNL     1      -0.531 151.874  32.488  1.00  0.00    -0.373 OA
BRANCH  17  18
HETATM   18  C5  UNL     1      -1.474 152.579  31.917  1.00  0.00     0.051 C
HETATM   19  C6  UNL     1      -1.498 152.280  30.433  1.00  0.00     0.045 C
HETATM   20  C7  UNL     1      -1.254 154.106  31.973  1.00  0.00     0.045 C
HETATM   21  C8  UNL     1      -2.900 152.347  32.372  1.00  0.00     0.045 C
ENDBRANCH  17  18
ENDBRANCH  13  17
BRANCH  14  22
HETATM   22  O2  UNL     1       1.473 150.294  33.767  1.00  0.00    -0.387 OA
ATOM     23  H2  UNL     1       1.052 149.751  34.423  1.00  0.00     0.210 HD
ENDBRANCH  14  22
BRANCH  16  24
HETATM   24  C12 UNL     1       2.145 153.027  36.071  1.00  0.00    -0.004 C
HETATM   25  C13 UNL     1       2.500 152.351  37.356  1.00  0.00     0.005 C
HETATM   26  C14 UNL     1       1.484 152.747  38.400  1.00  0.00     0.000 C
HETATM   27  C15 UNL     1       0.603 153.786  37.794  1.00  0.00     0.000 C
HETATM   28  C16 UNL     1       0.890 153.816  36.300  1.00  0.00     0.005 C
ENDBRANCH  16  24
BRANCH   9  29
HETATM   29  O3  UNL     1       2.794 154.304  33.746  1.00  0.00    -0.377 OA
ATOM     30  H3  UNL     1       3.395 154.758  33.167  1.00  0.00     0.211 HD
ENDBRANCH   9  29
ENDBRANCH   8   9
ENDBRANCH   6   7
ENDBRANCH   5   6
ENDBRANCH   4   5
ENDBRANCH   1   4
TORSDOF 10
ENDMDL