MODEL 3
REMARK VINA RESULT: -7.689522092      3.673      7.487
REMARK  10 active torsions:
REMARK  status: ('A' for Active; 'I' for Inactive)
REMARK    1  A    between atoms: C2_2  and  O1_3
REMARK    2  A    between atoms: O1_3  and  C3_4
REMARK    3  A    between atoms: C3_4  and  C4_5
REMARK    4  A    between atoms: C4_5  and  N1_6
REMARK       I    between atoms: N1_6  and  C5_8
REMARK    5  A    between atoms: C5_8  and  C6_10
REMARK    6  A    between atoms: C6_10  and  C8_12
REMARK    7  A    between atoms: C11_15  and  C13_17
REMARK    8  A    between atoms: C14_18  and  C17_24
REMARK    9  A    between atoms: C16_21  and  O4_22
REMARK   10  A    between atoms: C22_29  and  C23_30
ROOT
HETATM    1  C8  UNL     1      12.255 157.306  38.704  1.00  0.00     0.004 C
HETATM    2  C9  UNL     1      11.720 158.690  38.489  1.00  0.00     0.007 C
HETATM    3  C10 UNL     1      12.421 159.109  37.184  1.00  0.00     0.015 C
HETATM    4  C11 UNL     1      13.293 157.975  36.780  1.00  0.00    -0.006 C
HETATM    5  C12 UNL     1      14.638 158.130  37.533  1.00  0.00     0.021 C
HETATM    6  C23 UNL     1      12.541 156.780  37.343  1.00  0.00     0.012 C
ENDROOT
BRANCH   1   7
HETATM    7  C6  UNL     1      11.829 156.491  39.809  1.00  0.00     0.078 C
HETATM    8  C7  UNL     1      11.242 155.132  39.642  1.00  0.00     0.020 C
BRANCH   7   9
HETATM    9  C5  UNL     1      10.902 157.207  40.721  1.00  0.00     0.221 C
HETATM   10  N1  UNL     1      11.333 158.285  41.555  1.00  0.00    -0.359 N
ATOM     11  H1  UNL     1      12.312 158.571  41.521  1.00  0.00     0.162 HD
HETATM   12  O2  UNL     1       9.699 156.909  40.812  1.00  0.00    -0.273 OA
BRANCH  10  13
HETATM   13  C4  UNL     1      10.428 158.990  42.453  1.00  0.00     0.148 C
BRANCH  13  14
HETATM   14  C3  UNL     1      11.245 159.517  43.606  1.00  0.00     0.187 C
BRANCH  14  15
HETATM   15  O1  UNL     1      10.735 159.260  44.847  1.00  0.00    -0.390 OA
BRANCH  15  16
HETATM   16  C2  UNL     1      10.820 160.303  45.744  1.00  0.00     0.163 C
HETATM   17  C1  UNL     1      12.197 160.947  45.757  1.00  0.00     0.033 C
ENDBRANCH  15  16
ENDBRANCH  14  15
ENDBRANCH  13  14
ENDBRANCH  10  13
ENDBRANCH   7   9
ENDBRANCH   1   7
BRANCH   6  18
HETATM   18  C22 UNL     1      11.563 156.141  36.534  1.00  0.00     0.025 C
HETATM   19  C17 UNL     1      12.155 155.042  35.712  1.00  0.00    -0.044 C
HETATM   20  C18 UNL     1      11.235 154.228  35.171  1.00  0.00    -0.018 C
HETATM   21  C19 UNL     1       9.784 154.458  35.447  1.00  0.00     0.028 C
HETATM   22  C20 UNL     1       9.453 155.936  35.361  1.00  0.00     0.004 C
HETATM   23  C21 UNL     1      10.710 156.821  35.523  1.00  0.00     0.010 C
BRANCH  19  24
HETATM   24  C14 UNL     1      13.571 154.932  35.522  1.00  0.00     0.004 A
HETATM   25  C13 UNL     1      14.371 154.128  36.312  1.00  0.00     0.021 A
HETATM   26  C16 UNL     1      15.638 154.339  35.860  1.00  0.00     0.191 A
HETATM   27  O3  UNL     1      15.634 155.202  34.869  1.00  0.00    -0.299 OA
HETATM   28  C15 UNL     1      14.416 155.592  34.621  1.00  0.00     0.157 A
BRANCH  26  29
HETATM   29  O4  UNL     1      16.824 153.782  36.309  1.00  0.00    -0.340 OA
ATOM     30  H4  UNL     1      16.951 153.034  36.881  1.00  0.00     0.220 HD
ENDBRANCH  26  29
ENDBRANCH  19  24
ENDBRANCH   6  18
TORSDOF 10
ENDMDL