MODEL 3
REMARK VINA RESULT: -7.041814385      1.273      1.550
REMARK  7 active torsions:
REMARK  status: ('A' for Active; 'I' for Inactive)
REMARK    1  A    between atoms: C2_2  and  C3_3
REMARK    2  A    between atoms: C3_3  and  C4_4
REMARK    3  A    between atoms: C4_4  and  C5_5
REMARK    4  A    between atoms: C5_5  and  C6_6
REMARK    5  A    between atoms: C6_6  and  C7_7
REMARK    6  A    between atoms: C7_7  and  O1_8
REMARK    7  A    between atoms: C15_18  and  O3_19
ROOT
HETATM    1  C7  UNL     1       4.150 153.115  34.347  1.00  0.00     0.165 C
HETATM    2  C8  UNL     1       3.888 152.648  32.961  1.00  0.00     0.074 C
HETATM    3  C9  UNL     1       2.458 152.403  32.570  1.00  0.00     0.007 A
HETATM    4  C10 UNL     1       1.449 153.368  32.310  1.00  0.00     0.005 A
HETATM    5  C11 UNL     1       0.046 153.574  32.344  1.00  0.00     0.044 C
HETATM    6  C12 UNL     1      -0.658 153.437  33.704  1.00  0.00     0.062 C
HETATM    7  C13 UNL     1      -1.959 154.183  33.716  1.00  0.00     0.046 C
HETATM    8  O2  UNL     1       0.104 153.802  34.788  1.00  0.00    -0.369 OA
HETATM    9  C14 UNL     1       1.492 153.650  34.589  1.00  0.00     0.187 C
HETATM   10  C15 UNL     1       2.321 153.393  35.772  1.00  0.00     0.290 C
HETATM   11  O4  UNL     1       3.393 152.576  35.346  1.00  0.00    -0.323 OA
HETATM   12  C16 UNL     1       1.615 152.545  33.637  1.00  0.00     0.003 A
HETATM   13  C17 UNL     1       0.635 151.526  33.940  1.00  0.00     0.008 C
HETATM   14  C18 UNL     1       0.706 150.134  33.501  1.00  0.00    -0.013 C
HETATM   15  C19 UNL     1       0.339 149.786  32.110  1.00  0.00     0.010 C
HETATM   16  C20 UNL     1      -0.228 149.327  34.414  1.00  0.00     0.005 C
HETATM   17  C21 UNL     1      -1.007 150.132  35.376  1.00  0.00     0.001 C
HETATM   18  C22 UNL     1      -1.652 151.383  34.849  1.00  0.00     0.008 C
HETATM   19  C23 UNL     1      -0.837 151.941  33.780  1.00  0.00     0.025 C
ENDROOT
BRANCH   1  20
HETATM   20  C6  UNL     1       5.606 152.720  34.686  1.00  0.00     0.068 C
BRANCH  20  21
HETATM   21  C5  UNL     1       6.389 152.755  33.401  1.00  0.00     0.005 C
BRANCH  21  22
HETATM   22  C4  UNL     1       7.833 153.003  33.554  1.00  0.00     0.000 C
BRANCH  22  23
HETATM   23  C3  UNL     1       8.064 153.635  34.911  1.00  0.00    -0.000 C
BRANCH  23  24
HETATM   24  C2  UNL     1       8.839 154.929  34.794  1.00  0.00    -0.005 C
HETATM   25  C1  UNL     1       9.819 154.989  35.931  1.00  0.00     0.005 C
ENDBRANCH  23  24
ENDBRANCH  22  23
ENDBRANCH  21  22
ENDBRANCH  20  21
ENDBRANCH   1  20
BRANCH   1  26
HETATM   26  O1  UNL     1       4.187 154.508  34.343  1.00  0.00    -0.365 OA
ATOM     27  H1  UNL     1       4.113 154.726  33.422  1.00  0.00     0.213 HD
ENDBRANCH   1  26
BRANCH  10  28
HETATM   28  O3  UNL     1       1.717 152.814  36.855  1.00  0.00    -0.368 OA
ATOM     29  H3  UNL     1       0.824 153.072  37.052  1.00  0.00     0.212 HD
ENDBRANCH  10  28
TORSDOF 7
ENDMDL