MODEL 4
REMARK VINA RESULT: -8.541844745      3.677      7.381
REMARK  7 active torsions:
REMARK  status: ('A' for Active; 'I' for Inactive)
REMARK    1  A    between atoms: C5_5  and  O1_6
REMARK    2  A    between atoms: C8_11  and  C9_12
REMARK    3  A    between atoms: C15_19  and  C16_20
REMARK    4  A    between atoms: C16_20  and  C17_21
REMARK    5  A    between atoms: C17_21  and  C18_22
REMARK    6  A    between atoms: C18_22  and  C19_23
REMARK    7  A    between atoms: C19_23  and  O4_24
ROOT
HETATM    1  C1  UNL     1      13.483 157.459  35.423  1.00  0.00     0.016 C
HETATM    2  C2  UNL     1      13.903 157.448  36.889  1.00  0.00    -0.026 C
HETATM    3  C3  UNL     1      15.381 157.565  36.956  1.00  0.00     0.040 C
HETATM    4  C4  UNL     1      16.151 156.335  36.722  1.00  0.00     0.014 C
HETATM    5  C5  UNL     1      15.572 155.160  36.685  1.00  0.00     0.108 C
HETATM    6  C6  UNL     1      14.147 155.038  36.875  1.00  0.00     0.187 C
HETATM    7  O2  UNL     1      13.612 153.955  36.489  1.00  0.00    -0.290 OA
HETATM    8  C7  UNL     1      13.407 156.141  37.488  1.00  0.00     0.080 C
HETATM    9  C8  UNL     1      11.921 156.000  37.378  1.00  0.00     0.033 C
HETATM   10  C13 UNL     1      11.152 157.196  36.995  1.00  0.00     0.010 C
HETATM   11  C14 UNL     1      11.729 158.517  37.342  1.00  0.00     0.006 C
HETATM   12  C15 UNL     1      13.181 158.523  37.676  1.00  0.00    -0.005 C
ENDROOT
BRANCH  12  13
HETATM   13  C16 UNL     1      13.822 159.879  37.464  1.00  0.00     0.006 C
BRANCH  13  14
HETATM   14  C17 UNL     1      12.890 160.885  36.910  1.00  0.00     0.012 C
BRANCH  14  15
HETATM   15  C18 UNL     1      13.235 162.316  37.187  1.00  0.00    -0.019 C
HETATM   16  C20 UNL     1      12.600 163.118  36.037  1.00  0.00     0.011 C
HETATM   17  C21 UNL     1      13.616 163.403  34.955  1.00  0.00     0.001 C
HETATM   18  C22 UNL     1      14.625 164.368  35.540  1.00  0.00     0.000 C
HETATM   19  C23 UNL     1      15.206 163.830  36.823  1.00  0.00     0.001 C
HETATM   20  C24 UNL     1      14.741 162.430  37.052  1.00  0.00     0.011 C
BRANCH  15  21
HETATM   21  C19 UNL     1      12.707 162.897  38.433  1.00  0.00     0.173 C
BRANCH  21  22
HETATM   22  O4  UNL     1      11.605 163.673  38.401  1.00  0.00    -0.400 OA
ATOM     23  H4  UNL     1      10.746 163.275  38.318  1.00  0.00     0.209 HD
ENDBRANCH  21  22
ENDBRANCH  15  21
ENDBRANCH  14  15
ENDBRANCH  13  14
ENDBRANCH  12  13
BRANCH   9  24
HETATM   24  C9  UNL     1      11.418 155.397  38.641  1.00  0.00    -0.029 A
HETATM   25  C10 UNL     1      11.518 155.977  39.902  1.00  0.00     0.034 A
HETATM   26  C11 UNL     1      10.929 155.081  40.764  1.00  0.00     0.142 A
HETATM   27  O3  UNL     1      10.493 154.027  40.120  1.00  0.00    -0.334 OA
HETATM   28  C12 UNL     1      10.778 154.202  38.853  1.00  0.00     0.148 A
ENDBRANCH   9  24
BRANCH   5  29
HETATM   29  O1  UNL     1      16.319 153.987  36.460  1.00  0.00    -0.357 OA
ATOM     30  H1  UNL     1      16.864 153.892  35.688  1.00  0.00     0.217 HD
ENDBRANCH   5  29
TORSDOF 7
ENDMDL