MODEL 1
REMARK VINA RESULT: -4.032464660      0.000      0.000
REMARK  2 active torsions:
REMARK  status: ('A' for Active; 'I' for Inactive)
REMARK    1  A    between atoms: N1_1  and  C1_5
REMARK    2  A    between atoms: C6_10  and  O1_11
ROOT
HETATM    1  C1  UNL     1     -16.999 -51.529 -37.406  1.00  0.00     0.212 C
HETATM    2  C2  UNL     1     -17.816 -50.355 -36.960  1.00  0.00     0.035 C
HETATM    3  C3  UNL     1     -17.002 -49.613 -35.912  1.00  0.00     0.002 C
HETATM    4  C4  UNL     1     -15.917 -50.451 -35.318  1.00  0.00     0.003 C
HETATM    5  C5  UNL     1     -16.309 -51.882 -35.084  1.00  0.00     0.034 C
HETATM    6  C6  UNL     1     -16.938 -52.530 -36.290  1.00  0.00     0.148 C
ENDROOT
BRANCH   1   7
HETATM    7  N1  UNL     1     -17.452 -52.046 -38.648  1.00  0.00    -0.073 N
ATOM      8  H13 UNL     1     -18.321 -51.600 -38.941  1.00  0.00     0.274 HD
ATOM      9  H12 UNL     1     -16.852 -51.747 -39.416  1.00  0.00     0.274 HD
ATOM     10  H11 UNL     1     -17.546 -53.061 -38.624  1.00  0.00     0.274 HD
ENDBRANCH   1   7
BRANCH   6  11
HETATM   11  O1  UNL     1     -16.060 -53.551 -36.728  1.00  0.00    -0.393 OA
ATOM     12  H1  UNL     1     -16.402 -54.362 -36.369  1.00  0.00     0.210 HD
ENDBRANCH   6  11
TORSDOF 2
ENDMDL