MODEL 4
REMARK VINA RESULT: -2.842510432      2.327      2.652
REMARK  3 active torsions:
REMARK  status: ('A' for Active; 'I' for Inactive)
REMARK    1  A    between atoms: C2_2  and  N1_3
REMARK    2  A    between atoms: C2_2  and  S1_8
REMARK    3  A    between atoms: S1_8  and  N2_9
ROOT
HETATM    1  C1  UNL     1     -15.540 -50.481 -34.357  1.00  0.00     0.078 C
HETATM    2  C2  UNL     1     -16.792 -50.943 -35.095  1.00  0.00     0.261 C
HETATM    3 CL1  UNL     1     -17.457 -49.613 -36.097  1.00  0.00    -0.075 Cl
ENDROOT
BRANCH   2   4
HETATM    4  N1  UNL     1     -16.471 -52.003 -36.002  1.00  0.00    -0.046 N
ATOM      5  H13 UNL     1     -16.734 -51.776 -36.962  1.00  0.00     0.277 HD
ATOM      6  H12 UNL     1     -15.465 -52.096 -36.139  1.00  0.00     0.277 HD
ATOM      7  H11 UNL     1     -16.895 -52.877 -35.689  1.00  0.00     0.277 HD
ENDBRANCH   2   4
BRANCH   2   8
HETATM    8  S1  UNL     1     -18.069 -51.337 -33.899  1.00  0.00    -0.007 SA
BRANCH   8   9
HETATM    9  N2  UNL     1     -19.385 -50.210 -33.839  1.00  0.00    -0.371 N
ATOM     10  H22 UNL     1     -20.279 -50.454 -33.414  1.00  0.00     0.164 HD
ATOM     11  H21 UNL     1     -19.190 -49.300 -34.257  1.00  0.00     0.164 HD
ENDBRANCH   8   9
ENDBRANCH   2   8
TORSDOF 3
ENDMDL