MODEL 1
REMARK VINA RESULT: -4.295353311      0.000      0.000
REMARK  0 active torsions:
REMARK  status: ('A' for Active; 'I' for Inactive)
ROOT
HETATM    1  C1  UNL     1     -15.575 -50.884 -34.050  1.00  0.00     0.040 C
HETATM    2  C2  UNL     1     -16.747 -51.355 -34.925  1.00  0.00     0.093 C
HETATM    3  C3  UNL     1     -17.931 -51.486 -34.063  1.00  0.00     0.040 C
HETATM    4  N1  UNL     1     -16.357 -52.668 -35.401  1.00  0.00    -0.115 NA
HETATM    5  N2  UNL     1     -16.548 -52.715 -36.753  1.00  0.00    -0.036 NA
HETATM    6  N3  UNL     1     -16.947 -51.486 -37.218  1.00  0.00    -0.084 NA
HETATM    7  C4  UNL     1     -16.853 -50.543 -36.135  1.00  0.00     0.208 C
HETATM    8  C5  UNL     1     -17.942 -49.530 -36.185  1.00  0.00     0.075 C
HETATM    9  F1  UNL     1     -15.644 -49.856 -36.317  1.00  0.00    -0.221 F
ENDROOT
TORSDOF 0
ENDMDL