MODEL 3
REMARK VINA RESULT: -4.156678882      2.431      2.977
REMARK  2 active torsions:
REMARK  status: ('A' for Active; 'I' for Inactive)
REMARK    1  A    between atoms: C2_2  and  C3_3
REMARK    2  A    between atoms: C3_3  and  N1_4
ROOT
HETATM    1  C1  UNL     1     -16.958 -51.161 -37.902  1.00  0.00     0.023 C
HETATM    2  C2  UNL     1     -17.220 -51.320 -36.425  1.00  0.00     0.045 C
HETATM    3  C4  UNL     1     -18.672 -51.223 -36.015  1.00  0.00     0.023 C
HETATM    4  C5  UNL     1     -18.160 -50.569 -34.722  1.00  0.00     0.081 C
HETATM    5  C6  UNL     1     -17.029 -50.048 -35.615  1.00  0.00     0.252 C
HETATM    6  F1  UNL     1     -15.831 -49.896 -35.010  1.00  0.00    -0.205 F
HETATM    7  F2  UNL     1     -17.503 -48.960 -36.321  1.00  0.00    -0.205 F
ENDROOT
BRANCH   2   8
HETATM    8  C3  UNL     1     -16.508 -52.528 -35.895  1.00  0.00     0.244 C
BRANCH   8   9
HETATM    9  N1  UNL     1     -16.426 -53.486 -37.009  1.00  0.00    -0.078 N
ATOM     10  H13 UNL     1     -16.339 -54.455 -36.703  1.00  0.00     0.274 HD
ATOM     11  H12 UNL     1     -17.305 -53.591 -37.516  1.00  0.00     0.274 HD
ATOM     12  H11 UNL     1     -15.653 -53.178 -37.598  1.00  0.00     0.274 HD
ENDBRANCH   8   9
ENDBRANCH   2   8
TORSDOF 2
ENDMDL