MODEL 4
REMARK VINA RESULT: -3.639945542      1.293      1.437
REMARK  1 active torsions:
REMARK  status: ('A' for Active; 'I' for Inactive)
REMARK    1  A    between atoms: C4_7  and  N2_8
ROOT
HETATM    1  N1  UNL     1     -19.363 -51.162 -35.978  1.00  0.00    -0.404 N
ATOM      2  H11 UNL     1     -20.045 -51.647 -35.396  1.00  0.00     0.155 HD
ATOM      3  H12 UNL     1     -19.901 -50.700 -36.712  1.00  0.00     0.155 HD
HETATM    4  C1  UNL     1     -18.112 -51.144 -35.813  1.00  0.00     0.000 C
HETATM    5  C2  UNL     1     -17.122 -50.440 -36.656  1.00  0.00     0.055 C
HETATM    6  C3  UNL     1     -16.160 -49.968 -35.584  1.00  0.00     0.040 C
HETATM    7  C4  UNL     1     -15.906 -51.318 -34.896  1.00  0.00     0.207 C
HETATM    8  C5  UNL     1     -17.332 -51.814 -34.748  1.00  0.00     0.157 C
HETATM    9 CL1  UNL     1     -17.980 -51.538 -33.136  1.00  0.00    -0.117 Cl
ENDROOT
BRANCH   7  10
HETATM   10  N2  UNL     1     -15.235 -51.175 -33.644  1.00  0.00    -0.073 N
ATOM     11  H23 UNL     1     -15.266 -52.042 -33.110  1.00  0.00     0.274 HD
ATOM     12  H22 UNL     1     -14.226 -51.098 -33.776  1.00  0.00     0.274 HD
ATOM     13  H21 UNL     1     -15.593 -50.392 -33.097  1.00  0.00     0.274 HD
ENDBRANCH   7  10
TORSDOF 1
ENDMDL