MODEL 2
REMARK VINA RESULT: -3.892556602      1.204      1.444
REMARK  2 active torsions:
REMARK  status: ('A' for Active; 'I' for Inactive)
REMARK    1  A    between atoms: C2_2  and  N2_6
REMARK    2  A    between atoms: N2_6  and  N3_8
ROOT
HETATM    1  N2  UNL     1     -15.502 -51.207 -34.187  1.00  0.00    -0.289 N
ATOM      2  H2  UNL     1     -14.684 -51.403 -34.765  1.00  0.00     0.188 HD
ENDROOT
BRANCH   1   3
HETATM    3  C2  UNL     1     -15.605 -51.864 -32.947  1.00  0.00     0.085 C
HETATM    4  C1  UNL     1     -16.791 -52.682 -32.652  1.00  0.00     0.090 C
HETATM    5  N1  UNL     1     -14.678 -51.752 -32.084  1.00  0.00    -0.388 N
ATOM      6  H12 UNL     1     -14.752 -52.229 -31.185  1.00  0.00     0.157 HD
ATOM      7  H11 UNL     1     -13.854 -51.185 -32.288  1.00  0.00     0.157 HD
ENDBRANCH   1   3
BRANCH   1   8
HETATM    8  N3  UNL     1     -16.445 -50.305 -34.676  1.00  0.00    -0.292 N
HETATM    9  C3  UNL     1     -17.012 -50.555 -35.785  1.00  0.00     0.091 C
HETATM   10  C4  UNL     1     -16.678 -51.775 -36.535  1.00  0.00     0.083 C
HETATM   11 CL1  UNL     1     -18.194 -49.452 -36.427  1.00  0.00    -0.068 Cl
ATOM     12  H3  UNL     1     -16.675 -49.460 -34.152  1.00  0.00     0.187 HD
ENDBRANCH   1   8
TORSDOF 2
ENDMDL