MODEL 3
REMARK VINA RESULT: -3.605978275      1.627      1.861
REMARK  1 active torsions:
REMARK  status: ('A' for Active; 'I' for Inactive)
REMARK    1  A    between atoms: N2_4  and  N3_6
ROOT
HETATM    1  C1  UNL     1     -17.280 -53.202 -37.658  1.00  0.00     0.086 C
HETATM    2  C2  UNL     1     -17.014 -51.798 -38.045  1.00  0.00     0.103 C
HETATM    3  N1  UNL     1     -16.373 -51.496 -39.278  1.00  0.00    -0.087 NA
HETATM    4  N2  UNL     1     -17.341 -50.795 -37.306  1.00  0.00    -0.291 N
ATOM      5  H2  UNL     1     -17.134 -49.847 -37.620  1.00  0.00     0.188 HD
ENDROOT
BRANCH   4   6
HETATM    6  N3  UNL     1     -17.970 -50.993 -36.085  1.00  0.00    -0.293 N
HETATM    7  C3  UNL     1     -17.412 -50.795 -34.944  1.00  0.00     0.091 C
HETATM    8  C4  UNL     1     -18.231 -51.056 -33.728  1.00  0.00     0.083 C
HETATM    9 CL1  UNL     1     -15.757 -50.242 -34.776  1.00  0.00    -0.068 Cl
ATOM     10  H3  UNL     1     -18.938 -51.315 -36.094  1.00  0.00     0.187 HD
ENDBRANCH   4   6
TORSDOF 1
ENDMDL