MODEL 1
REMARK VINA RESULT: -3.909008063      0.000      0.000
REMARK  1 active torsions:
REMARK  status: ('A' for Active; 'I' for Inactive)
REMARK    1  A    between atoms: N1_1  and  C1_5
ROOT
HETATM    1  C1  UNL     1     -16.677 -51.625 -34.138  1.00  0.00     0.282 C
HETATM    2  C2  UNL     1     -15.758 -50.524 -34.657  1.00  0.00     0.060 C
HETATM    3  C3  UNL     1     -16.203 -50.443 -36.098  1.00  0.00     0.061 C
HETATM    4  C4  UNL     1     -16.604 -51.842 -36.415  1.00  0.00     0.017 C
HETATM    5  C5  UNL     1     -16.928 -52.298 -37.617  1.00  0.00     0.109 C
HETATM    6 CL1  UNL     1     -16.928 -51.291 -39.038  1.00  0.00    -0.095 Cl
HETATM    7  N2  UNL     1     -16.578 -52.591 -35.207  1.00  0.00    -0.365 N
ATOM      8  H2  UNL     1     -16.504 -53.605 -35.114  1.00  0.00     0.161 HD
ENDROOT
BRANCH   1   9
HETATM    9  N1  UNL     1     -16.284 -52.118 -32.863  1.00  0.00    -0.058 N
ATOM     10  H13 UNL     1     -16.631 -51.517 -32.116  1.00  0.00     0.276 HD
ATOM     11  H12 UNL     1     -16.785 -52.976 -32.632  1.00  0.00     0.276 HD
ATOM     12  H11 UNL     1     -15.275 -52.252 -32.784  1.00  0.00     0.276 HD
ENDBRANCH   1   9
TORSDOF 1
ENDMDL