MODEL 3
REMARK VINA RESULT: -3.422410608      2.107      3.152
REMARK  0 active torsions:
REMARK  status: ('A' for Active; 'I' for Inactive)
ROOT
HETATM    1  C1  UNL     1     -16.343 -52.268 -32.818  1.00  0.00     0.040 C
HETATM    2  C2  UNL     1     -16.345 -51.761 -34.208  1.00  0.00     0.183 C
HETATM    3  C3  UNL     1     -15.555 -50.493 -34.412  1.00  0.00     0.035 C
HETATM    4  C4  UNL     1     -16.099 -50.033 -35.770  1.00  0.00     0.047 C
HETATM    5  C5  UNL     1     -17.318 -50.909 -36.027  1.00  0.00     0.258 C
HETATM    6  S1  UNL     1     -18.619 -49.978 -36.820  1.00  0.00    -0.062 SA
HETATM    7  N1  UNL     1     -17.677 -51.327 -34.661  1.00  0.00    -0.058 N
ATOM      8  H11 UNL     1     -18.150 -50.632 -34.083  1.00  0.00     0.279 HD
ATOM      9  H12 UNL     1     -18.430 -52.011 -34.579  1.00  0.00     0.279 HD
ENDROOT
TORSDOF 0
ENDMDL