MODEL 5
REMARK VINA RESULT: -3.850523421      2.498      3.243
REMARK  1 active torsions:
REMARK  status: ('A' for Active; 'I' for Inactive)
REMARK    1  A    between atoms: O1_1  and  C1_3
ROOT
HETATM    1  C1  UNL     1     -18.560 -50.632 -34.838  1.00  0.00     0.235 C
HETATM    2  C2  UNL     1     -17.653 -51.327 -33.919  1.00  0.00     0.055 C
HETATM    3  C3  UNL     1     -16.199 -51.210 -34.164  1.00  0.00     0.009 C
HETATM    4  C4  UNL     1     -15.824 -50.700 -35.529  1.00  0.00     0.046 C
HETATM    5  C5  UNL     1     -16.661 -49.456 -35.767  1.00  0.00     0.080 C
HETATM    6  N1  UNL     1     -18.011 -49.828 -35.855  1.00  0.00    -0.277 N
HETATM    7 CL1  UNL     1     -18.469 -50.317 -37.455  1.00  0.00     0.015 Cl
ENDROOT
BRANCH   1   8
HETATM    8  O1  UNL     1     -19.494 -49.836 -34.128  1.00  0.00    -0.376 OA
ATOM      9  H1  UNL     1     -19.098 -49.023 -33.837  1.00  0.00     0.212 HD
ENDBRANCH   1   8
TORSDOF 1
ENDMDL