MODEL 4
REMARK VINA RESULT: -6.573778428      1.193      1.345
REMARK  6 active torsions:
REMARK  status: ('A' for Active; 'I' for Inactive)
REMARK    1  A    between atoms: C2_2  and  C3_3
REMARK    2  A    between atoms: C5_5  and  C6_6
REMARK    3  A    between atoms: C9_9  and  O1_10
REMARK    4  A    between atoms: C11_13  and  O2_14
REMARK    5  A    between atoms: C14_18  and  C16_20
REMARK    6  A    between atoms: C16_20  and  O4_22
ROOT
HETATM    1  C3  UNL     1      16.711  -7.575  -6.992  1.00  0.00     0.023 A
HETATM    2  C4  UNL     1      15.975  -6.353  -7.295  1.00  0.00    -0.069 A
HETATM    3  C5  UNL     1      14.883  -6.094  -7.991  1.00  0.00     0.004 C
HETATM    4  C13 UNL     1      16.962  -5.574  -6.569  1.00  0.00     0.042 A
HETATM    5  C14 UNL     1      16.610  -4.698  -5.441  1.00  0.00     0.052 C
HETATM    6  C15 UNL     1      16.538  -3.265  -6.042  1.00  0.00     0.027 C
HETATM    7  C18 UNL     1      17.733  -4.571  -4.408  1.00  0.00     0.020 C
HETATM    8  C19 UNL     1      18.319  -5.865  -3.987  1.00  0.00     0.002 C
HETATM    9  C20 UNL     1      17.719  -7.067  -4.724  1.00  0.00     0.010 C
HETATM   10  C21 UNL     1      17.713  -6.808  -6.218  1.00  0.00    -0.028 A
HETATM   11  C22 UNL     1      19.134  -6.871  -6.780  1.00  0.00     0.016 C
ENDROOT
BRANCH   1  12
HETATM   12  C2  UNL     1      16.006  -8.688  -6.254  1.00  0.00     0.005 C
HETATM   13  C1  UNL     1      16.736  -9.980  -6.661  1.00  0.00     0.006 C
ENDBRANCH   1  12
BRANCH   3  14
HETATM   14  C6  UNL     1      14.085  -7.074  -8.689  1.00  0.00     0.003 C
HETATM   15  C7  UNL     1      13.693  -6.850  -9.939  1.00  0.00    -0.075 C
HETATM   16  C8  UNL     1      12.883  -7.875 -10.610  1.00  0.00     0.066 C
HETATM   17  C12 UNL     1      14.100  -5.573 -10.573  1.00  0.00     0.066 C
HETATM   18  C9  UNL     1      11.840  -7.305 -11.532  1.00  0.00     0.124 C
HETATM   19  C10 UNL     1      12.037  -5.848 -11.833  1.00  0.00     0.064 C
HETATM   20  C11 UNL     1      13.505  -5.545 -11.965  1.00  0.00     0.124 C
BRANCH  18  21
HETATM   21  O1  UNL     1      10.596  -7.412 -10.867  1.00  0.00    -0.395 OA
ATOM     22  H1  UNL     1       9.942  -7.600 -11.529  1.00  0.00     0.210 HD
ENDBRANCH  18  21
BRANCH  20  23
HETATM   23  O2  UNL     1      13.667  -4.312 -12.573  1.00  0.00    -0.395 OA
ATOM     24  H2  UNL     1      14.331  -3.816 -12.108  1.00  0.00     0.210 HD
ENDBRANCH  20  23
ENDBRANCH   3  14
BRANCH   5  25
HETATM   25  C16 UNL     1      15.354  -4.896  -4.747  1.00  0.00     0.267 C
HETATM   26  O3  UNL     1      14.992  -5.834  -4.011  1.00  0.00    -0.264 OA
BRANCH  25  27
HETATM   27  O4  UNL     1      14.381  -3.886  -4.920  1.00  0.00    -0.326 OA
HETATM   28  C17 UNL     1      13.015  -4.171  -4.982  1.00  0.00     0.213 C
ENDBRANCH  25  27
ENDBRANCH   5  25
TORSDOF 6
ENDMDL