MODEL 5
REMARK VINA RESULT: -7.002049017      3.642      5.959
REMARK  5 active torsions:
REMARK  status: ('A' for Active; 'I' for Inactive)
REMARK    1  A    between atoms: C4_4  and  C5_5
REMARK    2  A    between atoms: C5_5  and  C6_6
REMARK    3  A    between atoms: C6_6  and  O1_7
REMARK    4  A    between atoms: C6_6  and  C7_9
REMARK    5  A    between atoms: C13_15  and  O2_16
ROOT
HETATM    1  C7  UNL     1      16.084  -8.493  -5.933  1.00  0.00     0.023 C
HETATM    2  C8  UNL     1      16.458  -9.689  -6.760  1.00  0.00     0.009 C
HETATM    3  C9  UNL     1      17.515 -10.396  -5.886  1.00  0.00     0.011 C
HETATM    4  C10 UNL     1      16.767 -11.048  -4.781  1.00  0.00    -0.030 C
HETATM    5  C11 UNL     1      15.941 -12.158  -5.464  1.00  0.00     0.016 C
HETATM    6  C12 UNL     1      15.864 -10.150  -4.005  1.00  0.00     0.031 C
HETATM    7  C13 UNL     1      16.236 -10.158  -2.521  1.00  0.00     0.123 C
HETATM    8  C14 UNL     1      16.320 -11.576  -1.998  1.00  0.00     0.033 C
HETATM    9  C15 UNL     1      17.203 -12.480  -2.762  1.00  0.00     0.012 C
HETATM   10  C16 UNL     1      17.794 -11.797  -3.965  1.00  0.00    -0.040 C
HETATM   11  C17 UNL     1      18.350 -12.927  -4.847  1.00  0.00     0.015 C
HETATM   12  C18 UNL     1      18.976 -10.997  -3.534  1.00  0.00     0.015 C
HETATM   13  C19 UNL     1      15.651  -8.780  -4.535  1.00  0.00    -0.035 C
HETATM   14  C20 UNL     1      14.174  -8.404  -4.302  1.00  0.00     0.016 C
HETATM   15  C21 UNL     1      16.415  -7.764  -3.661  1.00  0.00     0.016 C
ENDROOT
BRANCH   1  16
HETATM   16  C6  UNL     1      15.107  -7.660  -6.732  1.00  0.00     0.125 C
BRANCH  16  17
HETATM   17  C5  UNL     1      15.207  -8.124  -8.172  1.00  0.00     0.065 C
BRANCH  17  18
HETATM   18  C4  UNL     1      13.946  -7.861  -8.950  1.00  0.00     0.139 C
HETATM   19  C3  UNL     1      14.024  -6.727  -9.915  1.00  0.00     0.076 C
HETATM   20  C2  UNL     1      12.812  -6.969 -10.739  1.00  0.00     0.010 C
HETATM   21  C1  UNL     1      12.182  -6.059 -11.451  1.00  0.00     0.025 C
HETATM   22  C22 UNL     1      12.508  -8.382 -10.571  1.00  0.00     0.289 C
HETATM   23  O3  UNL     1      13.483  -8.927  -9.709  1.00  0.00    -0.312 OA
HETATM   24  O4  UNL     1      11.538  -8.985 -11.113  1.00  0.00    -0.260 OA
ENDBRANCH  17  18
ENDBRANCH  16  17
BRANCH  16  25
HETATM   25  O1  UNL     1      15.443  -6.300  -6.659  1.00  0.00    -0.395 OA
ATOM     26  H1  UNL     1      15.535  -6.047  -5.748  1.00  0.00     0.210 HD
ENDBRANCH  16  25
ENDBRANCH   1  16
BRANCH   7  27
HETATM   27  O2  UNL     1      15.192  -9.608  -1.733  1.00  0.00    -0.395 OA
ATOM     28  H2  UNL     1      15.053  -8.693  -1.943  1.00  0.00     0.210 HD
ENDBRANCH   7  27
TORSDOF 5
ENDMDL