MODEL 5
REMARK VINA RESULT: -6.600755025      1.370      1.522
REMARK  4 active torsions:
REMARK  status: ('A' for Active; 'I' for Inactive)
REMARK    1  A    between atoms: C2_2  and  C3_6
REMARK    2  A    between atoms: C15_18  and  O1_19
REMARK    3  A    between atoms: C20_25  and  O2_26
REMARK    4  A    between atoms: O2_26  and  C21_27
ROOT
HETATM    1  C3  UNL     1      14.198  -2.999  -8.953  1.00  0.00     0.060 C
HETATM    2  C4  UNL     1      14.359  -2.484  -7.554  1.00  0.00     0.014 C
HETATM    3  C5  UNL     1      15.170  -3.314  -6.648  1.00  0.00     0.011 C
HETATM    4  C6  UNL     1      14.858  -4.768  -6.705  1.00  0.00    -0.030 C
HETATM    5  C7  UNL     1      13.466  -4.972  -6.171  1.00  0.00     0.016 C
HETATM    6  C8  UNL     1      15.009  -5.240  -8.125  1.00  0.00     0.025 C
HETATM    7  C9  UNL     1      14.751  -6.713  -8.276  1.00  0.00     0.008 C
HETATM    8  C10 UNL     1      15.345  -7.590  -7.246  1.00  0.00     0.007 C
HETATM    9  C11 UNL     1      15.327  -6.990  -5.865  1.00  0.00     0.005 C
HETATM   10  C12 UNL     1      15.911  -7.870  -4.819  1.00  0.00    -0.017 C
HETATM   11  C13 UNL     1      17.249  -8.426  -5.080  1.00  0.00     0.018 C
HETATM   12  C14 UNL     1      14.948  -9.065  -4.672  1.00  0.00     0.018 C
HETATM   13  C15 UNL     1      15.796  -7.131  -3.486  1.00  0.00     0.126 C
HETATM   14  C16 UNL     1      16.649  -5.911  -3.539  1.00  0.00     0.033 C
HETATM   15  C17 UNL     1      16.012  -4.966  -4.557  1.00  0.00     0.013 C
HETATM   16  C18 UNL     1      15.869  -5.592  -5.902  1.00  0.00    -0.032 C
HETATM   17  C19 UNL     1      17.228  -5.562  -6.545  1.00  0.00     0.016 C
HETATM   18  C20 UNL     1      14.179  -4.466  -9.105  1.00  0.00     0.146 C
ENDROOT
BRANCH   1  19
HETATM   19  C2  UNL     1      15.211  -2.294  -9.777  1.00  0.00    -0.018 C
HETATM   20  C1  UNL     1      16.425  -1.746  -9.139  1.00  0.00     0.063 C
HETATM   21  N1  UNL     1      15.061  -2.150 -11.029  1.00  0.00    -0.405 N
ATOM     22  H12 UNL     1      15.758  -1.665 -11.595  1.00  0.00     0.155 HD
ATOM     23  H11 UNL     1      14.223  -2.528 -11.469  1.00  0.00     0.155 HD
ENDBRANCH   1  19
BRANCH  18  24
HETATM   24  O2  UNL     1      14.528  -4.830 -10.427  1.00  0.00    -0.315 OA
BRANCH  24  25
HETATM   25  C21 UNL     1      13.641  -5.145 -11.417  1.00  0.00     0.255 C
HETATM   26  C22 UNL     1      12.448  -5.962 -11.090  1.00  0.00     0.126 C
HETATM   27  O3  UNL     1      13.856  -4.738 -12.578  1.00  0.00    -0.266 OA
ENDBRANCH  24  25
ENDBRANCH  18  24
BRANCH  13  28
HETATM   28  O1  UNL     1      16.075  -7.972  -2.416  1.00  0.00    -0.395 OA
ATOM     29  H1  UNL     1      16.617  -8.705  -2.685  1.00  0.00     0.210 HD
ENDBRANCH  13  28
TORSDOF 4
ENDMDL