MODEL 3
REMARK VINA RESULT: -6.278245387      3.408      6.242
REMARK  6 active torsions:
REMARK  status: ('A' for Active; 'I' for Inactive)
REMARK    1  A    between atoms: C2_2  and  C4_4
REMARK    2  A    between atoms: C11_11  and  O1_12
REMARK    3  A    between atoms: C12_14  and  O2_16
REMARK    4  A    between atoms: C14_18  and  O3_19
REMARK    5  A    between atoms: O3_19  and  C15_20
REMARK    6  A    between atoms: C15_20  and  C16_22
ROOT
HETATM    1  C4  UNL     1      14.180  -5.696  -8.160  1.00  0.00     0.022 C
HETATM    2  C5  UNL     1      14.555  -4.416  -8.899  1.00  0.00     0.010 C
HETATM    3  C6  UNL     1      15.300  -3.390  -8.188  1.00  0.00     0.001 C
HETATM    4  C7  UNL     1      15.618  -3.545  -6.750  1.00  0.00     0.010 C
HETATM    5  C8  UNL     1      14.985  -4.724  -6.111  1.00  0.00    -0.029 C
HETATM    6  C9  UNL     1      13.494  -4.327  -6.012  1.00  0.00     0.016 C
HETATM    7  C10 UNL     1      15.360  -5.116  -4.772  1.00  0.00     0.037 C
HETATM    8  C11 UNL     1      16.662  -4.893  -4.162  1.00  0.00     0.160 C
HETATM    9  C12 UNL     1      16.624  -6.024  -3.092  1.00  0.00     0.107 C
HETATM   10  C13 UNL     1      17.993  -6.049  -2.515  1.00  0.00     0.051 C
HETATM   11  C14 UNL     1      16.284  -7.141  -4.001  1.00  0.00     0.177 C
HETATM   12  C18 UNL     1      15.063  -6.604  -4.753  1.00  0.00    -0.007 C
HETATM   13  C19 UNL     1      13.782  -6.970  -4.074  1.00  0.00     0.018 C
HETATM   14  C20 UNL     1      15.002  -7.056  -6.177  1.00  0.00     0.023 C
HETATM   15  C21 UNL     1      15.182  -5.879  -7.086  1.00  0.00    -0.028 C
HETATM   16  C22 UNL     1      16.517  -5.938  -7.723  1.00  0.00     0.016 C
ENDROOT
BRANCH  11  17
HETATM   17  O3  UNL     1      16.137  -8.404  -3.515  1.00  0.00    -0.312 OA
BRANCH  17  18
HETATM   18  C15 UNL     1      16.577  -9.597  -3.972  1.00  0.00     0.258 C
HETATM   19  O4  UNL     1      16.125 -10.587  -3.376  1.00  0.00    -0.265 OA
BRANCH  18  20
HETATM   20  C16 UNL     1      17.522  -9.808  -5.088  1.00  0.00     0.106 C
HETATM   21  C17 UNL     1      16.784 -10.244  -6.352  1.00  0.00     0.015 C
ENDBRANCH  18  20
ENDBRANCH  17  18
ENDBRANCH  11  17
BRANCH   9  22
HETATM   22  O2  UNL     1      15.631  -5.620  -2.239  1.00  0.00    -0.385 OA
ATOM     23  H2  UNL     1      16.079  -5.029  -1.645  1.00  0.00     0.210 HD
ENDBRANCH   9  22
BRANCH   8  24
HETATM   24  O1  UNL     1      17.823  -5.039  -4.797  1.00  0.00    -0.392 OA
ATOM     25  H1  UNL     1      18.279  -4.337  -5.246  1.00  0.00     0.210 HD
ENDBRANCH   8  24
BRANCH   1  26
HETATM   26  C2  UNL     1      13.997  -6.812  -9.122  1.00  0.00    -0.088 C
HETATM   27  C1  UNL     1      13.766  -8.072  -8.883  1.00  0.00     0.014 C
HETATM   28  C3  UNL     1      14.071  -6.471 -10.612  1.00  0.00     0.043 C
ENDBRANCH   1  26
TORSDOF 6
ENDMDL