MODEL 1
REMARK VINA RESULT: -6.324105902      0.000      0.000
REMARK  4 active torsions:
REMARK  status: ('A' for Active; 'I' for Inactive)
REMARK    1  A    between atoms: C6_6  and  O1_7
REMARK    2  A    between atoms: C12_14  and  C13_15
REMARK    3  A    between atoms: C13_15  and  O2_16
REMARK    4  A    between atoms: O2_16  and  S1_17
ROOT
HETATM    1  C1  UNL     1      17.485  -9.071  -4.779  1.00  0.00     0.015 C
HETATM    2  C2  UNL     1      16.665  -7.989  -4.085  1.00  0.00    -0.043 C
HETATM    3  C3  UNL     1      17.506  -7.525  -2.901  1.00  0.00     0.015 C
HETATM    4  C4  UNL     1      15.446  -8.642  -3.520  1.00  0.00     0.011 C
HETATM    5  C5  UNL     1      14.236  -8.493  -4.390  1.00  0.00     0.033 C
HETATM    6  C6  UNL     1      13.918  -7.035  -4.513  1.00  0.00     0.127 C
HETATM    7  C7  UNL     1      15.095  -6.159  -4.811  1.00  0.00    -0.009 C
HETATM    8  C8  UNL     1      15.323  -5.339  -3.537  1.00  0.00     0.018 C
HETATM    9  C9  UNL     1      16.386  -6.870  -5.045  1.00  0.00     0.004 C
HETATM   10  C10 UNL     1      16.616  -7.302  -6.466  1.00  0.00     0.007 C
HETATM   11  C11 UNL     1      16.550  -6.088  -7.351  1.00  0.00     0.012 C
HETATM   12  C12 UNL     1      15.126  -5.576  -7.280  1.00  0.00    -0.013 C
HETATM   13  C14 UNL     1      15.066  -4.339  -8.165  1.00  0.00     0.012 C
HETATM   14  C15 UNL     1      14.730  -3.089  -7.402  1.00  0.00     0.001 C
HETATM   15  C16 UNL     1      13.519  -3.224  -6.523  1.00  0.00     0.000 C
HETATM   16  C17 UNL     1      13.437  -4.579  -5.842  1.00  0.00     0.006 C
HETATM   17  C18 UNL     1      14.838  -5.160  -5.895  1.00  0.00     0.007 C
ENDROOT
BRANCH  12  18
HETATM   18  C13 UNL     1      14.230  -6.590  -7.894  1.00  0.00     0.202 C
BRANCH  18  19
HETATM   19  O2  UNL     1      13.871  -6.087  -9.156  1.00  0.00    -0.256 OA
BRANCH  19  20
HETATM   20  S1  UNL     1      13.430  -7.294 -10.216  1.00  0.00     0.251 S
HETATM   21  O3  UNL     1      12.953  -8.534  -9.530  1.00  0.00    -0.572 OA
HETATM   22  O4  UNL     1      14.668  -7.680 -10.994  1.00  0.00    -0.572 OA
HETATM   23  O5  UNL     1      12.329  -6.721 -11.346  1.00  0.00    -0.572 OA
ENDBRANCH  19  20
ENDBRANCH  18  19
ENDBRANCH  12  18
BRANCH   6  24
HETATM   24  O1  UNL     1      13.267  -6.680  -3.317  1.00  0.00    -0.395 OA
ATOM     25  H1  UNL     1      12.906  -5.813  -3.464  1.00  0.00     0.210 HD
ENDBRANCH   6  24
TORSDOF 4
ENDMDL