MODEL 5
REMARK VINA RESULT: -6.516871120      4.754      8.555
REMARK  5 active torsions:
REMARK  status: ('A' for Active; 'I' for Inactive)
REMARK    1  A    between atoms: C2_2  and  C3_3
REMARK    2  A    between atoms: C2_2  and  C11_12
REMARK    3  A    between atoms: C7_8  and  C8_9
REMARK    4  A    between atoms: C11_12  and  O2_13
REMARK    5  A    between atoms: C12_16  and  O4_17
ROOT
HETATM    1  C11 UNL     1      16.905  -6.040  -6.641  1.00  0.00     0.176 C
HETATM    2  O3  UNL     1      18.128  -5.912  -5.891  1.00  0.00    -0.324 OA
HETATM    3  C12 UNL     1      18.379  -7.192  -5.399  1.00  0.00     0.266 C
HETATM    4  C13 UNL     1      17.188  -8.031  -5.643  1.00  0.00     0.062 C
HETATM    5  C14 UNL     1      16.877  -9.150  -4.786  1.00  0.00    -0.039 C
HETATM    6  C15 UNL     1      17.215 -10.459  -5.561  1.00  0.00     0.015 C
HETATM    7  C16 UNL     1      17.846  -9.292  -3.597  1.00  0.00     0.015 C
HETATM    8  C17 UNL     1      15.452  -9.364  -4.361  1.00  0.00     0.009 C
HETATM    9  C18 UNL     1      14.482  -8.337  -4.804  1.00  0.00     0.002 C
HETATM   10  C19 UNL     1      14.904  -7.510  -6.006  1.00  0.00     0.015 C
HETATM   11  C20 UNL     1      16.172  -6.865  -5.664  1.00  0.00     0.022 C
HETATM   12  C21 UNL     1      16.230  -6.237  -4.302  1.00  0.00     0.021 C
ENDROOT
BRANCH   1  13
HETATM   13  C2  UNL     1      16.406  -4.755  -7.101  1.00  0.00     0.056 C
HETATM   14  C1  UNL     1      16.907  -3.534  -6.365  1.00  0.00     0.016 C
BRANCH  13  15
HETATM   15  C3  UNL     1      14.927  -4.652  -7.219  1.00  0.00     0.069 C
HETATM   16  C4  UNL     1      14.329  -4.990  -8.532  1.00  0.00     0.132 C
HETATM   17  O1  UNL     1      13.832  -6.017  -8.955  1.00  0.00    -0.298 OA
HETATM   18  C5  UNL     1      14.419  -3.742  -9.395  1.00  0.00     0.079 C
HETATM   19  C6  UNL     1      14.218  -2.625  -8.390  1.00  0.00     0.013 C
HETATM   20  C7  UNL     1      14.384  -3.260  -7.009  1.00  0.00     0.002 C
BRANCH  20  21
HETATM   21  C8  UNL     1      13.022  -3.300  -6.379  1.00  0.00    -0.010 A
HETATM   22  C9  UNL     1      12.793  -2.476  -5.113  1.00  0.00     0.005 A
HETATM   23  C10 UNL     1      12.659  -3.952  -5.132  1.00  0.00     0.005 A
ENDBRANCH  20  21
ENDBRANCH  13  15
ENDBRANCH   1  13
BRANCH   1  24
HETATM   24  O2  UNL     1      17.337  -6.760  -7.769  1.00  0.00    -0.364 OA
ATOM     25  H2  UNL     1      16.859  -7.581  -7.790  1.00  0.00     0.213 HD
ENDBRANCH   1  24
BRANCH   3  26
HETATM   26  O4  UNL     1      19.520  -7.689  -6.075  1.00  0.00    -0.371 OA
ATOM     27  H4  UNL     1      19.910  -8.355  -5.522  1.00  0.00     0.212 HD
ENDBRANCH   3  26
TORSDOF 5
ENDMDL