MODEL 3
REMARK VINA RESULT: -8.120212452      1.418      1.908
REMARK  8 active torsions:
REMARK  status: ('A' for Active; 'I' for Inactive)
REMARK    1  A    between atoms: C3_3  and  O1_4
REMARK    2  A    between atoms: O1_4  and  C4_5
REMARK    3  A    between atoms: C4_5  and  C5_7
REMARK    4  A    between atoms: C9_11  and  C10_12
REMARK    5  A    between atoms: C13_15  and  O3_16
REMARK    6  A    between atoms: C15_19  and  C16_20
REMARK    7  A    between atoms: C18_22  and  O4_23
REMARK    8  A    between atoms: C21_27  and  C22_28
ROOT
HETATM    1  C1  UNL     1      13.545  -5.608  -4.290  1.00  0.00     0.099 C
HETATM    2  C2  UNL     1      13.051  -4.426  -4.379  1.00  0.00    -0.161 C
HETATM    3  C3  UNL     1      12.525  -3.169  -4.472  1.00  0.00     0.258 C
ENDROOT
BRANCH   3   4
HETATM    4  O1  UNL     1      12.920  -2.419  -5.666  1.00  0.00    -0.310 OA
BRANCH   4   5
HETATM    5  C4  UNL     1      14.263  -2.023  -5.778  1.00  0.00     0.268 C
HETATM    6  O2  UNL     1      14.773  -1.373  -4.839  1.00  0.00    -0.264 OA
BRANCH   5   7
HETATM    7  C5  UNL     1      15.002  -2.403  -7.018  1.00  0.00     0.049 C
HETATM    8  C6  UNL     1      16.175  -1.526  -7.148  1.00  0.00     0.026 C
HETATM    9  C7  UNL     1      15.489  -3.823  -6.834  1.00  0.00     0.020 C
HETATM   10  C8  UNL     1      15.620  -4.395  -8.230  1.00  0.00     0.011 C
HETATM   11  C9  UNL     1      14.364  -3.791  -8.889  1.00  0.00     0.025 C
HETATM   12  C22 UNL     1      14.090  -2.513  -8.181  1.00  0.00     0.017 C
BRANCH  11  13
HETATM   13  C10 UNL     1      14.576  -3.756 -10.322  1.00  0.00    -0.047 A
HETATM   14  C11 UNL     1      15.361  -2.704 -10.814  1.00  0.00     0.011 A
HETATM   15  C12 UNL     1      15.597  -2.606 -12.176  1.00  0.00     0.037 A
HETATM   16  C13 UNL     1      15.082  -3.509 -13.054  1.00  0.00     0.066 A
HETATM   17  C14 UNL     1      14.303  -4.551 -12.542  1.00  0.00     0.044 A
HETATM   18  C15 UNL     1      14.055  -4.669 -11.188  1.00  0.00    -0.044 A
BRANCH  16  19
HETATM   19  O3  UNL     1      15.295  -3.453 -14.444  1.00  0.00    -0.361 OA
ATOM     20  H3  UNL     1      14.688  -3.049 -15.053  1.00  0.00     0.217 HD
ENDBRANCH  16  19
BRANCH  18  21
HETATM   21  C16 UNL     1      13.239  -5.784 -10.668  1.00  0.00     0.026 C
HETATM   22  C17 UNL     1      12.090  -5.965 -11.674  1.00  0.00     0.041 C
HETATM   23  C18 UNL     1      11.312  -7.217 -11.486  1.00  0.00     0.118 C
HETATM   24  C19 UNL     1      12.106  -8.458 -11.245  1.00  0.00     0.032 C
HETATM   25  C20 UNL     1      13.109  -8.149 -10.118  1.00  0.00     0.008 C
HETATM   26  C21 UNL     1      14.006  -7.068 -10.682  1.00  0.00     0.000 C
BRANCH  23  27
HETATM   27  O4  UNL     1      10.528  -7.393 -12.631  1.00  0.00    -0.396 OA
ATOM     28  H4  UNL     1      10.100  -6.564 -12.810  1.00  0.00     0.210 HD
ENDBRANCH  23  27
ENDBRANCH  18  21
ENDBRANCH  11  13
ENDBRANCH   5   7
ENDBRANCH   4   5
ENDBRANCH   3   4
TORSDOF 8
ENDMDL