MODEL 5
REMARK VINA RESULT: -6.470079819      4.471      9.065
REMARK  5 active torsions:
REMARK  status: ('A' for Active; 'I' for Inactive)
REMARK    1  A    between atoms: C5_6  and  O2_7
REMARK    2  A    between atoms: O2_7  and  C6_8
REMARK    3  A    between atoms: C14_16  and  O3_17
REMARK    4  A    between atoms: C20_24  and  C21_25
REMARK    5  A    between atoms: C21_25  and  O4_26
ROOT
HETATM    1  O1  UNL     1      19.174   0.326  -9.298  1.00  0.00    -0.297 OA
HETATM    2  C1  UNL     1      19.151   0.731 -10.469  1.00  0.00     0.135 C
HETATM    3  C2  UNL     1      19.644  -0.215 -11.528  1.00  0.00     0.057 C
HETATM    4  C3  UNL     1      18.709  -1.336 -11.642  1.00  0.00     0.015 C
HETATM    5  C4  UNL     1      18.270  -1.914 -12.935  1.00  0.00     0.034 C
HETATM    6  C5  UNL     1      16.762  -2.065 -13.078  1.00  0.00     0.133 C
HETATM    7  C12 UNL     1      16.022  -0.997 -13.777  1.00  0.00     0.021 A
HETATM    8  C13 UNL     1      16.714   0.088 -14.489  1.00  0.00     0.045 A
HETATM    9  C14 UNL     1      16.213   1.160 -13.563  1.00  0.00     0.062 A
HETATM   10  C15 UNL     1      15.495   0.110 -12.839  1.00  0.00     0.045 A
HETATM   11  C16 UNL     1      17.194   2.049 -12.894  1.00  0.00     0.021 C
HETATM   12  C17 UNL     1      17.290   2.015 -11.411  1.00  0.00     0.020 C
HETATM   13  C18 UNL     1      18.649   2.101 -10.788  1.00  0.00     0.057 C
HETATM   14  C19 UNL     1      19.703   2.725 -11.613  1.00  0.00     0.024 C
HETATM   15  C20 UNL     1      19.758   1.929 -12.891  1.00  0.00    -0.017 C
HETATM   16  C22 UNL     1      20.146   0.500 -12.719  1.00  0.00     0.024 C
HETATM   17  C23 UNL     1      18.507   2.229 -13.628  1.00  0.00     0.019 C
ENDROOT
BRANCH   6  18
HETATM   18  O2  UNL     1      16.160  -2.259 -11.838  1.00  0.00    -0.345 OA
BRANCH  18  19
HETATM   19  C6  UNL     1      15.282  -3.194 -11.385  1.00  0.00     0.069 A
HETATM   20  C7  UNL     1      14.674  -4.113 -12.252  1.00  0.00     0.037 A
HETATM   21  C8  UNL     1      13.788  -5.056 -11.793  1.00  0.00     0.003 A
HETATM   22  C9  UNL     1      13.459  -5.142 -10.464  1.00  0.00     0.000 A
HETATM   23  C10 UNL     1      14.039  -4.253  -9.590  1.00  0.00     0.003 A
HETATM   24  C11 UNL     1      14.944  -3.292 -10.067  1.00  0.00     0.037 A
ENDBRANCH  18  19
ENDBRANCH   6  18
BRANCH   9  25
HETATM   25  O3  UNL     1      15.263   1.928 -14.321  1.00  0.00    -0.389 OA
ATOM     26  H3  UNL     1      14.910   2.575 -13.722  1.00  0.00     0.210 HD
ENDBRANCH   9  25
BRANCH  15  27
HETATM   27  C21 UNL     1      20.895   2.618 -13.689  1.00  0.00     0.173 C
BRANCH  27  28
HETATM   28  O4  UNL     1      22.005   2.807 -12.901  1.00  0.00    -0.400 OA
ATOM     29  H4  UNL     1      22.375   3.671 -13.037  1.00  0.00     0.209 HD
ENDBRANCH  27  28
ENDBRANCH  15  27
TORSDOF 5
ENDMDL