MODEL 3
REMARK VINA RESULT: -5.732151006      8.971     11.330
REMARK  4 active torsions:
REMARK  status: ('A' for Active; 'I' for Inactive)
REMARK    1  A    between atoms: S1_2  and  C2_3
REMARK    2  A    between atoms: C6_8  and  C7_9
REMARK    3  A    between atoms: C7_9  and  O2_10
REMARK    4  A    between atoms: C8_12  and  C10_14
ROOT
HETATM    1  C2  UNL     1      17.481   0.003 -13.895  1.00  0.00     0.015 C
HETATM    2  C3  UNL     1      17.628   0.806 -15.150  1.00  0.00     0.050 C
HETATM    3  C4  UNL     1      16.462   1.726 -15.265  1.00  0.00     0.008 C
HETATM    4  C5  UNL     1      16.046   2.425 -14.193  1.00  0.00     0.052 C
HETATM    5  O1  UNL     1      14.958   3.244 -14.422  1.00  0.00    -0.346 OA
HETATM    6  C6  UNL     1      13.969   3.741 -13.507  1.00  0.00     0.170 C
HETATM    7  C8  UNL     1      14.507   4.758 -12.580  1.00  0.00     0.073 C
HETATM    8  C9  UNL     1      13.708   4.863 -11.304  1.00  0.00     0.029 C
HETATM    9  C11 UNL     1      15.909   4.332 -12.147  1.00  0.00     0.024 C
HETATM   10  C12 UNL     1      16.019   2.877 -11.799  1.00  0.00     0.018 C
HETATM   11  C13 UNL     1      16.805   2.227 -12.903  1.00  0.00     0.010 C
HETATM   12  C14 UNL     1      18.161   2.899 -12.943  1.00  0.00     0.023 C
HETATM   13  C15 UNL     1      17.042   0.745 -12.691  1.00  0.00     0.019 C
HETATM   14  C16 UNL     1      15.821   0.076 -12.082  1.00  0.00     0.007 C
HETATM   15  C17 UNL     1      16.162  -1.373 -11.801  1.00  0.00     0.001 C
HETATM   16  C18 UNL     1      16.448  -2.134 -13.076  1.00  0.00     0.002 C
HETATM   17  C19 UNL     1      16.503  -1.132 -14.195  1.00  0.00     0.021 C
ENDROOT
BRANCH   7  18
HETATM   18  C10 UNL     1      14.659   6.116 -13.170  1.00  0.00     0.184 C
HETATM   19  O3  UNL     1      15.596   6.410 -13.992  1.00  0.00    -0.647 OA
HETATM   20  O4  UNL     1      13.809   7.184 -12.891  1.00  0.00    -0.647 OA
ENDBRANCH   7  18
BRANCH   6  21
HETATM   21  C7  UNL     1      12.805   4.169 -14.367  1.00  0.00     0.197 C
BRANCH  21  22
HETATM   22  O2  UNL     1      11.789   3.250 -14.447  1.00  0.00    -0.398 OA
ATOM     23  H2  UNL     1      11.663   2.877 -15.311  1.00  0.00     0.209 HD
ENDBRANCH  21  22
ENDBRANCH   6  21
BRANCH   1  24
HETATM   24  S1  UNL     1      19.096  -0.820 -13.660  1.00  0.00    -0.163 SA
HETATM   25  C1  UNL     1      19.815  -0.443 -12.054  1.00  0.00     0.090 C
ENDBRANCH   1  24
TORSDOF 4
ENDMDL