MODEL 4
REMARK VINA RESULT: -6.777903126      1.895      3.670
REMARK  2 active torsions:
REMARK  status: ('A' for Active; 'I' for Inactive)
REMARK    1  A    between atoms: C13_13  and  O1_14
REMARK    2  A    between atoms: O1_14  and  S1_15
ROOT
HETATM    1  C1  UNL     1      17.397  -6.591  -4.395  1.00  0.00     0.015 C
HETATM    2  C2  UNL     1      17.582  -5.665  -5.556  1.00  0.00    -0.040 C
HETATM    3  C3  UNL     1      18.507  -4.559  -5.102  1.00  0.00     0.009 C
HETATM    4  C4  UNL     1      19.910  -4.994  -5.353  1.00  0.00     0.001 C
HETATM    5  C5  UNL     1      20.133  -6.483  -5.298  1.00  0.00     0.000 C
HETATM    6  C6  UNL     1      19.296  -7.222  -6.348  1.00  0.00     0.006 C
HETATM    7  C7  UNL     1      18.244  -6.282  -6.757  1.00  0.00    -0.002 C
HETATM    8  C8  UNL     1      17.146  -6.747  -7.613  1.00  0.00    -0.005 C
HETATM    9  C9  UNL     1      16.314  -7.868  -7.142  1.00  0.00     0.006 C
HETATM   10  C10 UNL     1      15.248  -8.114  -8.186  1.00  0.00     0.006 C
HETATM   11  C11 UNL     1      14.385  -6.928  -8.453  1.00  0.00    -0.004 C
HETATM   12  C12 UNL     1      13.834  -7.159  -9.863  1.00  0.00     0.039 C
HETATM   13  C13 UNL     1      13.043  -5.995 -10.371  1.00  0.00     0.145 C
HETATM   14  C14 UNL     1      13.806  -4.693 -10.257  1.00  0.00     0.034 C
HETATM   15  C15 UNL     1      15.148  -4.999  -9.679  1.00  0.00     0.012 C
HETATM   16  C16 UNL     1      14.987  -5.599  -8.266  1.00  0.00    -0.036 C
HETATM   17  C17 UNL     1      13.972  -4.647  -7.613  1.00  0.00     0.016 C
HETATM   18  C18 UNL     1      16.274  -5.482  -7.597  1.00  0.00    -0.001 C
HETATM   19  C19 UNL     1      16.277  -5.157  -6.131  1.00  0.00     0.015 C
ENDROOT
BRANCH  13  20
HETATM   20  O1  UNL     1      12.813  -6.206 -11.729  1.00  0.00    -0.252 OA
BRANCH  20  21
HETATM   21  S1  UNL     1      11.191  -6.365 -12.091  1.00  0.00     0.251 S
HETATM   22  O2  UNL     1      10.608  -7.653 -11.584  1.00  0.00    -0.572 OA
HETATM   23  O3  UNL     1      10.462  -5.252 -11.386  1.00  0.00    -0.572 OA
HETATM   24  O4  UNL     1      10.907  -6.172 -13.737  1.00  0.00    -0.572 OA
ENDBRANCH  20  21
ENDBRANCH  13  20
TORSDOF 2
ENDMDL