MODEL 5
REMARK VINA RESULT: -6.669598033      2.885      4.776
REMARK  15 active torsions:
REMARK  status: ('A' for Active; 'I' for Inactive)
REMARK    1  A    between atoms: C2_2  and  C3_3
REMARK    2  A    between atoms: C3_3  and  C4_4
REMARK    3  A    between atoms: C4_4  and  C5_5
REMARK    4  A    between atoms: C5_5  and  O1_6
REMARK    5  A    between atoms: O1_6  and  C6_7
REMARK    6  A    between atoms: C6_7  and  C7_8
REMARK    7  A    between atoms: C7_8  and  C8_9
REMARK    8  A    between atoms: C9_10  and  N1_11
REMARK    9  A    between atoms: N1_11  and  C10_13
REMARK   10  A    between atoms: C10_13  and  O2_14
REMARK       I    between atoms: N5_26  and  C16_27
REMARK   11  A    between atoms: C16_27  and  C17_29
REMARK   12  A    between atoms: C17_29  and  N6_30
REMARK       I    between atoms: N6_30  and  C19_32
REMARK       I    between atoms: C19_32  and  N8_36
REMARK   13  A    between atoms: N8_36  and  P1_38
REMARK   14  A    between atoms: P1_38  and  O4_39
REMARK   15  A    between atoms: P1_38  and  O5_41
ROOT
HETATM    1  C8  UNL     1      13.822 -29.586  15.070  1.00  0.00     0.146 C
HETATM    2  C9  UNL     1      13.155 -30.851  14.886  1.00  0.00     0.061 C
HETATM    3  C11 UNL     1      12.753 -31.226  13.622  1.00  0.00     0.102 A
HETATM    4  C12 UNL     1      12.990 -30.286  12.520  1.00  0.00     0.079 A
HETATM    5  N2  UNL     1      12.810 -30.578  11.296  1.00  0.00    -0.348 N
ATOM      6  H2  UNL     1      12.992 -29.893  10.562  1.00  0.00     0.167 HD
HETATM    7  C13 UNL     1      12.358 -31.857  10.979  1.00  0.00     0.198 A
HETATM    8  N3  UNL     1      12.109 -32.749  11.835  1.00  0.00    -0.294 N
ATOM      9  H3  UNL     1      11.777 -33.662  11.526  1.00  0.00     0.188 HD
HETATM   10  N4  UNL     1      12.293 -32.490  13.297  1.00  0.00    -0.292 N
HETATM   11  C14 UNL     1      11.874 -33.518  14.140  1.00  0.00     0.178 C
HETATM   12  C15 UNL     1      13.195 -28.834  12.764  1.00  0.00     0.127 C
HETATM   13  N5  UNL     1      13.574 -28.534  14.042  1.00  0.00    -0.314 N
HETATM   14  C16 UNL     1      13.862 -27.187  14.415  1.00  0.00     0.242 C
HETATM   15  O3  UNL     1      14.085 -26.833  15.624  1.00  0.00    -0.271 OA
ENDROOT
BRANCH   1  16
HETATM   16  C7  UNL     1      15.350 -29.781  14.594  1.00  0.00     0.058 C
BRANCH  16  17
HETATM   17  C6  UNL     1      16.182 -30.521  15.586  1.00  0.00     0.170 C
BRANCH  17  18
HETATM   18  O1  UNL     1      16.521 -31.654  15.000  1.00  0.00    -0.391 OA
BRANCH  18  19
HETATM   19  C5  UNL     1      16.381 -32.224  13.875  1.00  0.00     0.167 C
BRANCH  19  20
HETATM   20  C4  UNL     1      17.522 -32.654  13.047  1.00  0.00     0.026 C
BRANCH  20  21
HETATM   21  C3  UNL     1      18.811 -31.930  13.325  1.00  0.00     0.002 C
BRANCH  21  22
HETATM   22  C2  UNL     1      19.876 -32.956  12.910  1.00  0.00    -0.004 C
HETATM   23  C1  UNL     1      19.261 -34.238  12.502  1.00  0.00     0.005 C
ENDBRANCH  21  22
ENDBRANCH  20  21
ENDBRANCH  19  20
ENDBRANCH  18  19
ENDBRANCH  17  18
ENDBRANCH  16  17
ENDBRANCH   1  16
BRANCH  14  24
HETATM   24  C17 UNL     1      13.950 -26.133  13.411  1.00  0.00     0.228 C
BRANCH  24  25
HETATM   25  N6  UNL     1      15.295 -25.755  12.999  1.00  0.00    -0.349 N
HETATM   26  C18 UNL     1      16.447 -25.880  13.845  1.00  0.00     0.153 C
HETATM   27  C19 UNL     1      15.444 -25.223  11.698  1.00  0.00     0.177 C
HETATM   28  N7  UNL     1      16.271 -24.257  11.362  1.00  0.00    -0.371 N
HETATM   29  N8  UNL     1      14.612 -25.714  10.569  1.00  0.00    -0.292 N
ATOM     30  H72 UNL     1      16.842 -23.919  12.137  1.00  0.00     0.159 HD
ATOM     31  H71 UNL     1      16.379 -23.872  10.423  1.00  0.00     0.159 HD
ATOM     32  H8  UNL     1      14.771 -26.595  10.081  1.00  0.00     0.171 HD
BRANCH  29  33
HETATM   33  P1  UNL     1      13.295 -24.567  10.172  1.00  0.00     0.286 P
BRANCH  33  34
HETATM   34  O4  UNL     1      11.790 -25.331  10.540  1.00  0.00    -0.333 OA
ATOM     35  H4  UNL     1      11.122 -24.657  10.589  1.00  0.00     0.219 HD
ENDBRANCH  33  34
BRANCH  33  36
HETATM   36  O5  UNL     1      13.453 -23.084  11.013  1.00  0.00    -0.333 OA
ATOM     37  H5  UNL     1      13.837 -22.404  10.473  1.00  0.00     0.219 HD
ENDBRANCH  33  36
ENDBRANCH  29  33
ENDBRANCH  24  25
ENDBRANCH  14  24
BRANCH   2  38
HETATM   38  N1  UNL     1      12.851 -31.812  15.877  1.00  0.00    -0.368 N
ATOM     39  H1  UNL     1      11.999 -32.356  15.739  1.00  0.00     0.161 HD
BRANCH  38  40
HETATM   40  C10 UNL     1      13.625 -32.109  17.075  1.00  0.00     0.287 C
BRANCH  40  41
HETATM   41  O2  UNL     1      14.384 -33.236  16.709  1.00  0.00    -0.382 OA
ATOM     42  H2  UNL     1      13.747 -33.813  16.304  1.00  0.00     0.211 HD
ENDBRANCH  40  41
ENDBRANCH  38  40
ENDBRANCH   2  38
TORSDOF 15
ENDMDL