MODEL 3
REMARK VINA RESULT: -7.286814245      3.257      8.929
REMARK  16 active torsions:
REMARK  status: ('A' for Active; 'I' for Inactive)
REMARK    1  A    between atoms: C2_2  and  C3_3
REMARK    2  A    between atoms: C3_3  and  C4_4
REMARK    3  A    between atoms: C4_4  and  N1_5
REMARK    4  A    between atoms: N1_5  and  C5_7
REMARK    5  A    between atoms: C5_7  and  N2_8
REMARK    6  A    between atoms: N2_8  and  C6_10
REMARK    7  A    between atoms: C6_10  and  C7_11
REMARK    8  A    between atoms: C7_11  and  O1_12
REMARK    9  A    between atoms: C8_14  and  C10_16
REMARK   10  A    between atoms: C12_23  and  N6_24
REMARK   11  A    between atoms: N6_24  and  C13_26
REMARK   12  A    between atoms: C13_26  and  C16_34
REMARK   13  A    between atoms: C14_27  and  C15_28
REMARK   14  A    between atoms: C15_28  and  P1_29
REMARK   15  A    between atoms: P1_29  and  O2_30
REMARK   16  A    between atoms: P1_29  and  O3_32
ROOT
HETATM    1  C10 UNL     1      11.359 -33.511  10.590  1.00  0.00     0.060 A
HETATM    2  N3  UNL     1      12.212 -32.927   9.759  1.00  0.00    -0.278 N
ATOM      3  H3  UNL     1      12.622 -32.073  10.138  1.00  0.00     0.188 HD
HETATM    4  N4  UNL     1      12.659 -33.230   8.496  1.00  0.00    -0.080 N
HETATM    5  C11 UNL     1      13.594 -32.302   7.969  1.00  0.00     0.242 A
HETATM    6  N5  UNL     1      14.098 -32.459   6.795  1.00  0.00    -0.185 N
ATOM      7  H5  UNL     1      14.767 -31.767   6.456  1.00  0.00     0.185 HD
HETATM    8  C12 UNL     1      13.768 -33.548   5.952  1.00  0.00     0.698 A
HETATM    9  N7  UNL     1      12.922 -34.422   6.382  1.00  0.00    -0.020 N
ATOM     10  H7  UNL     1      12.678 -35.209   5.780  1.00  0.00     0.203 HD
HETATM   11  C17 UNL     1      12.317 -34.326   7.668  1.00  0.00     0.718 A
HETATM   12  N8  UNL     1      11.494 -35.285   7.939  1.00  0.00    -0.199 N
ATOM     13  H8  UNL     1      11.380 -35.987   7.208  1.00  0.00     0.183 HD
HETATM   14  C18 UNL     1      10.729 -35.496   9.115  1.00  0.00     0.108 A
HETATM   15  C19 UNL     1      10.683 -34.733  10.233  1.00  0.00     0.049 A
ENDROOT
BRANCH   1  16
HETATM   16  C8  UNL     1      11.160 -32.866  11.843  1.00  0.00     0.010 C
HETATM   17  C5  UNL     1      11.684 -33.017  12.997  1.00  0.00     0.105 C
HETATM   18  C9  UNL     1      10.085 -31.760  11.798  1.00  0.00     0.054 C
BRANCH  17  19
HETATM   19  N1  UNL     1      11.184 -32.130  14.058  1.00  0.00    -0.376 N
ATOM     20  H1  UNL     1      10.182 -32.002  14.202  1.00  0.00     0.161 HD
BRANCH  19  21
HETATM   21  C4  UNL     1      12.123 -31.454  14.880  1.00  0.00     0.121 C
BRANCH  21  22
HETATM   22  C3  UNL     1      12.077 -29.961  14.674  1.00  0.00     0.019 C
BRANCH  22  23
HETATM   23  C2  UNL     1      10.638 -29.518  14.755  1.00  0.00    -0.003 C
HETATM   24  C1  UNL     1      10.361 -28.493  13.682  1.00  0.00     0.005 C
ENDBRANCH  22  23
ENDBRANCH  21  22
ENDBRANCH  19  21
ENDBRANCH  17  19
BRANCH  17  25
HETATM   25  N2  UNL     1      12.683 -33.920  13.402  1.00  0.00    -0.374 N
ATOM     26  H2  UNL     1      12.450 -34.678  14.043  1.00  0.00     0.161 HD
BRANCH  25  27
HETATM   27  C6  UNL     1      14.053 -33.782  12.913  1.00  0.00     0.147 C
BRANCH  27  28
HETATM   28  C7  UNL     1      15.002 -34.662  13.675  1.00  0.00     0.183 C
BRANCH  28  29
HETATM   29  O1  UNL     1      14.476 -35.931  13.918  1.00  0.00    -0.399 OA
ATOM     30  H1  UNL     1      14.812 -36.318  14.718  1.00  0.00     0.209 HD
ENDBRANCH  28  29
ENDBRANCH  27  28
ENDBRANCH  25  27
ENDBRANCH  17  25
ENDBRANCH   1  16
BRANCH   8  31
HETATM   31  N6  UNL     1      14.360 -33.680   4.645  1.00  0.00    -0.185 N
ATOM     32  H6  UNL     1      13.778 -33.979   3.863  1.00  0.00     0.184 HD
BRANCH  31  33
HETATM   33  C13 UNL     1      15.730 -33.405   4.419  1.00  0.00     0.122 C
HETATM   34  C14 UNL     1      16.482 -34.346   3.890  1.00  0.00     0.019 C
BRANCH  34  35
HETATM   35  C15 UNL     1      15.913 -35.660   3.537  1.00  0.00     0.122 C
BRANCH  35  36
HETATM   36  P1  UNL     1      16.182 -36.918   4.876  1.00  0.00     0.166 P
BRANCH  36  37
HETATM   37  O2  UNL     1      17.875 -37.181   5.150  1.00  0.00    -0.349 OA
ATOM     38  H2  UNL     1      18.079 -38.108   5.151  1.00  0.00     0.217 HD
ENDBRANCH  36  37
BRANCH  36  39
HETATM   39  O3  UNL     1      15.364 -36.459   6.336  1.00  0.00    -0.349 OA
ATOM     40  H3  UNL     1      14.673 -37.075   6.548  1.00  0.00     0.217 HD
ENDBRANCH  36  39
ENDBRANCH  35  36
ENDBRANCH  34  35
BRANCH  33  41
HETATM   41  C16 UNL     1      16.287 -32.092   4.774  1.00  0.00     0.227 C
HETATM   42  O4  UNL     1      16.966 -31.981   5.808  1.00  0.00    -0.643 OA
HETATM   43  O5  UNL     1      16.035 -31.016   3.944  1.00  0.00    -0.643 OA
ENDBRANCH  33  41
ENDBRANCH  31  33
ENDBRANCH   8  31
TORSDOF 16
ENDMDL