MODEL 4
REMARK VINA RESULT: -6.381234175      2.766      5.184
REMARK  18 active torsions:
REMARK  status: ('A' for Active; 'I' for Inactive)
REMARK    1  A    between atoms: C2_2  and  N1_3
REMARK    2  A    between atoms: C3_6  and  N3_7
REMARK    3  A    between atoms: C5_11  and  C6_12
REMARK    4  A    between atoms: N6_18  and  C10_19
REMARK    5  A    between atoms: C10_19  and  C11_20
REMARK    6  A    between atoms: C11_20  and  O1_21
REMARK    7  A    between atoms: C11_20  and  C12_23
REMARK    8  A    between atoms: C12_23  and  O2_24
REMARK    9  A    between atoms: O2_24  and  C13_25
REMARK   10  A    between atoms: C13_25  and  C14_26
REMARK   11  A    between atoms: C14_26  and  C15_27
REMARK   12  A    between atoms: C17_29  and  N7_30
REMARK   13  A    between atoms: N7_30  and  C18_32
REMARK   14  A    between atoms: C18_32  and  C19_33
REMARK   15  A    between atoms: C19_33  and  O3_34
REMARK   16  A    between atoms: O3_34  and  P1_35
REMARK   17  A    between atoms: P1_35  and  O4_36
REMARK   18  A    between atoms: P1_35  and  O5_38
ROOT
HETATM    1  N1  UNL     1      12.301 -32.469  10.639  1.00  0.00    -0.206 N
HETATM    2  N2  UNL     1      12.343 -33.213  11.798  1.00  0.00    -0.264 N
ATOM      3  H2  UNL     1      12.056 -34.191  11.755  1.00  0.00     0.190 HD
HETATM    4  C3  UNL     1      12.718 -32.750  12.912  1.00  0.00     0.140 A
HETATM    5  C5  UNL     1      13.165 -31.320  13.088  1.00  0.00     0.099 A
HETATM    6  C17 UNL     1      13.098 -30.590  11.884  1.00  0.00     0.135 A
HETATM    7  N8  UNL     1      12.686 -31.173  10.737  1.00  0.00    -0.264 N
ATOM      8  H8  UNL     1      12.664 -30.602   9.891  1.00  0.00     0.190 HD
ENDROOT
BRANCH   5   9
HETATM    9  C6  UNL     1      13.370 -30.964  14.314  1.00  0.00     0.125 A
HETATM   10  N5  UNL     1      12.130 -30.534  15.000  1.00  0.00    -0.351 N
HETATM   11  C7  UNL     1      11.994 -30.264  16.213  1.00  0.00     0.091 A
ATOM     12  H5  UNL     1      11.296 -30.448  14.419  1.00  0.00     0.166 HD
HETATM   13  C8  UNL     1      13.109 -30.356  17.129  1.00  0.00     0.034 A
HETATM   14  C9  UNL     1      14.247 -30.739  16.604  1.00  0.00     0.094 A
HETATM   15  N6  UNL     1      14.438 -31.061  15.213  1.00  0.00    -0.340 N
BRANCH  15  16
HETATM   16  C10 UNL     1      15.647 -31.714  14.857  1.00  0.00     0.164 C
BRANCH  16  17
HETATM   17  C11 UNL     1      16.631 -30.909  14.039  1.00  0.00     0.160 C
BRANCH  17  18
HETATM   18  O1  UNL     1      16.606 -29.561  14.161  1.00  0.00    -0.392 OA
ATOM     19  H1  UNL     1      16.821 -29.186  15.007  1.00  0.00     0.210 HD
ENDBRANCH  17  18
BRANCH  17  20
HETATM   20  C12 UNL     1      16.917 -31.528  12.711  1.00  0.00     0.200 C
BRANCH  20  21
HETATM   21  O2  UNL     1      17.215 -32.847  12.946  1.00  0.00    -0.389 OA
BRANCH  21  22
HETATM   22  C13 UNL     1      18.517 -33.228  12.847  1.00  0.00     0.167 C
BRANCH  22  23
HETATM   23  C14 UNL     1      18.719 -34.693  12.535  1.00  0.00     0.026 C
BRANCH  23  24
HETATM   24  C15 UNL     1      20.158 -34.990  12.144  1.00  0.00    -0.002 C
HETATM   25  C16 UNL     1      20.221 -36.505  11.898  1.00  0.00     0.005 C
ENDBRANCH  23  24
ENDBRANCH  22  23
ENDBRANCH  21  22
ENDBRANCH  20  21
ENDBRANCH  17  20
ENDBRANCH  16  17
ENDBRANCH  15  16
ENDBRANCH   5   9
BRANCH   4  26
HETATM   26  N3  UNL     1      12.706 -33.651  14.016  1.00  0.00    -0.339 N
HETATM   27  C4  UNL     1      11.691 -33.911  14.730  1.00  0.00     0.191 C
HETATM   28  N4  UNL     1      10.455 -33.285  14.448  1.00  0.00    -0.097 NA
ATOM     29  H3  UNL     1      13.580 -34.122  14.249  1.00  0.00     0.167 HD
ENDBRANCH   4  26
BRANCH   6  30
HETATM   30  N7  UNL     1      13.155 -29.209  11.667  1.00  0.00    -0.372 N
ATOM     31  H7  UNL     1      12.763 -28.850  10.796  1.00  0.00     0.161 HD
BRANCH  30  32
HETATM   32  C18 UNL     1      13.730 -28.258  12.585  1.00  0.00     0.148 C
BRANCH  32  33
HETATM   33  C19 UNL     1      12.899 -27.178  13.129  1.00  0.00     0.197 C
BRANCH  33  34
HETATM   34  O3  UNL     1      11.993 -27.560  14.091  1.00  0.00    -0.316 OA
BRANCH  34  35
HETATM   35  P1  UNL     1      10.387 -27.670  13.441  1.00  0.00     0.329 P
BRANCH  35  36
HETATM   36  O4  UNL     1       9.259 -27.314  14.732  1.00  0.00    -0.328 OA
ATOM     37  H4  UNL     1       8.450 -27.012  14.337  1.00  0.00     0.219 HD
ENDBRANCH  35  36
BRANCH  35  38
HETATM   38  O5  UNL     1      10.088 -29.275  12.826  1.00  0.00    -0.328 OA
ATOM     39  H5  UNL     1       9.155 -29.421  12.718  1.00  0.00     0.219 HD
ENDBRANCH  35  38
ENDBRANCH  34  35
ENDBRANCH  33  34
ENDBRANCH  32  33
ENDBRANCH  30  32
ENDBRANCH   6  30
BRANCH   1  40
HETATM   40  C2  UNL     1      11.863 -33.050   9.397  1.00  0.00     0.126 C
HETATM   41  C1  UNL     1      10.940 -33.972   9.328  1.00  0.00     0.033 C
ENDBRANCH   1  40
TORSDOF 18
ENDMDL