MODEL 1
REMARK VINA RESULT: -7.227637092      0.000      0.000
REMARK  15 active torsions:
REMARK  status: ('A' for Active; 'I' for Inactive)
REMARK    1  A    between atoms: C2_2  and  C3_3
REMARK    2  A    between atoms: C2_2  and  N8_31
REMARK    3  A    between atoms: C3_3  and  C4_4
REMARK    4  A    between atoms: C4_4  and  N1_5
REMARK       I    between atoms: N1_5  and  C5_7
REMARK    5  A    between atoms: C5_7  and  C6_9
REMARK    6  A    between atoms: C6_9  and  O2_10
REMARK    7  A    between atoms: C6_9  and  C7_12
REMARK    8  A    between atoms: C7_12  and  N2_13
REMARK    9  A    between atoms: C10_18  and  N4_19
REMARK   10  A    between atoms: N8_31  and  C16_33
REMARK   11  A    between atoms: C16_33  and  C17_34
REMARK   12  A    between atoms: C17_34  and  C18_35
REMARK   13  A    between atoms: C18_35  and  P1_36
REMARK   14  A    between atoms: P1_36  and  O4_37
REMARK   15  A    between atoms: P1_36  and  O5_39
ROOT
HETATM    1  C6  UNL     1      14.180 -33.364  15.093  1.00  0.00     0.228 C
ENDROOT
BRANCH   1   2
HETATM    2  C5  UNL     1      14.916 -32.844  13.927  1.00  0.00     0.248 C
HETATM    3  N1  UNL     1      14.719 -31.516  13.497  1.00  0.00    -0.359 N
ATOM      4  H1  UNL     1      14.069 -30.907  13.993  1.00  0.00     0.162 HD
HETATM    5  O1  UNL     1      15.714 -33.588  13.322  1.00  0.00    -0.271 OA
BRANCH   3   6
HETATM    6  C4  UNL     1      15.446 -31.024  12.347  1.00  0.00     0.124 C
BRANCH   6   7
HETATM    7  C3  UNL     1      14.525 -30.423  11.322  1.00  0.00     0.044 C
BRANCH   7   8
HETATM    8  C2  UNL     1      13.464 -31.402  10.820  1.00  0.00     0.078 C
HETATM    9  C1  UNL     1      13.493 -31.588   9.348  1.00  0.00     0.032 C
BRANCH   8  10
HETATM   10  N8  UNL     1      12.210 -30.999  11.323  1.00  0.00    -0.398 N
ATOM     11  H8  UNL     1      11.950 -30.015  11.264  1.00  0.00     0.159 HD
BRANCH  10  12
HETATM   12  C16 UNL     1      11.315 -31.898  11.898  1.00  0.00     0.056 C
BRANCH  12  13
HETATM   13  C17 UNL     1      10.579 -32.884  11.078  1.00  0.00     0.053 C
BRANCH  13  14
HETATM   14  C18 UNL     1      11.291 -34.225  10.918  1.00  0.00     0.098 C
BRANCH  14  15
HETATM   15  P1  UNL     1      10.296 -35.162   9.631  1.00  0.00     0.163 P
BRANCH  15  16
HETATM   16  O4  UNL     1      11.388 -36.184   8.736  1.00  0.00    -0.350 OA
ATOM     17  H4  UNL     1      10.972 -36.414   7.914  1.00  0.00     0.217 HD
ENDBRANCH  15  16
BRANCH  15  18
HETATM   18  O5  UNL     1       9.126 -36.177  10.382  1.00  0.00    -0.350 OA
ATOM     19  H5  UNL     1       8.965 -36.953   9.858  1.00  0.00     0.217 HD
ENDBRANCH  15  18
ENDBRANCH  14  15
ENDBRANCH  13  14
ENDBRANCH  12  13
ENDBRANCH  10  12
ENDBRANCH   8  10
ENDBRANCH   7   8
ENDBRANCH   6   7
ENDBRANCH   3   6
ENDBRANCH   1   2
BRANCH   1  20
HETATM   20  O2  UNL     1      13.884 -34.723  14.842  1.00  0.00    -0.384 OA
ATOM     21  H2  UNL     1      13.166 -34.972  15.414  1.00  0.00     0.210 HD
ENDBRANCH   1  20
BRANCH   1  22
HETATM   22  C7  UNL     1      12.830 -32.689  15.235  1.00  0.00     0.172 C
BRANCH  22  23
HETATM   23  N2  UNL     1      12.857 -31.888  16.448  1.00  0.00    -0.325 N
HETATM   24  C8  UNL     1      13.236 -32.262  17.680  1.00  0.00     0.184 A
HETATM   25  N3  UNL     1      13.126 -31.233  18.544  1.00  0.00    -0.358 N
HETATM   26  C9  UNL     1      12.672 -30.181  17.877  1.00  0.00     0.138 A
ATOM     27  H3  UNL     1      13.352 -31.259  19.538  1.00  0.00     0.166 HD
HETATM   28  C10 UNL     1      12.503 -30.584  16.569  1.00  0.00     0.135 A
BRANCH  28  29
HETATM   29  N4  UNL     1      12.026 -29.770  15.497  1.00  0.00    -0.242 N
HETATM   30  C11 UNL     1      10.688 -29.783  15.242  1.00  0.00     0.212 A
HETATM   31  N5  UNL     1      10.196 -29.026  14.238  1.00  0.00    -0.186 N
HETATM   32  C12 UNL     1      10.992 -28.255  13.476  1.00  0.00     0.693 A
ATOM     33  H5  UNL     1       9.193 -29.040  14.051  1.00  0.00     0.185 HD
HETATM   34  N6  UNL     1      10.779 -27.421  12.436  1.00  0.00    -0.200 N
HETATM   35  N7  UNL     1      12.332 -28.233  13.720  1.00  0.00    -0.105 N
HETATM   36  C13 UNL     1      11.940 -26.875  12.018  1.00  0.00     0.124 A
ATOM     37  H6  UNL     1       9.867 -27.230  12.023  1.00  0.00     0.183 HD
HETATM   38  C14 UNL     1      12.905 -27.400  12.839  1.00  0.00     0.137 A
HETATM   39  C15 UNL     1      12.803 -29.001  14.733  1.00  0.00     0.354 A
HETATM   40  O3  UNL     1      14.054 -28.989  14.973  1.00  0.00    -0.245 OA
ENDBRANCH  28  29
ENDBRANCH  22  23
ENDBRANCH   1  22
TORSDOF 15
ENDMDL