MODEL 3
REMARK VINA RESULT: -7.247887244      1.691      3.943
REMARK  15 active torsions:
REMARK  status: ('A' for Active; 'I' for Inactive)
REMARK    1  A    between atoms: C2_2  and  C4_4
REMARK    2  A    between atoms: N1_6  and  C6_7
REMARK    3  A    between atoms: C6_7  and  O1_8
REMARK    4  A    between atoms: C6_7  and  N2_10
REMARK    5  A    between atoms: C9_13  and  C11_15
REMARK    6  A    between atoms: C11_15  and  C12_16
REMARK    7  A    between atoms: C12_16  and  N3_17
REMARK    8  A    between atoms: N3_17  and  C13_19
REMARK    9  A    between atoms: C16_22  and  N4_23
REMARK   10  A    between atoms: N4_23  and  N5_25
REMARK   11  A    between atoms: N5_25  and  C17_26
REMARK   12  A    between atoms: C17_26  and  C18_27
REMARK   13  A    between atoms: C18_27  and  P1_28
REMARK   14  A    between atoms: P1_28  and  O2_29
REMARK   15  A    between atoms: P1_28  and  O3_31
ROOT
HETATM    1  C12 UNL     1      11.045 -33.880  10.002  1.00  0.00     0.126 C
ENDROOT
BRANCH   1   2
HETATM    2  C11 UNL     1      11.034 -32.623  10.848  1.00  0.00     0.081 C
BRANCH   2   3
HETATM    3  C9  UNL     1      11.876 -32.726  12.089  1.00  0.00     0.147 C
HETATM    4  N1  UNL     1      12.488 -31.442  12.496  1.00  0.00    -0.313 N
HETATM    5  C5  UNL     1      12.132 -30.663  13.644  1.00  0.00     0.155 C
HETATM    6  C4  UNL     1      12.702 -31.201  14.936  1.00  0.00     0.108 C
HETATM    7  N8  UNL     1      11.962 -32.398  15.275  1.00  0.00    -0.330 N
HETATM    8  C19 UNL     1      11.102 -33.164  14.480  1.00  0.00     0.363 C
ATOM      9  H8  UNL     1      12.085 -32.732  16.231  1.00  0.00     0.165 HD
HETATM   10  O4  UNL     1      10.985 -33.169  13.107  1.00  0.00    -0.272 OA
HETATM   11  O5  UNL     1      10.333 -33.952  15.112  1.00  0.00    -0.238 OA
HETATM   12  C10 UNL     1      12.898 -33.804  11.891  1.00  0.00     0.072 C
BRANCH   4  13
HETATM   13  C6  UNL     1      13.500 -31.006  11.677  1.00  0.00     0.218 C
BRANCH  13  14
HETATM   14  O1  UNL     1      13.052 -30.323  10.629  1.00  0.00    -0.332 OA
ATOM     15  H1  UNL     1      13.204 -29.388  10.708  1.00  0.00     0.220 HD
ENDBRANCH  13  14
BRANCH  13  16
HETATM   16  N2  UNL     1      14.884 -31.081  11.639  1.00  0.00    -0.356 N
HETATM   17  C7  UNL     1      15.602 -30.629  10.396  1.00  0.00     0.152 C
HETATM   18  C8  UNL     1      15.756 -31.552  12.650  1.00  0.00     0.152 C
ENDBRANCH  13  16
ENDBRANCH   4  13
BRANCH   6  19
HETATM   19  C2  UNL     1      12.467 -30.123  15.992  1.00  0.00     0.002 C
HETATM   20  C1  UNL     1      13.496 -29.044  15.864  1.00  0.00     0.011 C
HETATM   21  C3  UNL     1      12.360 -30.707  17.364  1.00  0.00     0.011 C
ENDBRANCH   6  19
ENDBRANCH   2   3
ENDBRANCH   1   2
BRANCH   1  22
HETATM   22  N3  UNL     1      11.078 -33.634   8.588  1.00  0.00    -0.375 N
ATOM     23  H3  UNL     1      10.185 -33.566   8.099  1.00  0.00     0.161 HD
BRANCH  22  24
HETATM   24  C13 UNL     1      12.270 -33.478   7.817  1.00  0.00     0.115 A
HETATM   25  C14 UNL     1      13.110 -32.402   7.981  1.00  0.00     0.053 A
HETATM   26  C15 UNL     1      14.261 -32.330   7.212  1.00  0.00     0.054 A
HETATM   27  C16 UNL     1      14.552 -33.312   6.308  1.00  0.00     0.131 A
HETATM   28  N6  UNL     1      13.696 -34.336   6.191  1.00  0.00    -0.283 N
HETATM   29  N7  UNL     1      12.613 -34.413   6.909  1.00  0.00    -0.284 N
ATOM     30  H6  UNL     1      13.898 -35.076   5.519  1.00  0.00     0.188 HD
ATOM     31  H7  UNL     1      11.998 -35.215   6.779  1.00  0.00     0.188 HD
BRANCH  27  32
HETATM   32  N4  UNL     1      15.731 -33.266   5.500  1.00  0.00    -0.288 N
ATOM     33  H4  UNL     1      15.758 -32.671   4.671  1.00  0.00     0.184 HD
BRANCH  32  34
HETATM   34  N5  UNL     1      16.834 -34.026   5.838  1.00  0.00    -0.139 NA
BRANCH  34  35
HETATM   35  C17 UNL     1      17.687 -34.306   4.696  1.00  0.00     0.144 C
BRANCH  35  36
HETATM   36  C18 UNL     1      17.872 -35.788   4.517  1.00  0.00     0.111 C
BRANCH  36  37
HETATM   37  P1  UNL     1      16.231 -36.648   4.569  1.00  0.00     0.164 P
BRANCH  37  38
HETATM   38  O2  UNL     1      15.694 -36.890   6.190  1.00  0.00    -0.350 OA
ATOM     39  H2  UNL     1      14.789 -36.625   6.301  1.00  0.00     0.217 HD
ENDBRANCH  37  38
BRANCH  37  40
HETATM   40  O3  UNL     1      15.058 -35.690   3.700  1.00  0.00    -0.350 OA
ATOM     41  H3  UNL     1      14.466 -35.284   4.323  1.00  0.00     0.217 HD
ENDBRANCH  37  40
ENDBRANCH  36  37
ENDBRANCH  35  36
ENDBRANCH  34  35
ENDBRANCH  32  34
ENDBRANCH  27  32
ENDBRANCH  22  24
ENDBRANCH   1  22
TORSDOF 15
ENDMDL