MODEL 1
REMARK VINA RESULT: -6.584946978      0.000      0.000
REMARK  19 active torsions:
REMARK  status: ('A' for Active; 'I' for Inactive)
REMARK    1  A    between atoms: C2_2  and  C3_3
REMARK    2  A    between atoms: C2_2  and  C5_10
REMARK    3  A    between atoms: C3_3  and  C4_4
REMARK    4  A    between atoms: C4_4  and  P1_5
REMARK    5  A    between atoms: P1_5  and  O1_6
REMARK    6  A    between atoms: P1_5  and  O2_8
REMARK       I    between atoms: C5_10  and  N1_12
REMARK    7  A    between atoms: N1_12  and  C6_14
REMARK    8  A    between atoms: C6_14  and  C7_15
REMARK    9  A    between atoms: C6_14  and  N8_35
REMARK   10  A    between atoms: C7_15  and  C8_16
REMARK   11  A    between atoms: C8_16  and  N2_17
REMARK   12  A    between atoms: N2_17  and  C9_19
REMARK   13  A    between atoms: C9_19  and  N7_31
REMARK   14  A    between atoms: N7_31  and  C14_33
REMARK   15  A    between atoms: N8_35  and  C15_36
REMARK   16  A    between atoms: N8_35  and  C17_38
REMARK   17  A    between atoms: C17_38  and  C18_39
REMARK   18  A    between atoms: C18_39  and  C19_40
REMARK   19  A    between atoms: C19_40  and  O5_41
ROOT
HETATM    1  C6  UNL     1      13.458 -28.724  12.657  1.00  0.00     0.325 C
ENDROOT
BRANCH   1   2
HETATM    2  N1  UNL     1      13.322 -29.899  11.714  1.00  0.00    -0.326 N
HETATM    3  C5  UNL     1      12.355 -30.854  11.665  1.00  0.00     0.260 C
HETATM    4  O3  UNL     1      11.357 -30.871  12.416  1.00  0.00    -0.267 OA
ATOM      5  H1  UNL     1      14.060 -29.987  11.016  1.00  0.00     0.165 HD
BRANCH   3   6
HETATM    6  C2  UNL     1      12.413 -31.968  10.699  1.00  0.00     0.068 C
HETATM    7  C1  UNL     1      13.023 -31.722   9.478  1.00  0.00     0.038 C
BRANCH   6   8
HETATM    8  C3  UNL     1      11.942 -33.240  10.834  1.00  0.00    -0.107 C
BRANCH   8   9
HETATM    9  C4  UNL     1      11.529 -34.445  10.973  1.00  0.00     0.121 C
BRANCH   9  10
HETATM   10  P1  UNL     1      10.484 -35.194   9.612  1.00  0.00     0.197 P
BRANCH  10  11
HETATM   11  O1  UNL     1       9.224 -36.158  10.318  1.00  0.00    -0.346 OA
ATOM     12  H1  UNL     1       9.217 -36.027  11.259  1.00  0.00     0.217 HD
ENDBRANCH  10  11
BRANCH  10  13
HETATM   13  O2  UNL     1      11.429 -36.191   8.585  1.00  0.00    -0.346 OA
ATOM     14  H2  UNL     1      11.003 -37.026   8.433  1.00  0.00     0.217 HD
ENDBRANCH  10  13
ENDBRANCH   9  10
ENDBRANCH   8   9
ENDBRANCH   6   8
ENDBRANCH   3   6
ENDBRANCH   1   2
BRANCH   1  15
HETATM   15  C7  UNL     1      14.698 -28.893  13.398  1.00  0.00     0.077 C
BRANCH  15  16
HETATM   16  C8  UNL     1      14.747 -28.713  14.890  1.00  0.00     0.125 C
BRANCH  16  17
HETATM   17  N2  UNL     1      14.493 -29.924  15.604  1.00  0.00    -0.373 N
ATOM     18  H2  UNL     1      15.273 -30.328  16.123  1.00  0.00     0.161 HD
BRANCH  17  19
HETATM   19  C9  UNL     1      13.227 -30.632  15.658  1.00  0.00     0.151 C
HETATM   20  C10 UNL     1      13.220 -31.844  15.072  1.00  0.00     0.167 A
HETATM   21  N3  UNL     1      12.070 -32.639  15.050  1.00  0.00    -0.268 N
HETATM   22  N6  UNL     1      14.392 -32.418  14.492  1.00  0.00    -0.327 N
HETATM   23  N4  UNL     1      12.077 -33.823  14.534  1.00  0.00    -0.240 N
ATOM     24  H3  UNL     1      11.206 -32.275  15.450  1.00  0.00     0.190 HD
HETATM   25  N5  UNL     1      13.223 -34.362  13.980  1.00  0.00    -0.275 N
ATOM     26  H4  UNL     1      11.218 -34.372  14.535  1.00  0.00     0.208 HD
HETATM   27  C11 UNL     1      14.350 -33.749  13.927  1.00  0.00     0.094 A
ATOM     28  H5  UNL     1      13.170 -35.302  13.589  1.00  0.00     0.189 HD
HETATM   29  C12 UNL     1      15.521 -34.400  13.323  1.00  0.00     0.090 C
ATOM     30  H6  UNL     1      15.263 -31.888  14.475  1.00  0.00     0.169 HD
BRANCH  19  31
HETATM   31  N7  UNL     1      12.074 -30.094  16.198  1.00  0.00    -0.313 N
HETATM   32  C13 UNL     1      11.920 -30.092  17.680  1.00  0.00     0.160 C
BRANCH  31  33
HETATM   33  C14 UNL     1      10.957 -29.580  15.526  1.00  0.00     0.356 C
HETATM   34  O4  UNL     1       9.831 -29.401  16.149  1.00  0.00    -0.283 OA
ENDBRANCH  31  33
ENDBRANCH  19  31
ENDBRANCH  17  19
ENDBRANCH  16  17
ENDBRANCH  15  16
ENDBRANCH   1  15
BRANCH   1  35
HETATM   35  N8  UNL     1      13.189 -27.605  11.847  1.00  0.00     0.111 N
BRANCH  35  36
HETATM   36  C15 UNL     1      11.916 -26.990  12.256  1.00  0.00     0.270 C
HETATM   37  C16 UNL     1      11.891 -26.571  13.680  1.00  0.00     0.037 C
ENDBRANCH  35  36
BRANCH  35  38
HETATM   38  C17 UNL     1      14.162 -26.636  11.561  1.00  0.00     0.277 C
BRANCH  38  39
HETATM   39  C18 UNL     1      13.658 -25.459  10.737  1.00  0.00     0.056 C
BRANCH  39  40
HETATM   40  C19 UNL     1      14.075 -24.168  11.446  1.00  0.00     0.165 C
BRANCH  40  41
HETATM   41  O5  UNL     1      13.361 -23.106  10.832  1.00  0.00    -0.401 OA
ATOM     42  H5  UNL     1      13.726 -22.991   9.963  1.00  0.00     0.209 HD
ENDBRANCH  40  41
ENDBRANCH  39  40
ENDBRANCH  38  39
ENDBRANCH  35  38
ENDBRANCH   1  35
TORSDOF 19
ENDMDL