MODEL 1
REMARK VINA RESULT: -6.774159048      0.000      0.000
REMARK  15 active torsions:
REMARK  status: ('A' for Active; 'I' for Inactive)
REMARK    1  A    between atoms: C2_2  and  N1_3
REMARK    2  A    between atoms: C2_2  and  C3_7
REMARK    3  A    between atoms: C3_7  and  C4_8
REMARK       I    between atoms: C4_8  and  N2_10
REMARK    4  A    between atoms: N2_10  and  C5_12
REMARK    5  A    between atoms: C5_12  and  C6_13
REMARK    6  A    between atoms: C8_19  and  C9_20
REMARK    7  A    between atoms: C9_20  and  N6_34
REMARK    8  A    between atoms: N5_21  and  C10_23
REMARK    9  A    between atoms: C13_26  and  P1_27
REMARK   10  A    between atoms: P1_27  and  O2_28
REMARK   11  A    between atoms: P1_27  and  O3_30
REMARK       I    between atoms: N6_34  and  C16_36
REMARK       I    between atoms: C16_36  and  N7_38
REMARK   12  A    between atoms: N7_38  and  C17_40
REMARK   13  A    between atoms: C17_40  and  C18_41
REMARK   14  A    between atoms: C18_41  and  C19_42
REMARK   15  A    between atoms: C19_42  and  O5_43
ROOT
HETATM    1  C9  UNL     1      12.116 -33.061  11.841  1.00  0.00     0.138 C
HETATM    2  N5  UNL     1      11.192 -32.895  12.760  1.00  0.00    -0.340 N
ATOM      3  H5  UNL     1      10.248 -33.264  12.639  1.00  0.00     0.167 HD
ENDROOT
BRANCH   1   4
HETATM    4  C8  UNL     1      11.731 -33.793  10.647  1.00  0.00     0.095 A
HETATM    5  C7  UNL     1      11.007 -34.939  10.769  1.00  0.00     0.140 A
HETATM    6  N4  UNL     1      10.647 -35.610   9.655  1.00  0.00    -0.308 N
HETATM    7  N3  UNL     1      11.003 -35.139   8.486  1.00  0.00    -0.288 N
ATOM      8  H4  UNL     1      10.106 -36.471   9.723  1.00  0.00     0.186 HD
HETATM    9  C6  UNL     1      11.707 -34.024   8.342  1.00  0.00     0.114 A
ATOM     10  H3  UNL     1      10.726 -35.651   7.649  1.00  0.00     0.188 HD
HETATM   11  N8  UNL     1      12.080 -33.334   9.442  1.00  0.00    -0.339 N
ATOM     12  H8  UNL     1      12.620 -32.473   9.353  1.00  0.00     0.167 HD
BRANCH   9  13
HETATM   13  C5  UNL     1      12.131 -33.475   7.041  1.00  0.00     0.200 C
BRANCH  13  14
HETATM   14  N2  UNL     1      13.146 -34.341   6.460  1.00  0.00    -0.354 N
HETATM   15  C4  UNL     1      14.477 -33.904   6.263  1.00  0.00     0.219 C
HETATM   16  O1  UNL     1      14.858 -32.748   6.574  1.00  0.00    -0.274 OA
ATOM     17  H2  UNL     1      12.891 -35.291   6.189  1.00  0.00     0.162 HD
BRANCH  15  18
HETATM   18  C3  UNL     1      15.458 -34.837   5.667  1.00  0.00     0.135 C
BRANCH  18  19
HETATM   19  C2  UNL     1      15.246 -34.944   4.159  1.00  0.00     0.188 C
HETATM   20  C1  UNL     1      16.165 -35.946   3.557  1.00  0.00     0.040 C
BRANCH  19  21
HETATM   21  N1  UNL     1      15.405 -33.621   3.585  1.00  0.00    -0.075 N
ATOM     22  H13 UNL     1      16.378 -33.445   3.336  1.00  0.00     0.274 HD
ATOM     23  H12 UNL     1      14.985 -33.573   2.657  1.00  0.00     0.274 HD
ATOM     24  H11 UNL     1      15.042 -32.883   4.189  1.00  0.00     0.274 HD
ENDBRANCH  19  21
ENDBRANCH  18  19
ENDBRANCH  15  18
ENDBRANCH  13  14
ENDBRANCH   9  13
ENDBRANCH   1   4
BRANCH   1  25
HETATM   25  N6  UNL     1      13.407 -32.550  12.025  1.00  0.00    -0.293 N
HETATM   26  C16 UNL     1      13.845 -31.364  11.416  1.00  0.00     0.321 C
HETATM   27  O4  UNL     1      13.086 -30.718  10.676  1.00  0.00    -0.247 OA
HETATM   28  N7  UNL     1      15.167 -30.868  11.628  1.00  0.00    -0.343 N
ATOM     29  H7  UNL     1      15.790 -31.407  12.230  1.00  0.00     0.164 HD
ATOM     30  H6  UNL     1      14.055 -33.060  12.625  1.00  0.00     0.172 HD
BRANCH  28  31
HETATM   31  C17 UNL     1      15.668 -29.661  11.047  1.00  0.00     0.126 C
BRANCH  31  32
HETATM   32  C18 UNL     1      16.955 -29.883  10.304  1.00  0.00     0.046 C
BRANCH  32  33
HETATM   33  C19 UNL     1      16.635 -29.962   8.812  1.00  0.00     0.165 C
BRANCH  33  34
HETATM   34  O5  UNL     1      15.498 -30.727   8.585  1.00  0.00    -0.401 OA
ATOM     35  H5  UNL     1      14.926 -30.308   7.954  1.00  0.00     0.209 HD
ENDBRANCH  33  34
ENDBRANCH  32  33
ENDBRANCH  31  32
ENDBRANCH  28  31
ENDBRANCH   1  25
BRANCH   2  36
HETATM   36  C10 UNL     1      11.564 -32.176  13.935  1.00  0.00     0.033 A
HETATM   37  C11 UNL     1      12.295 -32.796  14.935  1.00  0.00     0.030 A
HETATM   38  C12 UNL     1      12.657 -32.112  16.071  1.00  0.00     0.019 A
HETATM   39  C13 UNL     1      12.299 -30.794  16.239  1.00  0.00     0.022 A
HETATM   40  C14 UNL     1      11.567 -30.166  15.241  1.00  0.00     0.019 A
HETATM   41  C15 UNL     1      11.199 -30.840  14.100  1.00  0.00     0.030 A
BRANCH  39  42
HETATM   42  P1  UNL     1      12.782 -29.897  17.746  1.00  0.00     0.200 P
BRANCH  42  43
HETATM   43  O2  UNL     1      11.353 -29.586  18.676  1.00  0.00    -0.346 OA
ATOM     44  H2  UNL     1      10.863 -30.396  18.750  1.00  0.00     0.217 HD
ENDBRANCH  42  43
BRANCH  42  45
HETATM   45  O3  UNL     1      13.533 -28.405  17.286  1.00  0.00    -0.346 OA
ATOM     46  H3  UNL     1      13.439 -27.784  17.999  1.00  0.00     0.217 HD
ENDBRANCH  42  45
ENDBRANCH  39  42
ENDBRANCH   2  36
TORSDOF 15
ENDMDL