MODEL 5
REMARK VINA RESULT: -7.026236952      3.843      6.481
REMARK  16 active torsions:
REMARK  status: ('A' for Active; 'I' for Inactive)
REMARK    1  A    between atoms: C2_2  and  O1_3
REMARK    2  A    between atoms: O1_3  and  P1_4
REMARK    3  A    between atoms: P1_4  and  O2_5
REMARK    4  A    between atoms: P1_4  and  O3_8
REMARK    5  A    between atoms: O2_5  and  C3_6
REMARK    6  A    between atoms: O3_8  and  C5_9
REMARK    7  A    between atoms: C5_9  and  C6_10
REMARK    8  A    between atoms: C6_10  and  N1_11
REMARK    9  A    between atoms: N1_11  and  C7_13
REMARK   10  A    between atoms: C9_17  and  C10_18
REMARK   11  A    between atoms: N3_19  and  N4_21
REMARK   12  A    between atoms: C11_24  and  C13_26
REMARK       I    between atoms: C13_26  and  N5_28
REMARK   13  A    between atoms: N5_28  and  C14_30
REMARK   14  A    between atoms: C14_30  and  C15_31
REMARK   15  A    between atoms: C15_31  and  O5_32
REMARK   16  A    between atoms: C17_35  and  C18_36
ROOT
HETATM    1  C7  UNL     1      15.501 -31.322  12.698  1.00  0.00     0.119 C
HETATM    2  N2  UNL     1      14.202 -31.233  12.988  1.00  0.00    -0.344 N
ATOM      3  H2  UNL     1      13.528 -30.614  12.537  1.00  0.00     0.167 HD
HETATM    4  C8  UNL     1      13.905 -32.213  14.106  1.00  0.00     0.033 C
HETATM    5  C9  UNL     1      13.332 -33.370  13.897  1.00  0.00     0.045 C
HETATM    6  C11 UNL     1      14.502 -31.738  15.340  1.00  0.00     0.098 C
HETATM    7  C12 UNL     1      14.333 -30.193  15.438  1.00  0.00     0.037 C
HETATM    8  C16 UNL     1      15.995 -31.945  15.004  1.00  0.00     0.017 C
HETATM    9  C17 UNL     1      16.431 -31.737  13.772  1.00  0.00     0.051 C
ENDROOT
BRANCH   1  10
HETATM   10  N1  UNL     1      16.131 -30.573  11.653  1.00  0.00    -0.353 N
ATOM     11  H1  UNL     1      16.462 -31.123  10.861  1.00  0.00     0.166 HD
BRANCH  10  12
HETATM   12  C6  UNL     1      16.358 -29.209  11.560  1.00  0.00     0.089 C
BRANCH  12  13
HETATM   13  C5  UNL     1      15.518 -28.128  12.122  1.00  0.00     0.222 C
BRANCH  13  14
HETATM   14  O3  UNL     1      14.256 -28.377  11.443  1.00  0.00    -0.312 OA
BRANCH  14  15
HETATM   15  P1  UNL     1      12.997 -27.663  12.454  1.00  0.00     0.334 P
BRANCH  15  16
HETATM   16  O1  UNL     1      11.883 -29.195  12.674  1.00  0.00    -0.318 OA
BRANCH  16  17
HETATM   17  C2  UNL     1      11.083 -28.787  13.735  1.00  0.00     0.173 C
HETATM   18  C1  UNL     1      10.810 -29.945  14.647  1.00  0.00     0.034 C
ENDBRANCH  16  17
ENDBRANCH  15  16
BRANCH  15  19
HETATM   19  O2  UNL     1      11.769 -26.856  11.448  1.00  0.00    -0.318 OA
BRANCH  19  20
HETATM   20  C3  UNL     1      12.337 -25.834  10.746  1.00  0.00     0.173 C
HETATM   21  C4  UNL     1      13.282 -25.087  11.686  1.00  0.00     0.034 C
ENDBRANCH  19  20
ENDBRANCH  15  19
ENDBRANCH  14  15
ENDBRANCH  13  14
ENDBRANCH  12  13
ENDBRANCH  10  12
ENDBRANCH   1  10
BRANCH   9  22
HETATM   22  C18 UNL     1      17.835 -32.129  13.429  1.00  0.00     0.134 A
HETATM   23  N6  UNL     1      18.200 -33.298  12.823  1.00  0.00    -0.336 N
HETATM   24  C19 UNL     1      19.557 -33.333  12.710  1.00  0.00     0.199 A
ATOM     25  H6  UNL     1      17.560 -34.026  12.506  1.00  0.00     0.168 HD
HETATM   26  N7  UNL     1      19.998 -32.181  13.238  1.00  0.00    -0.295 N
HETATM   27  N8  UNL     1      18.930 -31.465  13.675  1.00  0.00    -0.284 N
ATOM     28  H7  UNL     1      20.975 -31.890  13.300  1.00  0.00     0.187 HD
ATOM     29  H8  UNL     1      18.976 -30.551  14.125  1.00  0.00     0.188 HD
ENDBRANCH   9  22
BRANCH   5  30
HETATM   30  C10 UNL     1      12.916 -33.881  12.584  1.00  0.00     0.108 C
HETATM   31  N3  UNL     1      11.680 -33.788  12.219  1.00  0.00    -0.318 N
ATOM     32  H3  UNL     1      11.404 -34.141  11.303  1.00  0.00     0.185 HD
BRANCH  31  33
HETATM   33  N4  UNL     1      10.700 -33.209  13.061  1.00  0.00    -0.345 N
ATOM     34  H42 UNL     1      10.715 -32.198  13.194  1.00  0.00     0.176 HD
ATOM     35  H41 UNL     1       9.994 -33.778  13.527  1.00  0.00     0.176 HD
ENDBRANCH  31  33
ENDBRANCH   5  30
BRANCH   6  36
HETATM   36  C13 UNL     1      14.121 -32.259  16.623  1.00  0.00     0.235 C
HETATM   37  O4  UNL     1      14.500 -33.347  17.170  1.00  0.00    -0.272 OA
HETATM   38  N5  UNL     1      13.208 -31.483  17.410  1.00  0.00    -0.358 N
ATOM     39  H5  UNL     1      12.848 -30.598  17.053  1.00  0.00     0.162 HD
BRANCH  38  40
HETATM   40  C14 UNL     1      12.792 -31.966  18.736  1.00  0.00     0.148 C
BRANCH  40  41
HETATM   41  C15 UNL     1      12.219 -30.817  19.549  1.00  0.00     0.183 C
BRANCH  41  42
HETATM   42  O5  UNL     1      10.835 -31.156  19.735  1.00  0.00    -0.399 OA
ATOM     43  H5  UNL     1      10.843 -32.072  19.986  1.00  0.00     0.209 HD
ENDBRANCH  41  42
ENDBRANCH  40  41
ENDBRANCH  38  40
ENDBRANCH   6  36
TORSDOF 16
ENDMDL