MODEL 4
REMARK VINA RESULT: -7.054760593      2.423      3.879
REMARK  14 active torsions:
REMARK  status: ('A' for Active; 'I' for Inactive)
REMARK    1  A    between atoms: N1_1  and  C1_5
REMARK    2  A    between atoms: C1_5  and  C2_6
REMARK    3  A    between atoms: C2_6  and  O1_7
REMARK    4  A    between atoms: O1_7  and  C3_8
REMARK    5  A    between atoms: C3_8  and  C4_9
REMARK    6  A    between atoms: C4_9  and  N2_10
REMARK    7  A    between atoms: C6_16  and  N5_17
REMARK    8  A    between atoms: C11_26  and  C12_27
REMARK    9  A    between atoms: C12_27  and  N8_28
REMARK   10  A    between atoms: N8_28  and  C13_30
REMARK   11  A    between atoms: C16_33  and  P1_34
REMARK   12  A    between atoms: P1_34  and  O3_35
REMARK   13  A    between atoms: P1_34  and  O4_37
REMARK   14  A    between atoms: O4_37  and  O5_38
ROOT
HETATM    1  C3  UNL     1      15.108 -31.014  13.792  1.00  0.00     0.090 C
HETATM    2  C8  UNL     1      16.348 -31.537  13.112  1.00  0.00     0.067 C
HETATM    3  C9  UNL     1      17.293 -30.493  12.635  1.00  0.00     0.170 C
HETATM    4  O2  UNL     1      16.686 -29.373  12.061  1.00  0.00    -0.390 OA
HETATM    5  C10 UNL     1      15.811 -28.764  12.949  1.00  0.00     0.180 C
HETATM    6  C11 UNL     1      14.665 -29.768  13.124  1.00  0.00     0.084 C
ENDROOT
BRANCH   1   7
HETATM    7  O1  UNL     1      14.111 -31.993  13.639  1.00  0.00    -0.376 OA
BRANCH   7   8
HETATM    8  C2  UNL     1      14.570 -33.238  13.328  1.00  0.00     0.196 C
BRANCH   8   9
HETATM    9  C1  UNL     1      13.747 -34.331  14.022  1.00  0.00     0.255 C
BRANCH   9  10
HETATM   10  N1  UNL     1      12.481 -33.895  14.437  1.00  0.00    -0.077 N
ATOM     11  H13 UNL     1      12.194 -34.374  15.291  1.00  0.00     0.274 HD
ATOM     12  H12 UNL     1      12.526 -32.938  14.788  1.00  0.00     0.274 HD
ATOM     13  H11 UNL     1      11.767 -33.983  13.715  1.00  0.00     0.274 HD
ENDBRANCH   9  10
ENDBRANCH   8   9
ENDBRANCH   7   8
ENDBRANCH   1   7
BRANCH   1  14
HETATM   14  C4  UNL     1      15.423 -30.796  15.247  1.00  0.00     0.187 C
BRANCH  14  15
HETATM   15  N2  UNL     1      14.526 -31.305  16.214  1.00  0.00    -0.174 N
HETATM   16  C5  UNL     1      14.599 -32.379  17.055  1.00  0.00     0.218 A
HETATM   17  N3  UNL     1      13.526 -32.460  17.851  1.00  0.00    -0.281 N
HETATM   18  N4  UNL     1      12.752 -31.473  17.555  1.00  0.00    -0.131 N
ATOM     19  H3  UNL     1      13.353 -33.172  18.562  1.00  0.00     0.188 HD
HETATM   20  C6  UNL     1      13.315 -30.746  16.567  1.00  0.00     0.702 A
ATOM     21  H4  UNL     1      11.854 -31.273  17.997  1.00  0.00     0.205 HD
BRANCH  20  22
HETATM   22  N5  UNL     1      12.709 -29.621  15.956  1.00  0.00    -0.164 N
HETATM   23  C7  UNL     1      11.704 -29.725  15.185  1.00  0.00     0.215 C
HETATM   24  N6  UNL     1      11.138 -30.984  14.900  1.00  0.00    -0.066 NA
HETATM   25  N7  UNL     1      11.119 -28.553  14.585  1.00  0.00    -0.066 NA
ATOM     26  H5  UNL     1      13.092 -28.694  16.142  1.00  0.00     0.186 HD
ENDBRANCH  20  22
ENDBRANCH  14  15
ENDBRANCH   1  14
BRANCH   6  27
HETATM   27  C12 UNL     1      13.886 -29.835  11.896  1.00  0.00     0.071 C
BRANCH  27  28
HETATM   28  N8  UNL     1      12.505 -30.128  11.869  1.00  0.00    -0.369 N
ATOM     29  H8  UNL     1      11.846 -29.488  12.312  1.00  0.00     0.165 HD
BRANCH  28  30
HETATM   30  C13 UNL     1      12.009 -31.338  11.214  1.00  0.00     0.031 A
HETATM   31  C14 UNL     1      10.905 -31.949  11.748  1.00  0.00     0.030 A
HETATM   32  C15 UNL     1      10.434 -33.097  11.133  1.00  0.00     0.019 A
HETATM   33  C16 UNL     1      11.060 -33.608  10.015  1.00  0.00     0.025 A
HETATM   34  C17 UNL     1      12.171 -32.970   9.498  1.00  0.00     0.019 A
HETATM   35  C18 UNL     1      12.627 -31.839  10.113  1.00  0.00     0.030 A
BRANCH  33  36
HETATM   36  P1  UNL     1      10.438 -35.120   9.207  1.00  0.00     0.239 P
BRANCH  36  37
HETATM   37  O3  UNL     1       9.711 -36.157  10.422  1.00  0.00    -0.344 OA
ATOM     38  H3  UNL     1       8.956 -36.590  10.044  1.00  0.00     0.217 HD
ENDBRANCH  36  37
BRANCH  36  39
HETATM   39  O4  UNL     1      11.658 -35.953   8.343  1.00  0.00    -0.181 OA
BRANCH  39  40
HETATM   40  O5  UNL     1      12.075 -35.302   7.279  1.00  0.00    -0.244 OA
ATOM     41  H5  UNL     1      11.562 -35.491   6.501  1.00  0.00     0.254 HD
ENDBRANCH  39  40
ENDBRANCH  36  39
ENDBRANCH  33  36
ENDBRANCH  28  30
ENDBRANCH  27  28
ENDBRANCH   6  27
TORSDOF 14
ENDMDL