MODEL 4
REMARK VINA RESULT: -7.822985586      1.681      2.133
REMARK  13 active torsions:
REMARK  status: ('A' for Active; 'I' for Inactive)
REMARK       I    between atoms: C1_4  and  N2_5
REMARK       I    between atoms: C1_4  and  N6_28
REMARK    1  A    between atoms: N2_5  and  C2_7
REMARK    2  A    between atoms: C2_7  and  C3_8
REMARK    3  A    between atoms: C2_7  and  N3_15
REMARK    4  A    between atoms: C3_8  and  C4_9
REMARK    5  A    between atoms: C4_9  and  P1_10
REMARK    6  A    between atoms: P1_10  and  O1_11
REMARK    7  A    between atoms: P1_10  and  O2_13
REMARK       I    between atoms: N3_15  and  C5_17
REMARK    8  A    between atoms: C5_17  and  C6_19
REMARK    9  A    between atoms: C13_36  and  C14_37
REMARK   10  A    between atoms: C14_37  and  C15_38
REMARK   11  A    between atoms: C15_38  and  C16_39
REMARK   12  A    between atoms: C17_40  and  C18_41
REMARK   13  A    between atoms: C19_42  and  O5_43
ROOT
HETATM    1  N1  UNL     1      13.946 -31.211  11.917  1.00  0.00    -0.234 N
ATOM      2  H11 UNL     1      14.582 -31.915  11.542  1.00  0.00     0.174 HD
ATOM      3  H12 UNL     1      14.391 -30.456  12.438  1.00  0.00     0.174 HD
HETATM    4  C1  UNL     1      12.767 -31.289  11.765  1.00  0.00     0.681 C
HETATM    5  N2  UNL     1      11.890 -30.318  12.283  1.00  0.00    -0.205 N
ATOM      6  H2  UNL     1      10.911 -30.438  12.021  1.00  0.00     0.179 HD
HETATM    7  N6  UNL     1      12.120 -32.387  11.006  1.00  0.00    -0.142 N
HETATM    8  C10 UNL     1      11.151 -33.133  11.730  1.00  0.00     0.223 A
HETATM    9  N7  UNL     1      10.411 -33.983  11.039  1.00  0.00    -0.295 N
ATOM     10  H7  UNL     1       9.698 -34.540  11.511  1.00  0.00     0.187 HD
HETATM   11  N8  UNL     1      10.601 -34.115   9.686  1.00  0.00    -0.309 N
ATOM     12  H8  UNL     1       9.988 -34.787   9.223  1.00  0.00     0.186 HD
HETATM   13  C11 UNL     1      11.433 -33.519   8.919  1.00  0.00     0.137 A
HETATM   14  C12 UNL     1      12.322 -32.529   9.634  1.00  0.00     0.075 A
HETATM   15  C13 UNL     1      13.314 -32.019   9.002  1.00  0.00     0.040 C
ENDROOT
BRANCH   5  16
HETATM   16  C2  UNL     1      12.154 -29.201  13.109  1.00  0.00     0.202 C
BRANCH  16  17
HETATM   17  C3  UNL     1      11.242 -28.985  14.289  1.00  0.00     0.056 C
BRANCH  17  18
HETATM   18  C4  UNL     1      11.152 -30.178  15.198  1.00  0.00     0.097 C
BRANCH  18  19
HETATM   19  P1  UNL     1      12.106 -30.010  16.751  1.00  0.00     0.163 P
BRANCH  19  20
HETATM   20  O1  UNL     1      13.275 -28.769  16.742  1.00  0.00    -0.350 OA
ATOM     21  H1  UNL     1      14.060 -28.962  16.243  1.00  0.00     0.217 HD
ENDBRANCH  19  20
BRANCH  19  22
HETATM   22  O2  UNL     1      11.023 -29.766  18.094  1.00  0.00    -0.350 OA
ATOM     23  H2  UNL     1      11.473 -29.942  18.912  1.00  0.00     0.217 HD
ENDBRANCH  19  22
ENDBRANCH  18  19
ENDBRANCH  17  18
ENDBRANCH  16  17
BRANCH  16  24
HETATM   24  N3  UNL     1      12.257 -27.927  12.364  1.00  0.00    -0.335 N
HETATM   25  C5  UNL     1      13.520 -27.534  11.835  1.00  0.00     0.256 C
HETATM   26  O3  UNL     1      14.553 -28.246  11.989  1.00  0.00    -0.268 OA
ATOM     27  H3  UNL     1      11.435 -27.338  12.230  1.00  0.00     0.164 HD
BRANCH  25  28
HETATM   28  C6  UNL     1      13.645 -26.292  11.097  1.00  0.00     0.063 A
HETATM   29  C7  UNL     1      14.863 -25.802  10.699  1.00  0.00     0.111 A
HETATM   30  N4  UNL     1      14.894 -24.668   9.970  1.00  0.00    -0.318 N
HETATM   31  C8  UNL     1      13.776 -24.006   9.614  1.00  0.00     0.324 A
ATOM     32  H4  UNL     1      15.798 -24.297   9.676  1.00  0.00     0.170 HD
HETATM   33  O4  UNL     1      13.817 -22.969   8.933  1.00  0.00    -0.247 OA
HETATM   34  N5  UNL     1      12.584 -24.478  10.001  1.00  0.00    -0.318 N
HETATM   35  C9  UNL     1      12.480 -25.606  10.737  1.00  0.00     0.111 A
ATOM     36  H5  UNL     1      11.738 -23.976   9.733  1.00  0.00     0.170 HD
ENDBRANCH  25  28
ENDBRANCH  16  24
ENDBRANCH   5  16
BRANCH  15  37
HETATM   37  C14 UNL     1      13.474 -32.188   7.528  1.00  0.00     0.058 C
BRANCH  37  38
HETATM   38  C15 UNL     1      14.580 -32.241   7.027  1.00  0.00    -0.128 C
BRANCH  38  39
HETATM   39  C16 UNL     1      15.864 -32.308   6.449  1.00  0.00     0.055 C
HETATM   40  C17 UNL     1      16.426 -33.333   5.870  1.00  0.00     0.010 C
BRANCH  40  41
HETATM   41  C18 UNL     1      15.901 -34.661   5.660  1.00  0.00     0.024 C
HETATM   42  C19 UNL     1      16.826 -35.681   5.803  1.00  0.00     0.131 C
BRANCH  42  43
HETATM   43  O5  UNL     1      18.096 -35.294   6.115  1.00  0.00    -0.373 OA
ATOM     44  H5  UNL     1      18.763 -35.496   5.469  1.00  0.00     0.216 HD
ENDBRANCH  42  43
ENDBRANCH  40  41
ENDBRANCH  38  39
ENDBRANCH  37  38
ENDBRANCH  15  37
TORSDOF 13
ENDMDL