MODEL 4
REMARK VINA RESULT: -6.262385948      1.133      1.136
REMARK  4 active torsions:
REMARK  status: ('A' for Active; 'I' for Inactive)
REMARK       I    between atoms: N1_2  and  C2_4
REMARK       I    between atoms: C2_4  and  N2_6
REMARK    1  A    between atoms: N2_6  and  N3_8
REMARK       I    between atoms: N3_8  and  C3_10
REMARK    2  A    between atoms: C3_10  and  C4_12
REMARK    3  A    between atoms: C9_17  and  N4_18
REMARK    4  A    between atoms: N4_18  and  S1_20
ROOT
HETATM    1  C4  UNL     1       9.417  -7.416  18.311  1.00  0.00     0.060 A
HETATM    2  C5  UNL     1       8.228  -6.699  18.462  1.00  0.00     0.019 A
HETATM    3  C6  UNL     1       7.958  -5.956  19.610  1.00  0.00     0.001 A
HETATM    4  C7  UNL     1       8.859  -5.902  20.643  1.00  0.00     0.002 A
HETATM    5  C8  UNL     1      10.033  -6.607  20.498  1.00  0.00     0.031 A
HETATM    6  C9  UNL     1      10.312  -7.356  19.347  1.00  0.00     0.058 A
ENDROOT
BRANCH   1   7
HETATM    7  C3  UNL     1       9.684  -8.231  17.147  1.00  0.00     0.272 C
HETATM    8  N3  UNL     1       9.282  -7.781  15.831  1.00  0.00    -0.262 N
ATOM      9  H3  UNL     1       8.811  -6.882  15.723  1.00  0.00     0.190 HD
HETATM   10  O2  UNL     1      10.262  -9.352  17.169  1.00  0.00    -0.266 OA
BRANCH   8  11
HETATM   11  N2  UNL     1       9.540  -8.580  14.698  1.00  0.00    -0.249 N
HETATM   12  C2  UNL     1       8.553  -9.505  14.280  1.00  0.00     0.334 C
HETATM   13  N1  UNL     1       8.826 -10.327  13.126  1.00  0.00    -0.346 N
HETATM   14  O1  UNL     1       7.489  -9.606  14.890  1.00  0.00    -0.246 OA
HETATM   15  C1  UNL     1       7.815 -11.289  12.684  1.00  0.00     0.151 C
ATOM     16  H1  UNL     1       9.710 -10.240  12.625  1.00  0.00     0.163 HD
ATOM     17  H2  UNL     1      10.419  -8.493  14.190  1.00  0.00     0.192 HD
ENDBRANCH   8  11
ENDBRANCH   1   7
BRANCH   6  18
HETATM   18  N4  UNL     1      11.564  -8.016  19.256  1.00  0.00    -0.284 N
ATOM     19  H4  UNL     1      11.827  -8.468  18.381  1.00  0.00     0.178 HD
BRANCH  18  20
HETATM   20  S1  UNL     1      12.648  -8.069  20.589  1.00  0.00     0.227 S
HETATM   21  C10 UNL     1      14.274  -7.452  20.138  1.00  0.00     0.186 C
HETATM   22  O3  UNL     1      12.843  -9.435  21.166  1.00  0.00    -0.206 OA
HETATM   23  O4  UNL     1      12.113  -7.138  21.684  1.00  0.00    -0.206 OA
ENDBRANCH  18  20
ENDBRANCH   6  18
TORSDOF 4
ENDMDL