MODEL 5
REMARK VINA RESULT: -5.321060622      1.894      3.027
REMARK  6 active torsions:
REMARK  status: ('A' for Active; 'I' for Inactive)
REMARK       I    between atoms: C2_2  and  N1_4
REMARK    1  A    between atoms: N1_4  and  C3_6
REMARK    2  A    between atoms: C3_6  and  C4_7
REMARK    3  A    between atoms: C3_6  and  C11_22
REMARK       I    between atoms: C4_7  and  N2_9
REMARK    4  A    between atoms: N2_9  and  C5_11
REMARK    5  A    between atoms: C9_16  and  O4_17
REMARK    6  A    between atoms: C10_19  and  O5_20
ROOT
HETATM    1  C4  UNL     1       9.160  -8.996  16.497  1.00  0.00     0.242 C
HETATM    2  O2  UNL     1       8.350  -8.043  16.628  1.00  0.00    -0.271 OA
HETATM    3  N2  UNL     1      10.101  -9.177  17.529  1.00  0.00    -0.331 N
ATOM      4  H2  UNL     1      10.769  -9.945  17.453  1.00  0.00     0.165 HD
ENDROOT
BRANCH   3   5
HETATM    5  C5  UNL     1      10.161  -8.314  18.701  1.00  0.00     0.255 C
HETATM    6  O3  UNL     1       8.878  -7.981  19.087  1.00  0.00    -0.351 OA
HETATM    7  C6  UNL     1       8.867  -6.662  19.477  1.00  0.00     0.085 C
HETATM    8  C7  UNL     1       7.535  -6.061  19.094  1.00  0.00     0.048 C
HETATM    9  C8  UNL     1       9.089  -6.535  20.948  1.00  0.00     0.048 C
HETATM   10  C9  UNL     1       9.966  -5.951  18.736  1.00  0.00     0.185 C
HETATM   11  C10 UNL     1      10.919  -7.075  18.411  1.00  0.00     0.198 C
BRANCH  10  12
HETATM   12  O4  UNL     1       9.486  -5.307  17.615  1.00  0.00    -0.390 OA
ATOM     13  H4  UNL     1      10.168  -5.184  16.965  1.00  0.00     0.210 HD
ENDBRANCH  10  12
BRANCH  11  14
HETATM   14  O5  UNL     1      12.091  -6.990  19.158  1.00  0.00    -0.388 OA
ATOM     15  H5  UNL     1      12.752  -6.460  18.729  1.00  0.00     0.210 HD
ENDBRANCH  11  14
ENDBRANCH   3   5
BRANCH   1  16
HETATM   16  C3  UNL     1       9.112  -9.859  15.332  1.00  0.00     0.180 C
BRANCH  16  17
HETATM   17  N1  UNL     1       7.734 -10.262  15.007  1.00  0.00    -0.348 N
HETATM   18  C2  UNL     1       7.372 -11.567  14.655  1.00  0.00     0.214 C
HETATM   19  C1  UNL     1       5.950 -11.861  14.347  1.00  0.00     0.117 C
HETATM   20  O1  UNL     1       8.181 -12.523  14.583  1.00  0.00    -0.274 OA
ATOM     21  H1  UNL     1       7.003  -9.551  15.039  1.00  0.00     0.163 HD
ENDBRANCH  16  17
BRANCH  16  22
HETATM   22  C11 UNL     1       9.585  -9.201  14.032  1.00  0.00     0.009 C
HETATM   23  C12 UNL     1      10.013  -7.789  14.176  1.00  0.00     0.012 C
HETATM   24  C13 UNL     1       8.590  -9.420  12.920  1.00  0.00     0.012 C
ENDBRANCH  16  22
ENDBRANCH   1  16
TORSDOF 6
ENDMDL