MODEL 2
REMARK VINA RESULT: -5.115111398      1.202      1.556
REMARK  7 active torsions:
REMARK  status: ('A' for Active; 'I' for Inactive)
REMARK    1  A    between atoms: C2_2  and  C4_4
REMARK    2  A    between atoms: C7_7  and  C8_8
REMARK    3  A    between atoms: C8_8  and  O1_9
REMARK    4  A    between atoms: C8_8  and  C9_11
REMARK       I    between atoms: C9_11  and  N1_13
REMARK    5  A    between atoms: N1_13  and  N2_15
REMARK       I    between atoms: N2_15  and  C11_17
REMARK    6  A    between atoms: C13_20  and  O4_21
REMARK    7  A    between atoms: C14_23  and  O5_24
ROOT
HETATM    1  C4  UNL     1       7.272 -14.304  14.788  1.00  0.00     0.049 C
HETATM    2  C5  UNL     1       7.186 -13.047  13.951  1.00  0.00     0.002 C
HETATM    3  C6  UNL     1       8.078 -11.949  14.517  1.00  0.00     0.011 C
HETATM    4  C7  UNL     1       5.778 -12.581  13.996  1.00  0.00     0.059 C
HETATM    5  C13 UNL     1       5.002 -13.740  14.598  1.00  0.00     0.154 C
HETATM    6  C14 UNL     1       6.033 -14.334  15.574  1.00  0.00     0.155 C
ENDROOT
BRANCH   4   7
HETATM    7  C8  UNL     1       5.204 -12.291  12.621  1.00  0.00     0.218 C
BRANCH   7   8
HETATM    8  O1  UNL     1       6.220 -12.269  11.666  1.00  0.00    -0.386 OA
ATOM      9  H1  UNL     1       5.918 -11.843  10.872  1.00  0.00     0.210 HD
ENDBRANCH   7   8
BRANCH   7  10
HETATM   10  C9  UNL     1       4.642 -10.919  12.641  1.00  0.00     0.267 C
HETATM   11  O2  UNL     1       5.109 -10.055  13.482  1.00  0.00    -0.269 OA
HETATM   12  N1  UNL     1       3.615 -10.416  11.820  1.00  0.00    -0.261 N
HETATM   13  C10 UNL     1       2.903 -11.119  10.790  1.00  0.00     0.181 C
BRANCH  12  14
HETATM   14  N2  UNL     1       3.216  -9.067  12.024  1.00  0.00    -0.266 N
HETATM   15  C11 UNL     1       3.831  -7.964  11.426  1.00  0.00     0.232 C
HETATM   16  C12 UNL     1       3.351  -6.561  11.686  1.00  0.00     0.119 C
HETATM   17  O3  UNL     1       4.806  -8.083  10.645  1.00  0.00    -0.272 OA
ATOM     18  H2  UNL     1       2.429  -8.893  12.648  1.00  0.00     0.190 HD
ENDBRANCH  12  14
ENDBRANCH   7  10
ENDBRANCH   4   7
BRANCH   5  19
HETATM   19  O4  UNL     1       4.546 -14.640  13.673  1.00  0.00    -0.392 OA
ATOM     20  H4  UNL     1       4.002 -15.327  14.041  1.00  0.00     0.210 HD
ENDBRANCH   5  19
BRANCH   1  21
HETATM   21  C2  UNL     1       7.653 -15.469  14.025  1.00  0.00    -0.086 C
HETATM   22  C1  UNL     1       8.058 -16.620  14.450  1.00  0.00     0.014 C
HETATM   23  C3  UNL     1       7.613 -15.351  12.485  1.00  0.00     0.043 C
ENDBRANCH   1  21
BRANCH   6  24
HETATM   24  O5  UNL     1       5.617 -15.544  16.024  1.00  0.00    -0.392 OA
ATOM     25  H5  UNL     1       5.972 -15.842  16.853  1.00  0.00     0.210 HD
ENDBRANCH   6  24
TORSDOF 7
ENDMDL