MODEL 4
REMARK VINA RESULT: -7.850229070      3.316      7.872
REMARK  5 active torsions:
REMARK  status: ('A' for Active; 'I' for Inactive)
REMARK       I    between atoms: C2_2  and  N1_4
REMARK    1  A    between atoms: N1_4  and  C3_5
REMARK    2  A    between atoms: C3_5  and  C4_9
REMARK    3  A    between atoms: C7_12  and  C8_13
REMARK       I    between atoms: C8_13  and  N3_15
REMARK    4  A    between atoms: N3_15  and  N4_17
REMARK    5  A    between atoms: N4_17  and  S1_19
ROOT
HETATM    1  C4  UNL     1       7.640 -11.149  13.248  1.00  0.00     0.022 A
HETATM    2  C5  UNL     1       7.502 -11.266  14.535  1.00  0.00     0.017 A
HETATM    3  C6  UNL     1       8.249 -10.364  15.352  1.00  0.00     0.018 A
HETATM    4  C7  UNL     1       9.037  -9.458  14.654  1.00  0.00     0.033 A
HETATM    5  C10 UNL     1       9.143  -9.386  13.280  1.00  0.00     0.018 A
HETATM    6  C11 UNL     1       8.365 -10.331  12.541  1.00  0.00     0.017 A
ENDROOT
BRANCH   4   7
HETATM    7  C8  UNL     1       9.715  -8.443  15.536  1.00  0.00     0.270 C
HETATM    8  O2  UNL     1      10.926  -8.331  15.367  1.00  0.00    -0.266 OA
HETATM    9  N3  UNL     1       8.906  -7.753  16.423  1.00  0.00    -0.256 N
ATOM     10  H3  UNL     1       7.921  -8.018  16.385  1.00  0.00     0.191 HD
BRANCH   9  11
HETATM   11  N4  UNL     1       9.187  -6.792  17.332  1.00  0.00    -0.225 N
ATOM     12  H4  UNL     1       9.136  -5.801  17.097  1.00  0.00     0.200 HD
BRANCH  11  13
HETATM   13  S1  UNL     1       9.619  -7.308  18.845  1.00  0.00     0.240 S
HETATM   14  C9  UNL     1      10.472  -5.997  19.770  1.00  0.00     0.187 C
HETATM   15  O3  UNL     1       8.460  -7.750  19.727  1.00  0.00    -0.205 OA
HETATM   16  O4  UNL     1      10.551  -8.503  18.768  1.00  0.00    -0.205 OA
ENDBRANCH  11  13
ENDBRANCH   9  11
ENDBRANCH   4   7
BRANCH   1  17
HETATM   17  C3  UNL     1       6.345 -11.996  12.359  1.00  0.00     0.186 C
HETATM   18  N2  UNL     1       7.042 -12.962  12.385  1.00  0.00    -0.373 N
ATOM     19  H22 UNL     1       6.302 -13.445  11.877  1.00  0.00     0.158 HD
ATOM     20  H21 UNL     1       7.612 -13.808  12.403  1.00  0.00     0.158 HD
BRANCH  17  21
HETATM   21  N1  UNL     1       5.594 -10.881  12.335  1.00  0.00    -0.352 NA
HETATM   22  C2  UNL     1       4.871  -9.793  12.306  1.00  0.00     0.289 C
HETATM   23  C1  UNL     1       3.720  -9.579  13.275  1.00  0.00     0.135 C
HETATM   24  O1  UNL     1       4.972  -8.768  11.531  1.00  0.00    -0.258 OA
ENDBRANCH  17  21
ENDBRANCH   1  17
TORSDOF 5
ENDMDL