MODEL 5
REMARK VINA RESULT: -4.852077795      8.282     10.483
REMARK  6 active torsions:
REMARK  status: ('A' for Active; 'I' for Inactive)
REMARK    1  A    between atoms: C2_2  and  C3_4
REMARK    2  A    between atoms: C3_4  and  N1_5
REMARK       I    between atoms: N1_5  and  C4_7
REMARK    3  A    between atoms: C4_7  and  C5_9
REMARK    4  A    between atoms: C5_9  and  O3_10
REMARK    5  A    between atoms: C8_14  and  O4_15
REMARK    6  A    between atoms: C8_14  and  N2_17
REMARK       I    between atoms: N2_17  and  C9_19
ROOT
HETATM    1  C5  UNL     1       6.951 -13.681  13.596  1.00  0.00     0.149 C
HETATM    2  C6  UNL     1       7.653 -12.484  14.133  1.00  0.00     0.053 C
HETATM    3  C7  UNL     1       7.527 -11.554  12.940  1.00  0.00     0.065 C
HETATM    4  C8  UNL     1       6.226 -11.963  12.223  1.00  0.00     0.144 C
HETATM    5  C11 UNL     1       5.660 -13.065  13.094  1.00  0.00     0.043 C
HETATM    6  C12 UNL     1       4.918 -14.132  12.369  1.00  0.00     0.023 C
HETATM    7  C13 UNL     1       4.845 -12.428  14.169  1.00  0.00     0.023 C
ENDROOT
BRANCH   1   8
HETATM    8  C4  UNL     1       6.808 -14.816  14.478  1.00  0.00     0.253 C
HETATM    9  N1  UNL     1       6.409 -14.646  15.836  1.00  0.00    -0.351 N
ATOM     10  H1  UNL     1       6.227 -13.700  16.171  1.00  0.00     0.162 HD
HETATM   11  O2  UNL     1       7.019 -16.005  14.120  1.00  0.00    -0.270 OA
BRANCH   9  12
HETATM   12  C3  UNL     1       6.251 -15.734  16.757  1.00  0.00     0.200 C
BRANCH  12  13
HETATM   13  C2  UNL     1       4.874 -15.770  17.315  1.00  0.00     0.140 C
HETATM   14  C1  UNL     1       3.694 -15.672  16.422  1.00  0.00     0.092 C
HETATM   15  O1  UNL     1       4.652 -15.881  18.514  1.00  0.00    -0.297 OA
ENDBRANCH  12  13
ENDBRANCH   9  12
ENDBRANCH   1   8
BRANCH   1  16
HETATM   16  O3  UNL     1       7.649 -14.075  12.431  1.00  0.00    -0.379 OA
ATOM     17  H3  UNL     1       7.075 -14.590  11.876  1.00  0.00     0.211 HD
ENDBRANCH   1  16
BRANCH   4  18
HETATM   18  O4  UNL     1       6.521 -12.421  10.940  1.00  0.00    -0.370 OA
ATOM     19  H4  UNL     1       6.674 -13.359  10.963  1.00  0.00     0.212 HD
ENDBRANCH   4  18
BRANCH   4  20
HETATM   20  N2  UNL     1       5.408 -10.801  12.111  1.00  0.00    -0.329 N
HETATM   21  C9  UNL     1       4.353 -10.595  11.202  1.00  0.00     0.215 C
HETATM   22  C10 UNL     1       3.581  -9.340  11.197  1.00  0.00     0.117 C
HETATM   23  O5  UNL     1       4.058 -11.486  10.380  1.00  0.00    -0.274 OA
ATOM     24  H2  UNL     1       5.608 -10.038  12.758  1.00  0.00     0.165 HD
ENDBRANCH   4  20
TORSDOF 6
ENDMDL