MODEL 1
REMARK VINA RESULT: -4.153277697      0.000      0.000
REMARK  4 active torsions:
REMARK  status: ('A' for Active; 'I' for Inactive)
REMARK    1  A    between atoms: N1_2  and  C2_4
REMARK    2  A    between atoms: C2_4  and  C4_6
REMARK       I    between atoms: C4_6  and  N2_8
REMARK    3  A    between atoms: N2_8  and  C5_10
REMARK    4  A    between atoms: C5_10  and  C6_11
ROOT
HETATM    1  C5  UNL     1       5.915 -13.366  13.367  1.00  0.00     0.207 C
HETATM    2  C7  UNL     1       7.016 -13.810  14.281  1.00  0.00     0.202 C
HETATM    3  O3  UNL     1       8.002 -13.273  14.655  1.00  0.00    -0.292 OA
HETATM    4  C8  UNL     1       6.652 -15.200  14.721  1.00  0.00     0.182 C
HETATM    5  C9  UNL     1       7.810 -16.084  14.348  1.00  0.00     0.054 C
HETATM    6  C10 UNL     1       6.585 -15.226  16.251  1.00  0.00     0.054 C
HETATM    7  N4  UNL     1       5.429 -15.529  14.088  1.00  0.00    -0.048 N
ATOM      8  H41 UNL     1       4.816 -16.095  14.675  1.00  0.00     0.279 HD
ATOM      9  H42 UNL     1       5.543 -16.200  13.328  1.00  0.00     0.279 HD
HETATM   10  C11 UNL     1       4.796 -14.250  13.646  1.00  0.00     0.161 C
HETATM   11  C12 UNL     1       3.915 -14.657  12.492  1.00  0.00     0.049 C
HETATM   12  C13 UNL     1       3.873 -13.784  14.753  1.00  0.00     0.049 C
ENDROOT
BRANCH   1  13
HETATM   13  N2  UNL     1       5.750 -11.949  13.645  1.00  0.00    -0.333 N
HETATM   14  C4  UNL     1       4.812 -11.244  12.890  1.00  0.00     0.241 C
HETATM   15  O1  UNL     1       4.046 -11.712  11.994  1.00  0.00    -0.271 OA
ATOM     16  H2  UNL     1       6.301 -11.486  14.367  1.00  0.00     0.164 HD
BRANCH  14  17
HETATM   17  C2  UNL     1       4.569  -9.729  13.054  1.00  0.00     0.165 C
HETATM   18  C3  UNL     1       3.038  -9.684  13.185  1.00  0.00     0.042 C
BRANCH  17  19
HETATM   19  N1  UNL     1       4.935  -9.259  11.744  1.00  0.00    -0.414 N
HETATM   20  C1  UNL     1       4.295  -8.129  11.220  1.00  0.00     0.140 C
ATOM     21  H1  UNL     1       5.651  -9.744  11.204  1.00  0.00     0.153 HD
ENDBRANCH  17  19
ENDBRANCH  14  17
ENDBRANCH   1  13
BRANCH   1  22
HETATM   22  C6  UNL     1       6.317 -13.402  11.935  1.00  0.00     0.270 C
HETATM   23  N3  UNL     1       7.209 -12.350  11.477  1.00  0.00    -0.059 NA
HETATM   24  O2  UNL     1       5.982 -14.226  11.081  1.00  0.00    -0.273 OA
ENDBRANCH   1  22
TORSDOF 4
ENDMDL