MODEL 1
REMARK VINA RESULT: -5.600476053      0.000      0.000
REMARK  7 active torsions:
REMARK  status: ('A' for Active; 'I' for Inactive)
REMARK    1  A    between atoms: N1_1  and  C1_5
REMARK    2  A    between atoms: C3_7  and  N2_8
REMARK    3  A    between atoms: C6_11  and  N3_12
REMARK       I    between atoms: N3_12  and  C7_14
REMARK    4  A    between atoms: C7_14  and  C8_16
REMARK    5  A    between atoms: C8_16  and  N4_17
REMARK    6  A    between atoms: C8_16  and  C9_21
REMARK    7  A    between atoms: C15_27  and  N5_28
ROOT
HETATM    1  N2  UNL     1       9.340  -9.803  14.616  1.00  0.00     0.097 N
HETATM    2  C4  UNL     1       9.348  -8.406  14.299  1.00  0.00     0.275 C
HETATM    3  C5  UNL     1       8.922  -7.766  15.597  1.00  0.00     0.057 C
HETATM    4  C6  UNL     1       9.283  -8.758  16.682  1.00  0.00     0.114 C
HETATM    5  C14 UNL     1      10.022  -9.820  15.897  1.00  0.00     0.298 C
ENDROOT
BRANCH   4   6
HETATM    6  N3  UNL     1      10.153  -8.080  17.621  1.00  0.00    -0.353 N
HETATM    7  C7  UNL     1       9.719  -7.472  18.808  1.00  0.00     0.249 C
HETATM    8  O1  UNL     1       8.498  -7.506  19.083  1.00  0.00    -0.271 OA
ATOM      9  H3  UNL     1      11.148  -8.041  17.403  1.00  0.00     0.163 HD
BRANCH   7  10
HETATM   10  C8  UNL     1      10.673  -6.808  19.711  1.00  0.00     0.278 C
BRANCH  10  11
HETATM   11  N4  UNL     1      10.056  -5.488  20.026  1.00  0.00    -0.066 N
ATOM     12  H43 UNL     1       9.256  -5.256  19.437  1.00  0.00     0.275 HD
ATOM     13  H42 UNL     1       9.557  -5.467  20.915  1.00  0.00     0.275 HD
ATOM     14  H41 UNL     1      10.821  -4.815  19.966  1.00  0.00     0.275 HD
ENDBRANCH  10  11
BRANCH  10  15
HETATM   15  C9  UNL     1      10.871  -7.510  21.030  1.00  0.00     0.025 C
HETATM   16  C10 UNL     1      12.203  -7.031  21.619  1.00  0.00     0.007 C
HETATM   17  C11 UNL     1      13.207  -7.787  20.816  1.00  0.00     0.000 C
HETATM   18  C12 UNL     1      12.579  -9.144  20.609  1.00  0.00     0.000 C
HETATM   19  C13 UNL     1      11.110  -8.975  20.964  1.00  0.00     0.007 C
ENDBRANCH  10  15
ENDBRANCH   7  10
ENDBRANCH   4   6
BRANCH   1  20
HETATM   20  C3  UNL     1       8.041 -10.398  14.676  1.00  0.00     0.257 C
HETATM   21  C2  UNL     1       6.958  -9.821  13.854  1.00  0.00     0.073 C
HETATM   22  C1  UNL     1       6.526 -11.247  13.505  1.00  0.00     0.218 C
HETATM   23  C15 UNL     1       7.913 -11.700  13.959  1.00  0.00     0.246 C
BRANCH  22  24
HETATM   24  N1  UNL     1       6.370 -11.504  12.102  1.00  0.00    -0.073 N
ATOM     25  H13 UNL     1       6.277 -10.626  11.590  1.00  0.00     0.274 HD
ATOM     26  H12 UNL     1       7.245 -11.848  11.706  1.00  0.00     0.274 HD
ATOM     27  H11 UNL     1       5.603 -12.134  11.863  1.00  0.00     0.274 HD
ENDBRANCH  22  24
BRANCH  23  28
HETATM   28  N5  UNL     1       7.766 -12.871  14.799  1.00  0.00    -0.071 N
ATOM     29  H53 UNL     1       6.791 -13.145  14.921  1.00  0.00     0.274 HD
ATOM     30  H52 UNL     1       8.095 -13.722  14.344  1.00  0.00     0.274 HD
ATOM     31  H51 UNL     1       8.236 -12.696  15.688  1.00  0.00     0.274 HD
ENDBRANCH  23  28
ENDBRANCH   1  20
TORSDOF 7
ENDMDL