MODEL 5
REMARK VINA RESULT: -6.273510732      2.406      4.228
REMARK  4 active torsions:
REMARK  status: ('A' for Active; 'I' for Inactive)
REMARK       I    between atoms: C2_2  and  N1_4
REMARK    1  A    between atoms: C6_8  and  C7_9
REMARK       I    between atoms: C7_9  and  N2_11
REMARK    2  A    between atoms: N2_11  and  N3_13
REMARK       I    between atoms: N3_13  and  C8_15
REMARK       I    between atoms: C8_15  and  N5_19
REMARK    3  A    between atoms: N5_19  and  N6_21
REMARK    4  A    between atoms: C9_23  and  C10_24
ROOT
HETATM    1  N3  UNL     1      10.151  -9.003  15.069  1.00  0.00    -0.129 N
ATOM      2  H3  UNL     1      11.044  -9.495  15.038  1.00  0.00     0.205 HD
HETATM    3  C8  UNL     1       9.031  -9.602  14.412  1.00  0.00     0.705 C
HETATM    4  N4  UNL     1       8.647  -9.084  13.308  1.00  0.00    -0.232 N
ATOM      5  H41 UNL     1       7.848  -9.512  12.840  1.00  0.00     0.174 HD
ATOM      6  H42 UNL     1       9.134  -8.271  12.932  1.00  0.00     0.174 HD
HETATM    7  N5  UNL     1       8.358 -10.729  14.932  1.00  0.00    -0.132 N
ATOM      8  H5  UNL     1       8.768 -11.245  15.710  1.00  0.00     0.205 HD
ENDROOT
BRANCH   1   9
HETATM    9  N2  UNL     1      10.096  -7.791  15.748  1.00  0.00    -0.254 N
HETATM   10  C7  UNL     1       9.531  -7.715  17.016  1.00  0.00     0.259 C
HETATM   11  O2  UNL     1       9.071  -8.786  17.549  1.00  0.00    -0.269 OA
ATOM     12  H2  UNL     1      10.473  -6.949  15.312  1.00  0.00     0.190 HD
BRANCH  10  13
HETATM   13  C6  UNL     1       9.384  -6.506  17.870  1.00  0.00     0.181 C
HETATM   14  N1  UNL     1       9.787  -6.648  19.216  1.00  0.00    -0.339 N
HETATM   15  C2  UNL     1      11.069  -7.106  19.699  1.00  0.00     0.216 C
HETATM   16  C3  UNL     1       8.750  -6.256  20.115  1.00  0.00     0.127 C
HETATM   17  C1  UNL     1      11.343  -7.192  21.150  1.00  0.00     0.117 C
HETATM   18  O1  UNL     1      11.935  -7.423  18.880  1.00  0.00    -0.274 OA
HETATM   19  C4  UNL     1       7.527  -6.136  19.270  1.00  0.00     0.022 C
HETATM   20  C5  UNL     1       7.996  -5.982  17.860  1.00  0.00     0.037 C
ENDBRANCH  10  13
ENDBRANCH   1   9
BRANCH   7  21
HETATM   21  N6  UNL     1       7.139 -11.145  14.396  1.00  0.00    -0.299 N
HETATM   22  C9  UNL     1       6.704 -12.338  14.448  1.00  0.00     0.112 C
ATOM     23  H6  UNL     1       6.559 -10.447  13.932  1.00  0.00     0.186 HD
BRANCH  22  24
HETATM   24  C10 UNL     1       5.399 -12.665  13.846  1.00  0.00     0.163 C
HETATM   25  C11 UNL     1       4.581 -13.494  14.833  1.00  0.00     0.063 C
HETATM   26  C12 UNL     1       5.401 -14.579  14.173  1.00  0.00     0.171 C
HETATM   27  O3  UNL     1       5.423 -13.786  13.020  1.00  0.00    -0.380 OA
ENDBRANCH  22  24
ENDBRANCH   7  21
TORSDOF 4
ENDMDL