MODEL 1
REMARK VINA RESULT: -8.053070634      0.000      0.000
REMARK  7 active torsions:
REMARK  status: ('A' for Active; 'I' for Inactive)
REMARK    1  A    between atoms: C6_6  and  C7_7
REMARK    2  A    between atoms: C7_7  and  N1_8
REMARK    3  A    between atoms: N1_8  and  N2_9
REMARK       I    between atoms: N2_9  and  C8_11
REMARK       I    between atoms: C8_11  and  N3_13
REMARK    4  A    between atoms: N3_13  and  N4_15
REMARK    5  A    between atoms: N4_15  and  C9_17
REMARK    6  A    between atoms: C9_17  and  C10_21
REMARK    7  A    between atoms: C10_21  and  N6_22
ROOT
HETATM    1  C1  UNL     1       6.700 -13.413  12.431  1.00  0.00     0.018 C
HETATM    2  C2  UNL     1       7.239 -12.465  12.943  1.00  0.00    -0.078 C
HETATM    3  C3  UNL     1       7.861 -11.311  13.542  1.00  0.00     0.017 A
HETATM    4  C4  UNL     1       7.991 -11.135  14.901  1.00  0.00     0.021 A
HETATM    5  C5  UNL     1       8.587 -10.017  15.461  1.00  0.00     0.015 A
HETATM    6  C6  UNL     1       9.077  -9.028  14.654  1.00  0.00    -0.005 A
HETATM    7  C11 UNL     1       8.961  -9.177  13.291  1.00  0.00     0.015 A
HETATM    8  C12 UNL     1       8.369 -10.288  12.733  1.00  0.00     0.021 A
ENDROOT
BRANCH   6   9
HETATM    9  C7  UNL     1       9.702  -7.824  15.241  1.00  0.00     0.220 C
BRANCH   9  10
HETATM   10  N1  UNL     1       9.496  -7.495  16.365  1.00  0.00    -0.334 NA
BRANCH  10  11
HETATM   11  N2  UNL     1       9.480  -7.191  17.626  1.00  0.00    -0.184 N
HETATM   12  C8  UNL     1      10.045  -7.936  18.730  1.00  0.00     0.363 C
HETATM   13  O1  UNL     1      10.626  -8.999  18.459  1.00  0.00    -0.243 OA
HETATM   14  N3  UNL     1       9.919  -7.450  20.027  1.00  0.00    -0.248 N
ATOM     15  H3  UNL     1       9.428  -6.568  20.173  1.00  0.00     0.192 HD
ATOM     16  H2  UNL     1       9.012  -6.318  17.870  1.00  0.00     0.207 HD
BRANCH  14  17
HETATM   17  N4  UNL     1      10.444  -8.128  21.149  1.00  0.00    -0.284 N
ATOM     18  H4  UNL     1       9.831  -8.390  21.921  1.00  0.00     0.188 HD
BRANCH  17  19
HETATM   19  C9  UNL     1      11.826  -8.444  21.201  1.00  0.00     0.114 C
HETATM   20  N5  UNL     1      12.131  -9.718  21.262  1.00  0.00    -0.386 N
ATOM     21  H52 UNL     1      11.356 -10.381  21.262  1.00  0.00     0.157 HD
ATOM     22  H51 UNL     1      13.125  -9.946  21.299  1.00  0.00     0.157 HD
BRANCH  19  23
HETATM   23  C10 UNL     1      12.946  -7.486  21.201  1.00  0.00     0.278 C
BRANCH  23  24
HETATM   24  N6  UNL     1      13.788  -7.732  20.060  1.00  0.00    -0.148 N
HETATM   25  O2  UNL     1      13.559  -7.122  18.996  1.00  0.00    -0.536 OA
HETATM   26  O3  UNL     1      14.809  -8.614  20.137  1.00  0.00    -0.536 OA
ENDBRANCH  23  24
ENDBRANCH  19  23
ENDBRANCH  17  19
ENDBRANCH  14  17
ENDBRANCH  10  11
ENDBRANCH   9  10
ENDBRANCH   6   9
TORSDOF 7
ENDMDL