MODEL 1
REMARK VINA RESULT: -6.557226923      0.000      0.000
REMARK  9 active torsions:
REMARK  status: ('A' for Active; 'I' for Inactive)
REMARK    1  A    between atoms: C2_2  and  O1_3
REMARK    2  A    between atoms: O1_3  and  C3_4
REMARK    3  A    between atoms: C3_4  and  C4_6
REMARK    4  A    between atoms: C4_6  and  N1_7
REMARK    5  A    between atoms: N1_7  and  C5_9
REMARK    6  A    between atoms: C5_9  and  N2_11
REMARK    7  A    between atoms: N2_11  and  N3_13
REMARK       I    between atoms: N3_13  and  C6_15
REMARK       I    between atoms: C6_15  and  N4_17
REMARK    8  A    between atoms: N4_17  and  C7_19
REMARK    9  A    between atoms: C7_19  and  C8_21
ROOT
HETATM    1  N2  UNL     1      11.418  46.723 -32.888  1.00  0.00    -0.272 N
ATOM      2  H2  UNL     1      12.048  47.024 -32.144  1.00  0.00     0.189 HD
ENDROOT
BRANCH   1   3
HETATM    3  C5  UNL     1      11.763  45.548 -33.530  1.00  0.00     0.187 C
HETATM    4  S1  UNL     1      11.352  44.120 -32.689  1.00  0.00    -0.040 SA
BRANCH   3   5
HETATM    5  N1  UNL     1      12.394  45.378 -34.759  1.00  0.00    -0.357 N
ATOM      6  H1  UNL     1      13.195  45.987 -34.931  1.00  0.00     0.162 HD
BRANCH   5   7
HETATM    7  C4  UNL     1      12.074  44.467 -35.815  1.00  0.00     0.233 C
BRANCH   7   8
HETATM    8  C3  UNL     1      12.851  44.795 -37.063  1.00  0.00     0.276 C
HETATM    9  O2  UNL     1      12.204  45.172 -38.068  1.00  0.00    -0.263 OA
BRANCH   8  10
HETATM   10  O1  UNL     1      14.217  44.697 -37.140  1.00  0.00    -0.321 OA
BRANCH  10  11
HETATM   11  C2  UNL     1      14.878  44.003 -38.199  1.00  0.00     0.174 C
HETATM   12  C1  UNL     1      16.282  44.491 -38.333  1.00  0.00     0.034 C
ENDBRANCH  10  11
ENDBRANCH   8  10
ENDBRANCH   7   8
ENDBRANCH   5   7
ENDBRANCH   3   5
ENDBRANCH   1   3
BRANCH   1  13
HETATM   13  N3  UNL     1      10.340  47.531 -33.122  1.00  0.00    -0.249 N
HETATM   14  C6  UNL     1      10.249  48.227 -34.400  1.00  0.00     0.339 C
HETATM   15  O3  UNL     1      11.178  48.032 -35.208  1.00  0.00    -0.245 OA
HETATM   16  N4  UNL     1       9.155  49.078 -34.691  1.00  0.00    -0.302 N
ATOM     17  H4  UNL     1       8.445  49.178 -33.966  1.00  0.00     0.171 HD
ATOM     18  H3  UNL     1       9.613  47.645 -32.416  1.00  0.00     0.192 HD
BRANCH  16  19
HETATM   19  C7  UNL     1       8.953  49.797 -35.879  1.00  0.00     0.081 C
HETATM   20  S2  UNL     1       7.785  49.236 -36.909  1.00  0.00    -0.065 SA
BRANCH  19  21
HETATM   21  C8  UNL     1       9.697  50.973 -36.290  1.00  0.00     0.065 C
HETATM   22  C9  UNL     1       9.133  51.701 -37.490  1.00  0.00     0.012 C
ENDBRANCH  19  21
ENDBRANCH  16  19
ENDBRANCH   1  13
TORSDOF 9
ENDMDL