MODEL 2
REMARK VINA RESULT: -6.813205830      0.033      1.080
REMARK  4 active torsions:
REMARK  status: ('A' for Active; 'I' for Inactive)
REMARK       I    between atoms: C1_2  and  N2_4
REMARK       I    between atoms: N2_4  and  C2_6
REMARK       I    between atoms: C2_6  and  N3_8
REMARK    1  A    between atoms: N3_8  and  N4_10
REMARK    2  A    between atoms: C3_12  and  C4_13
REMARK    3  A    between atoms: C7_16  and  S1_17
REMARK    4  A    between atoms: S1_17  and  N5_18
ROOT
HETATM    1  C4  UNL     1      13.320  44.739 -36.974  1.00  0.00    -0.019 A
HETATM    2  C5  UNL     1      12.407  44.023 -36.225  1.00  0.00     0.014 A
HETATM    3  C6  UNL     1      11.440  44.696 -35.500  1.00  0.00     0.026 A
HETATM    4  C7  UNL     1      11.336  46.072 -35.487  1.00  0.00     0.079 A
HETATM    5  C8  UNL     1      12.250  46.781 -36.236  1.00  0.00     0.026 A
HETATM    6  C9  UNL     1      13.218  46.106 -36.961  1.00  0.00     0.014 A
ENDROOT
BRANCH   1   7
HETATM    7  C3  UNL     1      14.364  44.057 -37.759  1.00  0.00     0.118 C
HETATM    8  N4  UNL     1      15.595  44.298 -37.473  1.00  0.00    -0.307 N
ATOM      9  H4  UNL     1      15.856  44.941 -36.725  1.00  0.00     0.186 HD
BRANCH   8  10
HETATM   10  N3  UNL     1      16.580  43.617 -38.256  1.00  0.00    -0.252 N
HETATM   11  C2  UNL     1      17.678  44.363 -38.681  1.00  0.00     0.342 C
HETATM   12  N2  UNL     1      18.748  43.886 -39.455  1.00  0.00    -0.262 N
HETATM   13  O2  UNL     1      17.734  45.596 -38.345  1.00  0.00    -0.245 OA
HETATM   14  C1  UNL     1      18.871  42.573 -39.919  1.00  0.00     0.336 C
ATOM     15  H2  UNL     1      19.488  44.544 -39.696  1.00  0.00     0.175 HD
HETATM   16  N1  UNL     1      20.023  42.186 -40.714  1.00  0.00    -0.040 NA
HETATM   17  O1  UNL     1      18.066  41.639 -39.723  1.00  0.00    -0.251 OA
ATOM     18  H3  UNL     1      16.482  42.629 -38.493  1.00  0.00     0.191 HD
ENDBRANCH   8  10
ENDBRANCH   1   7
BRANCH   4  19
HETATM   19  S1  UNL     1      10.086  46.882 -34.546  1.00  0.00     0.256 S
HETATM   20  O3  UNL     1       9.355  47.861 -35.426  1.00  0.00    -0.201 OA
HETATM   21  O4  UNL     1       9.080  45.912 -34.029  1.00  0.00    -0.201 OA
BRANCH  19  22
HETATM   22  N5  UNL     1      10.897  47.707 -33.257  1.00  0.00    -0.324 N
ATOM     23  H52 UNL     1      11.722  48.299 -33.349  1.00  0.00     0.169 HD
ATOM     24  H51 UNL     1      10.388  47.482 -32.402  1.00  0.00     0.169 HD
ENDBRANCH  19  22
ENDBRANCH   4  19
TORSDOF 4
ENDMDL