MODEL 4
REMARK VINA RESULT: -6.420520671      0.920      1.435
REMARK  7 active torsions:
REMARK  status: ('A' for Active; 'I' for Inactive)
REMARK    1  A    between atoms: C1_2  and  O2_4
REMARK    2  A    between atoms: O2_4  and  C2_5
REMARK    3  A    between atoms: C5_8  and  C6_9
REMARK    4  A    between atoms: C7_10  and  N2_11
REMARK    5  A    between atoms: C7_10  and  C8_19
REMARK    6  A    between atoms: N2_11  and  S1_13
REMARK    7  A    between atoms: S1_13  and  N3_14
ROOT
HETATM    1  C6  UNL     1      11.856  46.654 -36.322  1.00  0.00     0.048 C
HETATM    2  C7  UNL     1      11.120  46.437 -35.267  1.00  0.00     0.121 C
ENDROOT
BRANCH   2   3
HETATM    3  N2  UNL     1      10.950  45.148 -34.724  1.00  0.00    -0.261 N
ATOM      4  H2  UNL     1      10.502  44.453 -35.321  1.00  0.00     0.180 HD
BRANCH   3   5
HETATM    5  S1  UNL     1      11.418  44.642 -33.182  1.00  0.00     0.317 S
HETATM    6  O3  UNL     1      11.719  43.164 -33.238  1.00  0.00    -0.183 OA
HETATM    7  O4  UNL     1      10.362  44.866 -32.129  1.00  0.00    -0.183 OA
BRANCH   5   8
HETATM    8  N3  UNL     1      12.837  45.430 -32.617  1.00  0.00    -0.311 N
ATOM      9  H32 UNL     1      13.731  45.368 -33.104  1.00  0.00     0.170 HD
ATOM     10  H31 UNL     1      12.685  45.956 -31.756  1.00  0.00     0.170 HD
ENDBRANCH   5   8
ENDBRANCH   3   5
ENDBRANCH   2   3
BRANCH   2  11
HETATM   11  C8  UNL     1      10.414  47.570 -34.635  1.00  0.00     0.227 C
HETATM   12  O5  UNL     1       9.361  48.043 -35.178  1.00  0.00    -0.643 OA
HETATM   13  O6  UNL     1      10.882  48.103 -33.483  1.00  0.00    -0.643 OA
ENDBRANCH   2  11
BRANCH   1  14
HETATM   14  C5  UNL     1      12.592  45.687 -37.093  1.00  0.00    -0.034 A
HETATM   15  C4  UNL     1      12.137  45.045 -38.219  1.00  0.00     0.014 A
HETATM   16  C3  UNL     1      12.916  44.134 -38.922  1.00  0.00     0.038 A
HETATM   17  C2  UNL     1      14.187  43.830 -38.523  1.00  0.00     0.080 A
HETATM   18  C10 UNL     1      14.648  44.471 -37.393  1.00  0.00     0.038 A
HETATM   19  C9  UNL     1      13.890  45.373 -36.688  1.00  0.00     0.014 A
BRANCH  17  20
HETATM   20  O2  UNL     1      14.989  42.931 -39.198  1.00  0.00    -0.264 OA
BRANCH  20  21
HETATM   21  C1  UNL     1      16.364  42.873 -39.103  1.00  0.00     0.378 C
HETATM   22  N1  UNL     1      17.073  42.089 -38.161  1.00  0.00    -0.032 NA
HETATM   23  O1  UNL     1      17.030  43.568 -39.910  1.00  0.00    -0.242 OA
ENDBRANCH  20  21
ENDBRANCH  17  20
ENDBRANCH   1  14
TORSDOF 7
ENDMDL