MODEL 1
REMARK VINA RESULT: -8.099779923      0.000      0.000
REMARK  7 active torsions:
REMARK  status: ('A' for Active; 'I' for Inactive)
REMARK    1  A    between atoms: N1_1  and  C1_5
REMARK    2  A    between atoms: C1_5  and  C2_6
REMARK    3  A    between atoms: C1_5  and  C14_22
REMARK       I    between atoms: C2_6  and  N2_8
REMARK    4  A    between atoms: N2_8  and  C3_10
REMARK    5  A    between atoms: C8_15  and  C9_16
REMARK    6  A    between atoms: C14_22  and  O3_23
REMARK    7  A    between atoms: C14_22  and  O4_25
ROOT
HETATM    1  C2  UNL     1       9.014  48.716 -35.861  1.00  0.00     0.253 C
HETATM    2  O1  UNL     1       8.239  47.780 -36.182  1.00  0.00    -0.271 OA
HETATM    3  N2  UNL     1      10.198  48.386 -35.166  1.00  0.00    -0.355 N
ATOM      4  H2  UNL     1      10.839  49.133 -34.898  1.00  0.00     0.162 HD
ENDROOT
BRANCH   3   5
HETATM    5  C3  UNL     1      10.530  47.017 -34.822  1.00  0.00     0.084 C
HETATM    6  C4  UNL     1      11.171  47.030 -33.465  1.00  0.00     0.025 C
HETATM    7  C5  UNL     1      10.798  45.791 -32.645  1.00  0.00     0.002 C
HETATM    8  C6  UNL     1      11.836  44.738 -33.016  1.00  0.00     0.000 C
HETATM    9  C7  UNL     1      11.550  44.355 -34.451  1.00  0.00     0.005 C
HETATM   10  C8  UNL     1      12.237  45.279 -35.437  1.00  0.00    -0.006 C
HETATM   11  C13 UNL     1      11.403  46.422 -35.888  1.00  0.00     0.030 C
BRANCH  10  12
HETATM   12  C9  UNL     1      12.687  44.431 -36.588  1.00  0.00     0.015 C
HETATM   13  C10 UNL     1      14.086  44.664 -37.027  1.00  0.00     0.033 C
HETATM   14  C11 UNL     1      14.004  44.249 -38.485  1.00  0.00     0.168 C
HETATM   15  O2  UNL     1      12.755  44.675 -38.919  1.00  0.00    -0.391 OA
HETATM   16  C12 UNL     1      11.894  44.586 -37.838  1.00  0.00     0.172 C
ENDBRANCH  10  12
ENDBRANCH   3   5
BRANCH   1  17
HETATM   17  C1  UNL     1       8.672  50.130 -36.217  1.00  0.00     0.328 C
BRANCH  17  18
HETATM   18  N1  UNL     1       7.877  50.180 -37.425  1.00  0.00    -0.062 N
ATOM     19  H13 UNL     1       7.962  49.321 -37.967  1.00  0.00     0.275 HD
ATOM     20  H12 UNL     1       6.878  50.135 -37.221  1.00  0.00     0.275 HD
ATOM     21  H11 UNL     1       8.112  51.002 -37.981  1.00  0.00     0.275 HD
ENDBRANCH  17  18
BRANCH  17  22
HETATM   22  C14 UNL     1       9.992  50.835 -36.536  1.00  0.00     0.293 C
BRANCH  22  23
HETATM   23  O3  UNL     1      10.578  51.181 -35.325  1.00  0.00    -0.369 OA
ATOM     24  H3  UNL     1      10.787  50.373 -34.871  1.00  0.00     0.212 HD
ENDBRANCH  22  23
BRANCH  22  25
HETATM   25  O4  UNL     1       9.802  51.937 -37.346  1.00  0.00    -0.369 OA
ATOM     26  H4  UNL     1      10.307  52.685 -37.049  1.00  0.00     0.212 HD
ENDBRANCH  22  25
ENDBRANCH  17  22
ENDBRANCH   1  17
TORSDOF 7
ENDMDL