MODEL 1
REMARK VINA RESULT: -6.533202646      0.000      0.000
REMARK  4 active torsions:
REMARK  status: ('A' for Active; 'I' for Inactive)
REMARK    1  A    between atoms: C3_3  and  C4_4
REMARK    2  A    between atoms: C7_7  and  C8_8
REMARK    3  A    between atoms: N1_9  and  N2_11
REMARK       I    between atoms: N2_11  and  C9_13
REMARK       I    between atoms: C9_13  and  N7_21
REMARK    4  A    between atoms: N3_14  and  N4_16
ROOT
HETATM    1  C1  UNL     1      14.134  44.666 -37.467  1.00  0.00     0.012 C
HETATM    2  C2  UNL     1      14.910  44.152 -38.242  1.00  0.00    -0.112 C
HETATM    3  C3  UNL     1      15.839  43.526 -39.199  1.00  0.00     0.139 C
ENDROOT
BRANCH   3   4
HETATM    4  C4  UNL     1      17.103  43.264 -38.444  1.00  0.00    -0.006 A
HETATM    5  C5  UNL     1      17.931  44.155 -37.831  1.00  0.00     0.017 A
HETATM    6  C6  UNL     1      19.015  43.680 -37.211  1.00  0.00     0.021 A
HETATM    7  C7  UNL     1      19.230  42.328 -37.229  1.00  0.00     0.022 A
HETATM    8  S1  UNL     1      17.857  41.772 -38.143  1.00  0.00    -0.093 SA
BRANCH   7   9
HETATM    9  C8  UNL     1      20.291  41.507 -36.661  1.00  0.00     0.126 C
HETATM   10  N1  UNL     1      20.154  40.711 -35.735  1.00  0.00    -0.296 N
ATOM     11  H1  UNL     1      21.028  40.242 -35.497  1.00  0.00     0.186 HD
BRANCH  10  12
HETATM   12  N2  UNL     1      19.119  40.301 -34.946  1.00  0.00    -0.130 N
HETATM   13  C9  UNL     1      18.356  39.168 -35.338  1.00  0.00     0.720 C
HETATM   14  N3  UNL     1      17.094  39.326 -35.545  1.00  0.00    -0.128 N
HETATM   15  N7  UNL     1      18.984  37.912 -35.494  1.00  0.00    -0.123 N
ATOM     16  H3  UNL     1      16.677  40.249 -35.423  1.00  0.00     0.205 HD
HETATM   17  C11 UNL     1      19.150  37.361 -36.759  1.00  0.00     0.196 C
ATOM     18  H7  UNL     1      19.317  37.406 -34.673  1.00  0.00     0.197 HD
HETATM   19  N8  UNL     1      19.292  36.920 -37.826  1.00  0.00    -0.171 NA
ATOM     20  H2  UNL     1      18.895  40.802 -34.086  1.00  0.00     0.205 HD
BRANCH  14  21
HETATM   21  N4  UNL     1      16.295  38.261 -35.930  1.00  0.00    -0.262 N
HETATM   22  C10 UNL     1      15.264  37.972 -35.230  1.00  0.00     0.216 C
HETATM   23  N5  UNL     1      14.935  38.721 -34.078  1.00  0.00    -0.065 NA
HETATM   24  N6  UNL     1      14.448  36.884 -35.623  1.00  0.00    -0.065 NA
ATOM     25  H4  UNL     1      16.525  37.715 -36.760  1.00  0.00     0.190 HD
ENDBRANCH  14  21
ENDBRANCH  10  12
ENDBRANCH   7   9
ENDBRANCH   3   4
TORSDOF 4
ENDMDL