MODEL 1
REMARK VINA RESULT: -5.746330499      0.000      0.000
REMARK  6 active torsions:
REMARK  status: ('A' for Active; 'I' for Inactive)
REMARK    1  A    between atoms: C2_2  and  N1_4
REMARK    2  A    between atoms: C2_2  and  C4_8
REMARK       I    between atoms: C4_8  and  N2_10
REMARK    3  A    between atoms: N2_10  and  C5_12
REMARK    4  A    between atoms: C7_14  and  N3_15
REMARK    5  A    between atoms: N3_15  and  S1_17
REMARK    6  A    between atoms: C12_23  and  N4_24
ROOT
HETATM    1  C5  UNL     1      12.037  45.972 -36.626  1.00  0.00     0.116 C
HETATM    2  C6  UNL     1      13.526  46.034 -36.891  1.00  0.00     0.052 C
HETATM    3  C7  UNL     1      13.966  45.128 -38.008  1.00  0.00     0.091 C
HETATM    4  C10 UNL     1      12.746  44.504 -38.613  1.00  0.00     0.028 C
HETATM    5  C11 UNL     1      11.961  43.724 -37.578  1.00  0.00     0.037 C
HETATM    6  C12 UNL     1      11.573  44.549 -36.398  1.00  0.00     0.206 C
ENDROOT
BRANCH   1   7
HETATM    7  N2  UNL     1      11.781  46.810 -35.486  1.00  0.00    -0.352 N
HETATM    8  C4  UNL     1      10.629  47.620 -35.391  1.00  0.00     0.253 C
HETATM    9  O1  UNL     1       9.811  47.590 -36.354  1.00  0.00    -0.271 OA
ATOM     10  H2  UNL     1      12.454  46.819 -34.719  1.00  0.00     0.163 HD
BRANCH   8  11
HETATM   11  C2  UNL     1      10.324  48.491 -34.249  1.00  0.00     0.196 C
HETATM   12  C1  UNL     1       9.906  47.691 -33.019  1.00  0.00     0.056 C
HETATM   13  C3  UNL     1      11.499  49.342 -33.827  1.00  0.00     0.056 C
BRANCH  11  14
HETATM   14  N1  UNL     1       9.233  49.384 -34.561  1.00  0.00    -0.062 N
ATOM     15  H13 UNL     1       8.804  49.797 -33.733  1.00  0.00     0.275 HD
ATOM     16  H12 UNL     1       9.539  50.255 -34.995  1.00  0.00     0.275 HD
ATOM     17  H11 UNL     1       8.574  48.860 -35.135  1.00  0.00     0.275 HD
ENDBRANCH  11  14
ENDBRANCH   8  11
ENDBRANCH   1   7
BRANCH   6  18
HETATM   18  N4  UNL     1      12.044  44.070 -35.140  1.00  0.00    -0.073 N
ATOM     19  H43 UNL     1      12.918  44.519 -34.865  1.00  0.00     0.274 HD
ATOM     20  H42 UNL     1      11.460  44.391 -34.368  1.00  0.00     0.274 HD
ATOM     21  H41 UNL     1      12.129  43.054 -35.157  1.00  0.00     0.274 HD
ENDBRANCH   6  18
BRANCH   3  22
HETATM   22  N3  UNL     1      14.937  44.231 -37.511  1.00  0.00    -0.347 N
ATOM     23  H3  UNL     1      14.718  43.672 -36.686  1.00  0.00     0.169 HD
BRANCH  22  24
HETATM   24  S1  UNL     1      16.560  44.046 -38.292  1.00  0.00     0.013 S
HETATM   25  C8  UNL     1      16.576  42.178 -37.967  1.00  0.00     0.135 C
HETATM   26  C9  UNL     1      18.190  44.384 -37.512  1.00  0.00     0.135 C
HETATM   27  O2  UNL     1      16.593  43.523 -40.174  1.00  0.00    -0.251 OA
ENDBRANCH  22  24
ENDBRANCH   3  22
TORSDOF 6
ENDMDL