MODEL 4
REMARK VINA RESULT: -4.578869899      6.028     10.262
REMARK  7 active torsions:
REMARK  status: ('A' for Active; 'I' for Inactive)
REMARK    1  A    between atoms: O1_3  and  C3_4
REMARK       I    between atoms: C3_4  and  N1_6
REMARK    2  A    between atoms: N1_6  and  C4_8
REMARK    3  A    between atoms: C4_8  and  C5_9
REMARK    4  A    between atoms: C4_8  and  C11_20
REMARK    5  A    between atoms: C5_9  and  O3_10
REMARK    6  A    between atoms: C5_9  and  N2_12
REMARK    7  A    between atoms: C9_16  and  C10_17
ROOT
HETATM    1  C1  UNL     1      12.539  44.462 -38.127  1.00  0.00     0.045 C
HETATM    2  C2  UNL     1      13.572  44.086 -38.628  1.00  0.00     0.054 C
HETATM    3  O1  UNL     1      14.751  43.680 -39.210  1.00  0.00    -0.209 OA
ENDROOT
BRANCH   3   4
HETATM    4  C3  UNL     1      15.830  43.397 -38.395  1.00  0.00     0.374 C
HETATM    5  O2  UNL     1      15.682  43.342 -37.155  1.00  0.00    -0.237 OA
HETATM    6  N1  UNL     1      17.093  43.174 -38.993  1.00  0.00    -0.326 N
ATOM      7  H1  UNL     1      17.176  43.226 -40.008  1.00  0.00     0.165 HD
BRANCH   6   8
HETATM    8  C4  UNL     1      18.296  42.866 -38.186  1.00  0.00     0.153 C
BRANCH   8   9
HETATM    9  C5  UNL     1      18.954  41.619 -38.712  1.00  0.00     0.381 C
BRANCH   9  10
HETATM   10  O3  UNL     1      18.318  41.397 -39.970  1.00  0.00    -0.366 OA
ATOM     11  H3  UNL     1      18.777  40.647 -40.330  1.00  0.00     0.212 HD
ENDBRANCH   9  10
BRANCH   9  12
HETATM   12  N2  UNL     1      18.664  40.440 -37.940  1.00  0.00     0.134 N
HETATM   13  C6  UNL     1      19.272  39.238 -38.406  1.00  0.00     0.277 C
HETATM   14  C7  UNL     1      20.202  38.759 -37.318  1.00  0.00     0.033 C
HETATM   15  C8  UNL     1      20.291  39.950 -36.397  1.00  0.00     0.049 C
HETATM   16  C9  UNL     1      18.901  40.547 -36.538  1.00  0.00     0.326 C
BRANCH  16  17
HETATM   17  C10 UNL     1      17.951  39.666 -35.769  1.00  0.00     0.207 C
HETATM   18  O4  UNL     1      16.784  39.507 -36.199  1.00  0.00    -0.646 OA
HETATM   19  O5  UNL     1      18.418  39.062 -34.601  1.00  0.00    -0.646 OA
ENDBRANCH  16  17
ENDBRANCH   9  12
ENDBRANCH   8   9
BRANCH   8  20
HETATM   20  C11 UNL     1      19.126  44.096 -38.201  1.00  0.00    -0.026 C
HETATM   21  C12 UNL     1      20.272  44.104 -39.176  1.00  0.00     0.016 C
HETATM   22  C13 UNL     1      18.342  45.366 -38.404  1.00  0.00     0.016 C
HETATM   23  C14 UNL     1      19.783  44.242 -36.818  1.00  0.00     0.016 C
ENDBRANCH   8  20
ENDBRANCH   6   8
ENDBRANCH   3   4
TORSDOF 7
ENDMDL