MODEL 3
REMARK VINA RESULT: -6.639211125      2.369      8.994
REMARK  5 active torsions:
REMARK  status: ('A' for Active; 'I' for Inactive)
REMARK       I    between atoms: C1_2  and  N1_3
REMARK    1  A    between atoms: C1_2  and  O2_13
REMARK    2  A    between atoms: N1_3  and  C2_5
REMARK    3  A    between atoms: O2_13  and  C7_14
REMARK    4  A    between atoms: C7_14  and  C8_15
REMARK    5  A    between atoms: C8_15  and  N3_16
REMARK       I    between atoms: N3_16  and  C9_18
REMARK       I    between atoms: C9_18  and  N4_20
ROOT
HETATM    1  O2  UNL     1      12.958  44.367 -36.355  1.00  0.00    -0.302 OA
ENDROOT
BRANCH   1   2
HETATM    2  C1  UNL     1      11.908  45.027 -35.731  1.00  0.00     0.360 C
HETATM    3  O1  UNL     1      10.969  44.335 -35.266  1.00  0.00    -0.239 OA
HETATM    4  N1  UNL     1      11.945  46.431 -35.651  1.00  0.00    -0.332 N
ATOM      5  H1  UNL     1      12.728  46.955 -36.042  1.00  0.00     0.165 HD
BRANCH   4   6
HETATM    6  C2  UNL     1      10.848  47.118 -35.000  1.00  0.00     0.089 C
HETATM    7  C3  UNL     1       9.896  47.696 -36.049  1.00  0.00     0.052 C
HETATM    8  C4  UNL     1       8.849  48.489 -35.256  1.00  0.00     0.234 C
HETATM    9  N2  UNL     1       9.429  49.703 -34.719  1.00  0.00    -0.075 N
HETATM   10  C5  UNL     1      10.868  49.607 -34.597  1.00  0.00     0.234 C
ATOM     11  H22 UNL     1       9.157  50.517 -35.270  1.00  0.00     0.277 HD
ATOM     12  H21 UNL     1       8.997  49.958 -33.831  1.00  0.00     0.277 HD
HETATM   13  C6  UNL     1      11.313  48.238 -34.131  1.00  0.00     0.052 C
ENDBRANCH   4   6
ENDBRANCH   1   2
BRANCH   1  14
HETATM   14  C7  UNL     1      13.953  45.025 -37.114  1.00  0.00     0.200 C
BRANCH  14  15
HETATM   15  C8  UNL     1      14.658  44.015 -37.976  1.00  0.00     0.151 C
BRANCH  15  16
HETATM   16  N3  UNL     1      16.078  44.312 -38.099  1.00  0.00    -0.341 N
HETATM   17  C9  UNL     1      16.815  43.893 -39.233  1.00  0.00     0.318 C
HETATM   18  O3  UNL     1      16.212  43.253 -40.138  1.00  0.00    -0.247 OA
HETATM   19  N4  UNL     1      18.192  44.186 -39.342  1.00  0.00    -0.330 N
HETATM   20  C10 UNL     1      18.839  44.923 -38.276  1.00  0.00     0.153 C
HETATM   21  C13 UNL     1      18.902  43.734 -40.522  1.00  0.00     0.153 C
HETATM   22  C11 UNL     1      20.281  45.121 -38.666  1.00  0.00     0.187 C
HETATM   23  O4  UNL     1      20.284  45.633 -39.972  1.00  0.00    -0.388 OA
HETATM   24  C12 UNL     1      20.111  44.549 -40.837  1.00  0.00     0.187 C
ATOM     25  H3  UNL     1      16.549  44.829 -37.357  1.00  0.00     0.164 HD
ENDBRANCH  15  16
ENDBRANCH  14  15
ENDBRANCH   1  14
TORSDOF 5
ENDMDL