MODEL 5
REMARK VINA RESULT: -7.977122661      1.122      1.192
REMARK  9 active torsions:
REMARK  status: ('A' for Active; 'I' for Inactive)
REMARK    1  A    between atoms: C2_2  and  O1_4
REMARK    2  A    between atoms: C2_2  and  C4_6
REMARK    3  A    between atoms: C4_6  and  C5_8
REMARK       I    between atoms: C5_8  and  N1_10
REMARK    4  A    between atoms: N1_10  and  C6_12
REMARK    5  A    between atoms: C6_12  and  C7_13
REMARK    6  A    between atoms: C6_12  and  C15_21
REMARK    7  A    between atoms: C8_14  and  C9_15
REMARK    8  A    between atoms: C15_21  and  O4_22
REMARK    9  A    between atoms: C15_21  and  O5_24
ROOT
HETATM    1  C6  UNL     1      11.992  45.423 -35.041  1.00  0.00     0.219 C
ENDROOT
BRANCH   1   2
HETATM    2  N1  UNL     1      11.666  46.813 -35.251  1.00  0.00    -0.335 N
HETATM    3  C5  UNL     1      11.304  47.704 -34.216  1.00  0.00     0.291 C
HETATM    4  O3  UNL     1      11.245  47.306 -32.995  1.00  0.00    -0.264 OA
ATOM      5  H1  UNL     1      11.698  47.174 -36.205  1.00  0.00     0.164 HD
BRANCH   3   6
HETATM    6  C4  UNL     1      10.997  49.084 -34.550  1.00  0.00     0.249 C
HETATM    7  O2  UNL     1      11.844  49.965 -34.284  1.00  0.00    -0.284 OA
BRANCH   6   8
HETATM    8  C2  UNL     1       9.692  49.449 -35.200  1.00  0.00     0.120 C
HETATM    9  C1  UNL     1       9.236  48.258 -36.032  1.00  0.00     0.054 C
HETATM   10  C3  UNL     1       9.838  50.687 -36.049  1.00  0.00     0.054 C
BRANCH   8  11
HETATM   11  O1  UNL     1       8.712  49.679 -34.253  1.00  0.00    -0.382 OA
ATOM     12  H1  UNL     1       7.889  49.389 -34.628  1.00  0.00     0.211 HD
ENDBRANCH   8  11
ENDBRANCH   6   8
ENDBRANCH   3   6
ENDBRANCH   1   2
BRANCH   1  13
HETATM   13  C7  UNL     1      12.981  45.013 -36.059  1.00  0.00    -0.070 C
HETATM   14  C8  UNL     1      13.805  44.680 -36.876  1.00  0.00    -0.065 C
BRANCH  14  15
HETATM   15  C9  UNL     1      14.802  44.283 -37.830  1.00  0.00     0.017 A
HETATM   16  C10 UNL     1      16.078  44.799 -37.740  1.00  0.00     0.020 A
HETATM   17  C11 UNL     1      17.081  44.457 -38.626  1.00  0.00     0.001 A
HETATM   18  C12 UNL     1      16.790  43.561 -39.640  1.00  0.00     0.000 A
HETATM   19  C13 UNL     1      15.532  43.026 -39.763  1.00  0.00     0.001 A
HETATM   20  C14 UNL     1      14.555  43.394 -38.855  1.00  0.00     0.020 A
ENDBRANCH  14  15
ENDBRANCH   1  13
BRANCH   1  21
HETATM   21  C15 UNL     1      10.773  44.535 -35.103  1.00  0.00     0.288 C
BRANCH  21  22
HETATM   22  O4  UNL     1      11.031  43.274 -34.565  1.00  0.00    -0.368 OA
ATOM     23  H4  UNL     1      10.888  42.587 -35.206  1.00  0.00     0.212 HD
ENDBRANCH  21  22
BRANCH  21  24
HETATM   24  O5  UNL     1       9.754  45.150 -34.383  1.00  0.00    -0.368 OA
ATOM     25  H5  UNL     1       9.417  45.869 -34.905  1.00  0.00     0.212 HD
ENDBRANCH  21  24
ENDBRANCH   1  21
TORSDOF 9
ENDMDL