MODEL 2
REMARK VINA RESULT: -6.730295499      0.962      1.466
REMARK  6 active torsions:
REMARK  status: ('A' for Active; 'I' for Inactive)
REMARK    1  A    between atoms: C2_2  and  C3_3
REMARK       I    between atoms: C3_3  and  N1_5
REMARK    2  A    between atoms: N1_5  and  N2_7
REMARK       I    between atoms: N2_7  and  C4_9
REMARK    3  A    between atoms: C4_9  and  C5_11
REMARK    4  A    between atoms: C8_14  and  N3_15
REMARK       I    between atoms: N3_15  and  C9_17
REMARK    5  A    between atoms: C9_17  and  C10_19
REMARK    6  A    between atoms: C10_19  and  O5_21
ROOT
HETATM    1  C5  UNL     1      14.381  44.167 -38.361  1.00  0.00     0.033 A
HETATM    2  C6  UNL     1      13.092  44.335 -38.858  1.00  0.00     0.019 A
HETATM    3  C7  UNL     1      12.087  44.957 -38.123  1.00  0.00     0.030 A
HETATM    4  C8  UNL     1      12.305  45.441 -36.864  1.00  0.00     0.035 A
HETATM    5  C12 UNL     1      13.607  45.264 -36.375  1.00  0.00     0.030 A
HETATM    6  C13 UNL     1      14.607  44.652 -37.096  1.00  0.00     0.019 A
ENDROOT
BRANCH   1   7
HETATM    7  C4  UNL     1      15.399  43.509 -39.169  1.00  0.00     0.270 C
HETATM    8  N2  UNL     1      16.703  44.015 -39.205  1.00  0.00    -0.263 N
ATOM      9  H2  UNL     1      16.938  44.847 -38.664  1.00  0.00     0.190 HD
HETATM   10  O2  UNL     1      15.115  42.487 -39.837  1.00  0.00    -0.266 OA
BRANCH   8  11
HETATM   11  N1  UNL     1      17.685  43.389 -39.975  1.00  0.00    -0.264 N
HETATM   12  C3  UNL     1      18.923  44.024 -40.160  1.00  0.00     0.258 C
HETATM   13  O1  UNL     1      19.108  45.154 -39.615  1.00  0.00    -0.267 OA
ATOM     14  H1  UNL     1      17.504  42.479 -40.399  1.00  0.00     0.190 HD
BRANCH  12  15
HETATM   15  C2  UNL     1      19.962  43.389 -40.961  1.00  0.00     0.065 C
HETATM   16  C1  UNL     1      20.001  43.632 -42.243  1.00  0.00     0.017 C
ENDBRANCH  12  15
ENDBRANCH   8  11
ENDBRANCH   1   7
BRANCH   4  17
HETATM   17  N3  UNL     1      11.352  46.069 -36.034  1.00  0.00    -0.319 N
HETATM   18  C9  UNL     1      10.803  45.588 -34.850  1.00  0.00     0.321 C
HETATM   19  O3  UNL     1      11.104  44.493 -34.357  1.00  0.00    -0.261 OA
ATOM     20  H3  UNL     1      11.026  46.986 -36.338  1.00  0.00     0.169 HD
BRANCH  18  21
HETATM   21  C10 UNL     1       9.825  46.386 -34.128  1.00  0.00     0.351 C
HETATM   22  O4  UNL     1       9.473  46.054 -32.947  1.00  0.00    -0.254 OA
BRANCH  21  23
HETATM   23  O5  UNL     1       9.250  47.515 -34.680  1.00  0.00    -0.319 OA
HETATM   24  C11 UNL     1       9.750  48.794 -34.314  1.00  0.00     0.213 C
ENDBRANCH  21  23
ENDBRANCH  18  21
ENDBRANCH   4  17
TORSDOF 6
ENDMDL