MODEL 4
REMARK VINA RESULT: -6.279784174      1.390      1.657
REMARK  10 active torsions:
REMARK  status: ('A' for Active; 'I' for Inactive)
REMARK    1  A    between atoms: C3_3  and  C4_4
REMARK    2  A    between atoms: C5_5  and  C6_6
REMARK    3  A    between atoms: C6_6  and  O1_8
REMARK    4  A    between atoms: C6_6  and  C8_10
REMARK       I    between atoms: C8_10  and  N1_12
REMARK    5  A    between atoms: N1_12  and  C9_14
REMARK    6  A    between atoms: C9_14  and  C10_15
REMARK    7  A    between atoms: C9_14  and  C12_19
REMARK    8  A    between atoms: C10_15  and  C11_16
REMARK    9  A    between atoms: C13_21  and  O6_22
REMARK   10  A    between atoms: C13_21  and  C14_24
ROOT
HETATM    1  C9  UNL     1     -35.435 -46.123  10.140  1.00  0.00     0.131 C
ENDROOT
BRANCH   1   2
HETATM    2  N1  UNL     1     -36.119 -46.265  11.464  1.00  0.00    -0.350 N
HETATM    3  C8  UNL     1     -36.818 -45.179  12.038  1.00  0.00     0.256 C
HETATM    4  O2  UNL     1     -36.863 -44.084  11.423  1.00  0.00    -0.270 OA
ATOM      5  H1  UNL     1     -36.080 -47.157  11.957  1.00  0.00     0.163 HD
BRANCH   3   6
HETATM    6  C6  UNL     1     -37.487 -45.341  13.347  1.00  0.00     0.152 C
HETATM    7  C7  UNL     1     -37.402 -46.778  13.768  1.00  0.00     0.061 C
BRANCH   6   8
HETATM    8  C5  UNL     1     -37.055 -44.362  14.341  1.00  0.00     0.020 C
HETATM    9  C4  UNL     1     -37.518 -44.073  15.510  1.00  0.00    -0.001 C
BRANCH   9  10
HETATM   10  C3  UNL     1     -38.657 -44.721  16.123  1.00  0.00    -0.005 C
HETATM   11  C2  UNL     1     -38.748 -44.770  17.465  1.00  0.00    -0.031 C
HETATM   12  C1  UNL     1     -37.652 -44.144  18.238  1.00  0.00     0.036 C
ENDBRANCH   9  10
ENDBRANCH   6   8
BRANCH   6  13
HETATM   13  O1  UNL     1     -38.875 -45.099  13.101  1.00  0.00    -0.376 OA
ATOM     14  H1  UNL     1     -39.077 -45.482  12.255  1.00  0.00     0.211 HD
ENDBRANCH   6  13
ENDBRANCH   3   6
ENDBRANCH   1   2
BRANCH   1  15
HETATM   15  C10 UNL     1     -34.330 -45.171  10.402  1.00  0.00     0.141 C
BRANCH  15  16
HETATM   16  C11 UNL     1     -33.224 -45.650  11.205  1.00  0.00     0.174 C
HETATM   17  O3  UNL     1     -33.281 -45.988  12.402  1.00  0.00    -0.648 OA
HETATM   18  O4  UNL     1     -31.964 -45.744  10.580  1.00  0.00    -0.648 OA
ENDBRANCH  15  16
ENDBRANCH   1  15
BRANCH   1  19
HETATM   19  C12 UNL     1     -35.052 -47.527   9.802  1.00  0.00     0.225 C
HETATM   20  O5  UNL     1     -35.461 -48.530  10.650  1.00  0.00    -0.325 OA
HETATM   21  C13 UNL     1     -35.458 -49.384   9.525  1.00  0.00     0.320 C
HETATM   22  C15 UNL     1     -35.826 -48.180   8.722  1.00  0.00     0.230 C
HETATM   23  O9  UNL     1     -36.448 -48.004   7.719  1.00  0.00    -0.288 OA
BRANCH  21  24
HETATM   24  O6  UNL     1     -34.140 -49.807   9.313  1.00  0.00    -0.351 OA
ATOM     25  H6  UNL     1     -33.998 -49.855   8.375  1.00  0.00     0.214 HD
ENDBRANCH  21  24
BRANCH  21  26
HETATM   26  C14 UNL     1     -36.458 -50.447   9.552  1.00  0.00     0.247 C
HETATM   27  O7  UNL     1     -36.136 -51.566  10.022  1.00  0.00    -0.644 OA
HETATM   28  O8  UNL     1     -37.722 -50.262   9.085  1.00  0.00    -0.644 OA
ENDBRANCH  21  26
ENDBRANCH   1  19
TORSDOF 10
ENDMDL