MODEL 1
REMARK VINA RESULT: -7.059988612      0.000      0.000
REMARK  8 active torsions:
REMARK  status: ('A' for Active; 'I' for Inactive)
REMARK    1  A    between atoms: C2_2  and  O1_3
REMARK    2  A    between atoms: C2_2  and  C3_5
REMARK    3  A    between atoms: C3_5  and  N1_6
REMARK    4  A    between atoms: C3_5  and  C13_22
REMARK       I    between atoms: N1_6  and  C4_8
REMARK    5  A    between atoms: C4_8  and  C5_10
REMARK    6  A    between atoms: C8_13  and  C9_14
REMARK    7  A    between atoms: C8_13  and  C10_17
REMARK    8  A    between atoms: C13_22  and  C14_24
ROOT
HETATM    1  N1  UNL     1     -36.487 -45.892  12.603  1.00  0.00    -0.346 N
ATOM      2  H1  UNL     1     -36.231 -46.541  13.347  1.00  0.00     0.163 HD
HETATM    3  C4  UNL     1     -37.489 -44.937  12.867  1.00  0.00     0.222 C
HETATM    4  O2  UNL     1     -37.789 -44.137  11.917  1.00  0.00    -0.273 OA
ENDROOT
BRANCH   3   5
HETATM    5  C5  UNL     1     -38.151 -44.870  14.166  1.00  0.00     0.078 C
HETATM    6  C6  UNL     1     -37.149 -44.690  15.298  1.00  0.00     0.016 C
HETATM    7  C7  UNL     1     -37.916 -44.898  16.582  1.00  0.00     0.033 C
HETATM    8  C8  UNL     1     -38.913 -43.798  16.727  1.00  0.00     0.136 C
HETATM    9  C11 UNL     1     -39.783 -43.564  15.549  1.00  0.00     0.033 C
HETATM   10  C12 UNL     1     -39.151 -43.757  14.219  1.00  0.00     0.016 C
BRANCH   8  11
HETATM   11  C9  UNL     1     -39.815 -44.065  17.905  1.00  0.00     0.193 C
HETATM   12  O3  UNL     1     -40.851 -43.366  18.107  1.00  0.00    -0.647 OA
HETATM   13  O4  UNL     1     -39.507 -45.094  18.785  1.00  0.00    -0.647 OA
ENDBRANCH   8  11
BRANCH   8  14
HETATM   14  C10 UNL     1     -38.172 -42.545  17.075  1.00  0.00     0.193 C
HETATM   15  O5  UNL     1     -38.057 -41.578  16.283  1.00  0.00    -0.647 OA
HETATM   16  O6  UNL     1     -37.597 -42.468  18.332  1.00  0.00    -0.647 OA
ENDBRANCH   8  14
ENDBRANCH   3   5
BRANCH   1  17
HETATM   17  C3  UNL     1     -35.793 -46.002  11.317  1.00  0.00     0.194 C
BRANCH  17  18
HETATM   18  C2  UNL     1     -35.928 -47.464  10.886  1.00  0.00     0.144 C
HETATM   19  C1  UNL     1     -34.863 -48.291  11.579  1.00  0.00     0.042 C
BRANCH  18  20
HETATM   20  O1  UNL     1     -35.986 -47.656   9.548  1.00  0.00    -0.393 OA
ATOM     21  H1  UNL     1     -36.857 -47.854   9.225  1.00  0.00     0.210 HD
ENDBRANCH  18  20
ENDBRANCH  17  18
BRANCH  17  22
HETATM   22  C13 UNL     1     -34.390 -45.562  11.439  1.00  0.00     0.249 C
HETATM   23  O7  UNL     1     -34.042 -45.191  12.610  1.00  0.00    -0.283 OA
BRANCH  22  24
HETATM   24  C14 UNL     1     -33.401 -45.506  10.408  1.00  0.00     0.249 C
HETATM   25  O8  UNL     1     -32.228 -45.143  10.606  1.00  0.00    -0.642 OA
HETATM   26  O9  UNL     1     -33.714 -45.870   9.094  1.00  0.00    -0.642 OA
ENDBRANCH  22  24
ENDBRANCH  17  22
ENDBRANCH   1  17
TORSDOF 8
ENDMDL