MODEL 2
REMARK VINA RESULT: -6.842848741      1.184      1.332
REMARK  13 active torsions:
REMARK  status: ('A' for Active; 'I' for Inactive)
REMARK    1  A    between atoms: O1_2  and  C2_3
REMARK    2  A    between atoms: C2_3  and  C3_5
REMARK    3  A    between atoms: C3_5  and  N1_6
REMARK    4  A    between atoms: C3_5  and  C13_17
REMARK    5  A    between atoms: N1_6  and  C4_8
REMARK    6  A    between atoms: C4_8  and  C6_10
REMARK    7  A    between atoms: C13_17  and  O3_18
REMARK    8  A    between atoms: C13_17  and  C14_20
REMARK    9  A    between atoms: C14_20  and  O4_21
REMARK   10  A    between atoms: C14_20  and  C15_23
REMARK   11  A    between atoms: C15_23  and  O5_24
REMARK   12  A    between atoms: C15_23  and  C16_26
REMARK   13  A    between atoms: C16_26  and  O6_28
ROOT
HETATM    1  C3  UNL     1     -35.571 -45.629  11.795  1.00  0.00     0.209 C
ENDROOT
BRANCH   1   2
HETATM    2  C2  UNL     1     -34.890 -44.382  11.335  1.00  0.00     0.283 C
HETATM    3  O2  UNL     1     -35.513 -43.611  10.517  1.00  0.00    -0.263 OA
BRANCH   2   4
HETATM    4  O1  UNL     1     -33.658 -43.975  11.708  1.00  0.00    -0.325 OA
HETATM    5  C1  UNL     1     -32.417 -44.184  11.115  1.00  0.00     0.213 C
ENDBRANCH   2   4
ENDBRANCH   1   2
BRANCH   1   6
HETATM    6  N1  UNL     1     -36.246 -45.291  13.006  1.00  0.00    -0.399 N
ATOM      7  H1  UNL     1     -35.759 -44.763  13.730  1.00  0.00     0.154 HD
BRANCH   6   8
HETATM    8  C4  UNL     1     -37.572 -45.681  13.202  1.00  0.00     0.106 C
HETATM    9  C5  UNL     1     -38.540 -45.515  12.057  1.00  0.00     0.037 C
BRANCH   8  10
HETATM   10  C6  UNL     1     -38.155 -44.797  14.302  1.00  0.00    -0.036 A
HETATM   11  C7  UNL     1     -39.082 -43.854  13.973  1.00  0.00     0.009 A
HETATM   12  C8  UNL     1     -39.604 -43.037  14.987  1.00  0.00     0.001 A
HETATM   13  C9  UNL     1     -39.169 -43.209  16.293  1.00  0.00     0.007 A
HETATM   14  C10 UNL     1     -38.238 -44.158  16.619  1.00  0.00    -0.061 A
HETATM   15  C11 UNL     1     -37.755 -44.347  18.009  1.00  0.00     0.048 C
HETATM   16  C12 UNL     1     -37.746 -44.943  15.585  1.00  0.00     0.016 A
ENDBRANCH   8  10
ENDBRANCH   6   8
ENDBRANCH   1   6
BRANCH   1  17
HETATM   17  C13 UNL     1     -34.720 -46.808  12.012  1.00  0.00     0.181 C
BRANCH  17  18
HETATM   18  O3  UNL     1     -33.589 -46.487  12.743  1.00  0.00    -0.390 OA
ATOM     19  H3  UNL     1     -33.271 -47.234  13.235  1.00  0.00     0.210 HD
ENDBRANCH  17  18
BRANCH  17  20
HETATM   20  C14 UNL     1     -34.402 -47.685  10.873  1.00  0.00     0.180 C
BRANCH  20  21
HETATM   21  O4  UNL     1     -33.097 -47.951  10.588  1.00  0.00    -0.390 OA
ATOM     22  H4  UNL     1     -32.419 -47.454  11.032  1.00  0.00     0.210 HD
ENDBRANCH  20  21
BRANCH  20  23
HETATM   23  C15 UNL     1     -35.087 -49.021  11.141  1.00  0.00     0.177 C
BRANCH  23  24
HETATM   24  O5  UNL     1     -34.180 -49.886  11.716  1.00  0.00    -0.390 OA
ATOM     25  H5  UNL     1     -34.621 -50.699  11.935  1.00  0.00     0.210 HD
ENDBRANCH  23  24
BRANCH  23  26
HETATM   26  C16 UNL     1     -35.720 -49.560   9.868  1.00  0.00     0.145 C
HETATM   27  C17 UNL     1     -36.212 -48.396   9.043  1.00  0.00     0.042 C
BRANCH  26  28
HETATM   28  O6  UNL     1     -34.806 -50.342   9.165  1.00  0.00    -0.393 OA
ATOM     29  H6  UNL     1     -34.797 -50.096   8.248  1.00  0.00     0.210 HD
ENDBRANCH  26  28
ENDBRANCH  23  26
ENDBRANCH  20  23
ENDBRANCH  17  20
ENDBRANCH   1  17
TORSDOF 13
ENDMDL