MODEL 4
REMARK VINA RESULT: -5.415157239      1.742      1.909
REMARK  14 active torsions:
REMARK  status: ('A' for Active; 'I' for Inactive)
REMARK    1  A    between atoms: O1_2  and  C2_3
REMARK       I    between atoms: C2_3  and  N1_5
REMARK    2  A    between atoms: N1_5  and  C3_7
REMARK    3  A    between atoms: C3_7  and  C4_8
REMARK    4  A    between atoms: C3_7  and  C13_30
REMARK    5  A    between atoms: C4_8  and  O3_9
REMARK    6  A    between atoms: C4_8  and  N2_11
REMARK    7  A    between atoms: N2_11  and  C5_13
REMARK    8  A    between atoms: C5_13  and  O4_14
REMARK    9  A    between atoms: C5_13  and  C6_16
REMARK   10  A    between atoms: C6_16  and  C7_17
REMARK   11  A    between atoms: C6_16  and  N3_21
REMARK   12  A    between atoms: C7_17  and  C8_18
REMARK       I    between atoms: N3_21  and  C11_23
REMARK   13  A    between atoms: C11_23  and  C12_25
REMARK   14  A    between atoms: C12_25  and  N4_26
ROOT
HETATM    1  C5  UNL     1     -38.526 -42.120  18.719  1.00  0.00     0.242 C
ENDROOT
BRANCH   1   2
HETATM    2  N2  UNL     1     -37.646 -41.126  18.133  1.00  0.00    -0.341 N
ATOM      3  H2  UNL     1     -37.748 -40.878  17.148  1.00  0.00     0.164 HD
BRANCH   2   4
HETATM    4  C4  UNL     1     -36.646 -40.498  18.918  1.00  0.00     0.162 C
BRANCH   4   5
HETATM    5  C3  UNL     1     -36.350 -39.070  19.029  1.00  0.00     0.072 C
BRANCH   5   6
HETATM    6  N1  UNL     1     -35.250 -38.688  18.162  1.00  0.00    -0.302 N
HETATM    7  C2  UNL     1     -35.078 -38.871  16.795  1.00  0.00     0.364 C
HETATM    8  O2  UNL     1     -35.925 -39.433  16.078  1.00  0.00    -0.238 OA
ATOM      9  H1  UNL     1     -34.481 -38.208  18.630  1.00  0.00     0.171 HD
BRANCH   7  10
HETATM   10  O1  UNL     1     -33.900 -38.416  16.161  1.00  0.00    -0.309 OA
HETATM   11  C1  UNL     1     -33.977 -37.937  14.852  1.00  0.00     0.215 C
ENDBRANCH   7  10
ENDBRANCH   5   6
BRANCH   5  12
HETATM   12  C13 UNL     1     -36.500 -38.322  20.277  1.00  0.00    -0.004 C
HETATM   13  C14 UNL     1     -37.711 -38.724  21.085  1.00  0.00     0.021 C
HETATM   14  C15 UNL     1     -35.301 -38.191  21.165  1.00  0.00     0.021 C
HETATM   15  C16 UNL     1     -36.841 -36.822  19.883  1.00  0.00     0.021 C
ENDBRANCH   5  12
ENDBRANCH   4   5
BRANCH   4  16
HETATM   16  O3  UNL     1     -35.920 -41.302  19.652  1.00  0.00    -0.345 OA
ATOM     17  H3  UNL     1     -36.012 -41.215  20.593  1.00  0.00     0.219 HD
ENDBRANCH   4  16
ENDBRANCH   2   4
ENDBRANCH   1   2
BRANCH   1  18
HETATM   18  O4  UNL     1     -39.887 -41.715  18.361  1.00  0.00    -0.375 OA
ATOM     19  H4  UNL     1     -39.813 -41.250  17.536  1.00  0.00     0.212 HD
ENDBRANCH   1  18
BRANCH   1  20
HETATM   20  C6  UNL     1     -38.352 -43.509  18.314  1.00  0.00     0.133 C
BRANCH  20  21
HETATM   21  C7  UNL     1     -37.948 -43.509  16.801  1.00  0.00     0.033 C
BRANCH  21  22
HETATM   22  C8  UNL     1     -38.697 -44.356  15.892  1.00  0.00    -0.021 C
HETATM   23  C9  UNL     1     -37.883 -44.858  14.708  1.00  0.00     0.009 C
HETATM   24  C10 UNL     1     -39.747 -43.412  15.224  1.00  0.00     0.009 C
ENDBRANCH  21  22
ENDBRANCH  20  21
BRANCH  20  25
HETATM   25  N3  UNL     1     -37.117 -44.172  18.802  1.00  0.00    -0.351 N
HETATM   26  C11 UNL     1     -37.294 -45.045  19.915  1.00  0.00     0.243 C
HETATM   27  O5  UNL     1     -38.411 -45.179  20.468  1.00  0.00    -0.272 OA
ATOM     28  H3  UNL     1     -36.206 -44.014  18.372  1.00  0.00     0.163 HD
BRANCH  26  29
HETATM   29  C12 UNL     1     -36.147 -45.839  20.441  1.00  0.00     0.332 C
BRANCH  29  30
HETATM   30  N4  UNL     1     -36.586 -46.614  21.567  1.00  0.00    -0.071 N
ATOM     31  H43 UNL     1     -37.598 -46.576  21.691  1.00  0.00     0.274 HD
ATOM     32  H42 UNL     1     -36.498 -47.617  21.404  1.00  0.00     0.274 HD
ATOM     33  H41 UNL     1     -36.081 -46.311  22.400  1.00  0.00     0.274 HD
ENDBRANCH  29  30
ENDBRANCH  26  29
ENDBRANCH  20  25
ENDBRANCH   1  20
TORSDOF 14
ENDMDL