MODEL 5
REMARK VINA RESULT: -4.540634078      3.194      4.719
REMARK  10 active torsions:
REMARK  status: ('A' for Active; 'I' for Inactive)
REMARK    1  A    between atoms: C2_2  and  C3_3
REMARK    2  A    between atoms: C3_3  and  N1_4
REMARK    3  A    between atoms: C3_3  and  C4_8
REMARK       I    between atoms: C4_8  and  N2_10
REMARK    4  A    between atoms: N2_10  and  C5_12
REMARK    5  A    between atoms: C5_12  and  C7_15
REMARK    6  A    between atoms: C5_12  and  C12_27
REMARK       I    between atoms: C7_15  and  N4_17
REMARK    7  A    between atoms: N4_17  and  C8_19
REMARK    8  A    between atoms: C8_19  and  C9_20
REMARK    9  A    between atoms: C8_19  and  C11_24
REMARK   10  A    between atoms: C9_20  and  C10_21
ROOT
HETATM    1  C5  UNL     1     -38.257 -43.445  19.250  1.00  0.00     0.210 C
HETATM    2  C6  UNL     1     -39.168 -42.278  19.580  1.00  0.00     0.102 C
HETATM    3  N3  UNL     1     -39.879 -41.395  19.818  1.00  0.00    -0.194 NA
ENDROOT
BRANCH   1   4
HETATM    4  N2  UNL     1     -38.066 -43.367  17.808  1.00  0.00    -0.329 N
HETATM    5  C4  UNL     1     -38.993 -43.416  16.785  1.00  0.00     0.250 C
HETATM    6  O1  UNL     1     -40.222 -43.531  16.981  1.00  0.00    -0.271 OA
ATOM      7  H2  UNL     1     -37.097 -43.259  17.506  1.00  0.00     0.164 HD
BRANCH   5   8
HETATM    8  C3  UNL     1     -38.593 -43.334  15.337  1.00  0.00     0.274 C
BRANCH   8   9
HETATM    9  C2  UNL     1     -37.569 -44.370  14.981  1.00  0.00     0.038 C
HETATM   10  C1  UNL     1     -37.824 -44.993  13.629  1.00  0.00     0.007 C
ENDBRANCH   8   9
BRANCH   8  11
HETATM   11  N1  UNL     1     -39.717 -43.483  14.471  1.00  0.00    -0.067 N
ATOM     12  H13 UNL     1     -39.443 -43.637  13.500  1.00  0.00     0.275 HD
ATOM     13  H12 UNL     1     -40.211 -44.362  14.620  1.00  0.00     0.275 HD
ATOM     14  H11 UNL     1     -40.325 -42.671  14.580  1.00  0.00     0.275 HD
ENDBRANCH   8  11
ENDBRANCH   5   8
ENDBRANCH   1   4
BRANCH   1  15
HETATM   15  C7  UNL     1     -39.048 -44.628  19.610  1.00  0.00     0.262 C
HETATM   16  O2  UNL     1     -38.699 -45.791  19.156  1.00  0.00    -0.269 OA
HETATM   17  N4  UNL     1     -40.190 -44.640  20.420  1.00  0.00    -0.343 N
ATOM     18  H4  UNL     1     -40.533 -43.762  20.810  1.00  0.00     0.163 HD
BRANCH  17  19
HETATM   19  C8  UNL     1     -40.910 -45.892  20.724  1.00  0.00     0.195 C
BRANCH  19  20
HETATM   20  C9  UNL     1     -42.384 -45.702  20.606  1.00  0.00     0.149 C
BRANCH  20  21
HETATM   21  C10 UNL     1     -42.838 -44.316  20.503  1.00  0.00     0.175 C
HETATM   22  O3  UNL     1     -43.536 -43.885  21.480  1.00  0.00    -0.648 OA
HETATM   23  O4  UNL     1     -42.601 -43.436  19.484  1.00  0.00    -0.648 OA
ENDBRANCH  20  21
ENDBRANCH  19  20
BRANCH  19  24
HETATM   24  C11 UNL     1     -40.611 -46.209  22.143  1.00  0.00     0.197 C
HETATM   25  O5  UNL     1     -39.500 -46.169  22.679  1.00  0.00    -0.646 OA
HETATM   26  O6  UNL     1     -41.715 -46.586  22.931  1.00  0.00    -0.646 OA
ENDBRANCH  19  24
ENDBRANCH  17  19
ENDBRANCH   1  15
BRANCH   1  27
HETATM   27  C12 UNL     1     -37.023 -43.141  20.004  1.00  0.00    -0.003 C
HETATM   28  C13 UNL     1     -35.879 -44.139  19.835  1.00  0.00     0.018 C
HETATM   29  C14 UNL     1     -36.392 -41.796  19.854  1.00  0.00     0.018 C
HETATM   30  C15 UNL     1     -37.324 -43.242  21.535  1.00  0.00     0.018 C
ENDBRANCH   1  27
TORSDOF 10
ENDMDL