MODEL 1
REMARK VINA RESULT: -7.993168089      0.000      0.000
REMARK  12 active torsions:
REMARK  status: ('A' for Active; 'I' for Inactive)
REMARK    1  A    between atoms: C2_2  and  C3_3
REMARK    2  A    between atoms: C2_2  and  C4_8
REMARK    3  A    between atoms: C3_3  and  O1_4
REMARK    4  A    between atoms: C3_3  and  O2_6
REMARK    5  A    between atoms: C4_8  and  O3_9
REMARK    6  A    between atoms: C4_8  and  C5_11
REMARK    7  A    between atoms: C4_8  and  N2_21
REMARK    8  A    between atoms: C6_12  and  C7_13
REMARK    9  A    between atoms: C10_16  and  C11_17
REMARK       I    between atoms: N2_21  and  C12_23
REMARK   10  A    between atoms: C12_23  and  C13_25
REMARK   11  A    between atoms: C13_25  and  O6_27
REMARK   12  A    between atoms: O6_27  and  C15_28
ROOT
HETATM    1  C4  UNL     1     -34.620 -45.954  11.820  1.00  0.00     0.182 C
ENDROOT
BRANCH   1   2
HETATM    2  C2  UNL     1     -34.020 -44.969  10.896  1.00  0.00     0.023 C
HETATM    3  C1  UNL     1     -34.786 -44.342  10.022  1.00  0.00     0.025 C
BRANCH   2   4
HETATM    4  C3  UNL     1     -32.561 -44.693  10.962  1.00  0.00     0.288 C
BRANCH   4   5
HETATM    5  O1  UNL     1     -32.200 -44.080  12.157  1.00  0.00    -0.367 OA
ATOM      6  H1  UNL     1     -32.067 -43.146  12.051  1.00  0.00     0.213 HD
ENDBRANCH   4   5
BRANCH   4   7
HETATM    7  O2  UNL     1     -31.807 -45.856  10.818  1.00  0.00    -0.367 OA
ATOM      8  H2  UNL     1     -32.127 -46.398  10.107  1.00  0.00     0.213 HD
ENDBRANCH   4   7
ENDBRANCH   2   4
ENDBRANCH   1   2
BRANCH   1   9
HETATM    9  O3  UNL     1     -33.674 -46.498  12.690  1.00  0.00    -0.363 OA
ATOM     10  H3  UNL     1     -34.045 -46.690  13.543  1.00  0.00     0.213 HD
ENDBRANCH   1   9
BRANCH   1  11
HETATM   11  C5  UNL     1     -35.637 -45.277  12.646  1.00  0.00     0.041 C
HETATM   12  C6  UNL     1     -36.817 -45.819  12.879  1.00  0.00     0.030 C
BRANCH  12  13
HETATM   13  C7  UNL     1     -37.770 -45.089  13.705  1.00  0.00     0.032 A
HETATM   14  C8  UNL     1     -38.802 -44.278  13.310  1.00  0.00     0.032 A
HETATM   15  C9  UNL     1     -39.424 -43.812  14.460  1.00  0.00     0.035 A
HETATM   16  C10 UNL     1     -38.768 -44.343  15.547  1.00  0.00     0.070 A
HETATM   17  N1  UNL     1     -37.787 -45.099  15.054  1.00  0.00    -0.354 N
ATOM     18  H1  UNL     1     -37.127 -45.623  15.630  1.00  0.00     0.166 HD
BRANCH  16  19
HETATM   19  C11 UNL     1     -39.093 -44.113  16.967  1.00  0.00     0.288 C
HETATM   20  O4  UNL     1     -40.165 -43.554  17.265  1.00  0.00    -0.300 OA
ENDBRANCH  16  19
ENDBRANCH  12  13
ENDBRANCH   1  11
BRANCH   1  21
HETATM   21  N2  UNL     1     -35.262 -47.050  11.098  1.00  0.00    -0.320 N
HETATM   22  C12 UNL     1     -34.552 -48.079  10.453  1.00  0.00     0.249 C
HETATM   23  O5  UNL     1     -33.304 -48.080  10.485  1.00  0.00    -0.271 OA
ATOM     24  H2  UNL     1     -36.281 -47.069  11.060  1.00  0.00     0.166 HD
BRANCH  22  25
HETATM   25  C13 UNL     1     -35.278 -49.145   9.746  1.00  0.00     0.219 C
HETATM   26  C14 UNL     1     -35.330 -50.334  10.701  1.00  0.00     0.050 C
BRANCH  25  27
HETATM   27  O6  UNL     1     -36.587 -48.805   9.418  1.00  0.00    -0.307 OA
BRANCH  27  28
HETATM   28  C15 UNL     1     -37.229 -49.481   8.396  1.00  0.00     0.255 C
HETATM   29  C16 UNL     1     -37.201 -49.011   6.986  1.00  0.00     0.126 C
HETATM   30  O7  UNL     1     -37.879 -50.551   8.635  1.00  0.00    -0.266 OA
ENDBRANCH  27  28
ENDBRANCH  25  27
ENDBRANCH  22  25
ENDBRANCH   1  21
TORSDOF 12
ENDMDL