MODEL 4
REMARK VINA RESULT: -5.409080726      3.411      7.467
REMARK  8 active torsions:
REMARK  status: ('A' for Active; 'I' for Inactive)
REMARK    1  A    between atoms: C5_6  and  N1_7
REMARK       I    between atoms: N1_7  and  C6_9
REMARK    2  A    between atoms: C6_9  and  C7_11
REMARK    3  A    between atoms: C7_11  and  N2_12
REMARK    4  A    between atoms: C7_11  and  C11_22
REMARK       I    between atoms: N2_12  and  C8_14
REMARK    5  A    between atoms: C8_14  and  C9_16
REMARK    6  A    between atoms: C9_16  and  N3_18
REMARK       I    between atoms: C11_22  and  N4_24
REMARK    7  A    between atoms: N4_24  and  C12_26
REMARK    8  A    between atoms: C12_26  and  C14_29
ROOT
HETATM    1  C12 UNL     1     -35.985 -39.528  18.357  1.00  0.00     0.195 C
HETATM    2  C13 UNL     1     -36.574 -38.261  18.697  1.00  0.00     0.085 C
HETATM    3  N5  UNL     1     -37.071 -37.243  18.961  1.00  0.00    -0.195 NA
ENDROOT
BRANCH   1   4
HETATM    4  N4  UNL     1     -36.935 -40.624  18.264  1.00  0.00    -0.342 N
HETATM    5  C11 UNL     1     -37.333 -41.386  19.376  1.00  0.00     0.251 C
HETATM    6  O4  UNL     1     -36.865 -41.144  20.503  1.00  0.00    -0.271 OA
ATOM      7  H4  UNL     1     -37.331 -40.850  17.352  1.00  0.00     0.163 HD
BRANCH   5   8
HETATM    8  C7  UNL     1     -38.310 -42.495  19.237  1.00  0.00     0.269 C
BRANCH   8   9
HETATM    9  C6  UNL     1     -37.721 -43.642  20.019  1.00  0.00     0.255 C
HETATM   10  N1  UNL     1     -36.331 -43.943  19.998  1.00  0.00    -0.305 N
ATOM     11  H1  UNL     1     -35.683 -43.379  19.449  1.00  0.00     0.171 HD
HETATM   12  O2  UNL     1     -38.487 -44.364  20.719  1.00  0.00    -0.270 OA
BRANCH  10  13
HETATM   13  C5  UNL     1     -35.866 -45.052  20.763  1.00  0.00     0.155 A
HETATM   14  C2  UNL     1     -35.374 -45.019  22.036  1.00  0.00    -0.009 A
HETATM   15  C1  UNL     1     -35.209 -43.822  22.897  1.00  0.00     0.052 C
HETATM   16  C3  UNL     1     -35.027 -46.296  22.432  1.00  0.00     0.035 A
HETATM   17  C4  UNL     1     -35.342 -47.087  21.322  1.00  0.00     0.145 A
HETATM   18  O1  UNL     1     -35.828 -46.311  20.378  1.00  0.00    -0.305 OA
ENDBRANCH  10  13
ENDBRANCH   8   9
BRANCH   8  19
HETATM   19  N2  UNL     1     -38.247 -42.944  17.825  1.00  0.00    -0.338 N
HETATM   20  C8  UNL     1     -39.377 -43.477  17.178  1.00  0.00     0.248 C
HETATM   21  O3  UNL     1     -40.482 -43.597  17.775  1.00  0.00    -0.271 OA
ATOM     22  H2  UNL     1     -37.368 -42.865  17.313  1.00  0.00     0.163 HD
BRANCH  20  23
HETATM   23  C9  UNL     1     -39.261 -43.902  15.762  1.00  0.00     0.270 C
HETATM   24  C10 UNL     1     -37.879 -44.375  15.407  1.00  0.00     0.050 C
BRANCH  23  25
HETATM   25  N3  UNL     1     -39.676 -42.828  14.869  1.00  0.00    -0.067 N
ATOM     26  H33 UNL     1     -39.634 -41.918  15.326  1.00  0.00     0.275 HD
ATOM     27  H32 UNL     1     -38.990 -42.662  14.132  1.00  0.00     0.275 HD
ATOM     28  H31 UNL     1     -40.602 -43.018  14.486  1.00  0.00     0.275 HD
ENDBRANCH  23  25
ENDBRANCH  20  23
ENDBRANCH   8  19
ENDBRANCH   5   8
ENDBRANCH   1   4
BRANCH   1  29
HETATM   29  C14 UNL     1     -35.140 -39.366  17.112  1.00  0.00     0.014 C
HETATM   30  C15 UNL     1     -33.761 -38.831  17.382  1.00  0.00     0.012 C
HETATM   31  C16 UNL     1     -35.866 -38.505  16.072  1.00  0.00     0.012 C
ENDBRANCH   1  29
TORSDOF 8
ENDMDL