MODEL 5
REMARK VINA RESULT: -7.584936348      1.635      2.788
REMARK  11 active torsions:
REMARK  status: ('A' for Active; 'I' for Inactive)
REMARK    1  A    between atoms: O1_2  and  C2_3
REMARK    2  A    between atoms: C5_6  and  C6_7
REMARK       I    between atoms: C6_7  and  N1_9
REMARK    3  A    between atoms: N1_9  and  C7_11
REMARK    4  A    between atoms: C7_11  and  O3_12
REMARK    5  A    between atoms: C7_11  and  C8_14
REMARK    6  A    between atoms: C8_14  and  O4_15
REMARK    7  A    between atoms: C8_14  and  C9_17
REMARK    8  A    between atoms: C9_17  and  C10_19
REMARK    9  A    between atoms: C10_19  and  N2_21
REMARK   10  A    between atoms: N2_21  and  C12_23
REMARK   11  A    between atoms: C12_23  and  C14_25
ROOT
HETATM    1  C7  UNL     1     -36.968 -44.759  12.831  1.00  0.00     0.256 C
ENDROOT
BRANCH   1   2
HETATM    2  N1  UNL     1     -37.307 -44.845  14.227  1.00  0.00    -0.328 N
HETATM    3  C6  UNL     1     -38.460 -44.206  14.719  1.00  0.00     0.253 C
HETATM    4  O2  UNL     1     -39.185 -43.565  13.914  1.00  0.00    -0.268 OA
ATOM      5  H1  UNL     1     -36.708 -45.371  14.863  1.00  0.00     0.165 HD
BRANCH   3   6
HETATM    6  C5  UNL     1     -38.773 -44.310  16.139  1.00  0.00     0.032 A
HETATM    7  C4  UNL     1     -38.042 -45.101  16.995  1.00  0.00     0.020 A
HETATM    8  C3  UNL     1     -38.367 -45.191  18.353  1.00  0.00     0.038 A
HETATM    9  C2  UNL     1     -39.418 -44.504  18.906  1.00  0.00     0.068 A
HETATM   10  C16 UNL     1     -40.164 -43.696  18.034  1.00  0.00     0.038 A
HETATM   11  C15 UNL     1     -39.839 -43.613  16.698  1.00  0.00     0.020 A
BRANCH   9  12
HETATM   12  O1  UNL     1     -39.788 -44.550  20.239  1.00  0.00    -0.356 OA
HETATM   13  C1  UNL     1     -40.578 -45.552  20.791  1.00  0.00     0.210 C
ENDBRANCH   9  12
ENDBRANCH   3   6
ENDBRANCH   1   2
BRANCH   1  14
HETATM   14  O3  UNL     1     -38.052 -45.116  12.024  1.00  0.00    -0.374 OA
ATOM     15  H3  UNL     1     -38.853 -44.700  12.320  1.00  0.00     0.212 HD
ENDBRANCH   1  14
BRANCH   1  16
HETATM   16  C8  UNL     1     -35.773 -45.637  12.585  1.00  0.00     0.238 C
BRANCH  16  17
HETATM   17  O4  UNL     1     -36.096 -46.974  12.499  1.00  0.00    -0.384 OA
ATOM     18  H4  UNL     1     -36.195 -47.275  11.604  1.00  0.00     0.210 HD
ENDBRANCH  16  17
BRANCH  16  19
HETATM   19  C9  UNL     1     -35.017 -45.193  11.356  1.00  0.00     0.181 C
HETATM   20  O5  UNL     1     -35.322 -44.143  10.885  1.00  0.00    -0.293 OA
BRANCH  19  21
HETATM   21  C10 UNL     1     -33.981 -46.087  10.851  1.00  0.00     0.146 C
HETATM   22  C11 UNL     1     -32.709 -45.246  10.664  1.00  0.00     0.040 C
BRANCH  21  23
HETATM   23  N2  UNL     1     -34.211 -46.942   9.775  1.00  0.00    -0.398 N
ATOM     24  H2  UNL     1     -34.494 -46.565   8.870  1.00  0.00     0.154 HD
BRANCH  23  25
HETATM   25  C12 UNL     1     -34.051 -48.306   9.945  1.00  0.00     0.175 C
HETATM   26  C13 UNL     1     -33.615 -48.910  11.226  1.00  0.00     0.043 C
BRANCH  25  27
HETATM   27  C14 UNL     1     -35.278 -49.088   9.516  1.00  0.00     0.195 C
HETATM   28  O6  UNL     1     -35.215 -50.330   9.693  1.00  0.00    -0.646 OA
HETATM   29  O7  UNL     1     -36.356 -48.428   8.977  1.00  0.00    -0.646 OA
ENDBRANCH  25  27
ENDBRANCH  23  25
ENDBRANCH  21  23
ENDBRANCH  19  21
ENDBRANCH  16  19
ENDBRANCH   1  16
TORSDOF 11
ENDMDL