MODEL 1
REMARK VINA RESULT: -8.110382220      0.000      0.000
REMARK  10 active torsions:
REMARK  status: ('A' for Active; 'I' for Inactive)
REMARK    1  A    between atoms: C2_2  and  C4_4
REMARK    2  A    between atoms: C4_4  and  N1_5
REMARK    3  A    between atoms: C4_4  and  C13_17
REMARK       I    between atoms: N1_5  and  C5_7
REMARK    4  A    between atoms: C5_7  and  O2_9
REMARK    5  A    between atoms: O2_9  and  C6_10
REMARK    6  A    between atoms: C6_10  and  C7_11
REMARK       I    between atoms: C13_17  and  N2_19
REMARK    7  A    between atoms: N2_19  and  C14_21
REMARK    8  A    between atoms: C14_21  and  C15_22
REMARK    9  A    between atoms: C14_21  and  C16_25
REMARK   10  A    between atoms: C16_25  and  O5_27
ROOT
HETATM    1  C4  UNL     1     -34.189 -46.101  10.444  1.00  0.00     0.182 C
ENDROOT
BRANCH   1   2
HETATM    2  C2  UNL     1     -32.884 -45.866  11.206  1.00  0.00     0.009 C
HETATM    3  C1  UNL     1     -33.075 -45.928  12.674  1.00  0.00     0.012 C
HETATM    4  C3  UNL     1     -32.273 -44.527  10.817  1.00  0.00     0.012 C
ENDBRANCH   1   2
BRANCH   1   5
HETATM    5  N1  UNL     1     -35.231 -45.865  11.460  1.00  0.00    -0.323 N
HETATM    6  C5  UNL     1     -35.879 -44.620  11.529  1.00  0.00     0.361 C
HETATM    7  O1  UNL     1     -35.628 -43.666  10.771  1.00  0.00    -0.238 OA
ATOM      8  H1  UNL     1     -35.482 -46.607  12.113  1.00  0.00     0.165 HD
BRANCH   6   9
HETATM    9  O2  UNL     1     -36.861 -44.421  12.496  1.00  0.00    -0.299 OA
BRANCH   9  10
HETATM   10  C6  UNL     1     -37.232 -45.408  13.425  1.00  0.00     0.219 C
BRANCH  10  11
HETATM   11  C7  UNL     1     -38.098 -44.752  14.449  1.00  0.00    -0.034 A
HETATM   12  C8  UNL     1     -37.918 -44.943  15.797  1.00  0.00     0.009 A
HETATM   13  C9  UNL     1     -38.739 -44.314  16.707  1.00  0.00     0.001 A
HETATM   14  C10 UNL     1     -39.770 -43.471  16.323  1.00  0.00     0.000 A
HETATM   15  C11 UNL     1     -39.925 -43.299  14.960  1.00  0.00     0.001 A
HETATM   16  C12 UNL     1     -39.114 -43.920  14.037  1.00  0.00     0.009 A
ENDBRANCH  10  11
ENDBRANCH   9  10
ENDBRANCH   6   9
ENDBRANCH   1   5
BRANCH   1  17
HETATM   17  C13 UNL     1     -34.323 -47.477   9.955  1.00  0.00     0.241 C
HETATM   18  O3  UNL     1     -33.283 -48.131   9.695  1.00  0.00    -0.271 OA
HETATM   19  N2  UNL     1     -35.566 -48.114   9.759  1.00  0.00    -0.344 N
ATOM     20  H2  UNL     1     -36.419 -47.598   9.974  1.00  0.00     0.163 HD
BRANCH  19  21
HETATM   21  C14 UNL     1     -35.680 -49.453   9.271  1.00  0.00     0.202 C
BRANCH  21  22
HETATM   22  C15 UNL     1     -36.688 -49.511   8.176  1.00  0.00     0.256 C
HETATM   23  N3  UNL     1     -37.730 -50.500   8.230  1.00  0.00    -0.060 NA
HETATM   24  O4  UNL     1     -36.617 -48.700   7.226  1.00  0.00    -0.274 OA
ENDBRANCH  21  22
BRANCH  21  25
HETATM   25  C16 UNL     1     -35.895 -50.503  10.319  1.00  0.00     0.145 C
HETATM   26  C17 UNL     1     -34.795 -50.357  11.363  1.00  0.00     0.042 C
BRANCH  25  27
HETATM   27  O5  UNL     1     -35.734 -51.793   9.768  1.00  0.00    -0.393 OA
ATOM     28  H5  UNL     1     -35.653 -52.442  10.458  1.00  0.00     0.210 HD
ENDBRANCH  25  27
ENDBRANCH  21  25
ENDBRANCH  19  21
ENDBRANCH   1  17
TORSDOF 10
ENDMDL