MODEL 4
REMARK VINA RESULT: -6.191782321      2.661      7.842
REMARK  13 active torsions:
REMARK  status: ('A' for Active; 'I' for Inactive)
REMARK    1  A    between atoms: C2_2  and  C3_3
REMARK    2  A    between atoms: C2_2  and  C15_26
REMARK    3  A    between atoms: C3_3  and  C4_4
REMARK    4  A    between atoms: C4_4  and  O1_5
REMARK    5  A    between atoms: C4_4  and  C5_7
REMARK    6  A    between atoms: C5_7  and  O2_8
REMARK    7  A    between atoms: C5_7  and  C6_10
REMARK    8  A    between atoms: C6_10  and  C8_12
REMARK    9  A    between atoms: C8_12  and  O3_13
REMARK   10  A    between atoms: C8_12  and  C9_15
REMARK   11  A    between atoms: C9_15  and  C10_16
REMARK   12  A    between atoms: C9_15  and  S1_19
REMARK   13  A    between atoms: S1_19  and  C11_22
ROOT
HETATM    1  C6  UNL     1      39.460  73.316  19.906  1.00  0.00     0.043 C
HETATM    2  C7  UNL     1      40.544  72.414  20.445  1.00  0.00     0.015 C
ENDROOT
BRANCH   1   3
HETATM    3  C5  UNL     1      38.276  73.398  20.847  1.00  0.00     0.153 C
BRANCH   3   4
HETATM    4  C4  UNL     1      38.701  73.916  22.197  1.00  0.00     0.148 C
BRANCH   4   5
HETATM    5  C3  UNL     1      37.974  73.215  23.305  1.00  0.00     0.049 C
BRANCH   5   6
HETATM    6  C2  UNL     1      37.548  74.286  24.311  1.00  0.00     0.085 C
HETATM    7  C1  UNL     1      38.327  74.142  25.599  1.00  0.00     0.021 C
BRANCH   6   8
HETATM    8  C15 UNL     1      36.084  74.235  24.553  1.00  0.00     0.176 C
HETATM    9  O8  UNL     1      35.279  73.733  23.729  1.00  0.00    -0.648 OA
HETATM   10  O9  UNL     1      35.569  74.757  25.725  1.00  0.00    -0.648 OA
ENDBRANCH   6   8
ENDBRANCH   5   6
ENDBRANCH   4   5
BRANCH   4  11
HETATM   11  O1  UNL     1      38.297  75.270  22.247  1.00  0.00    -0.393 OA
ATOM     12  H1  UNL     1      39.090  75.784  22.344  1.00  0.00     0.210 HD
ENDBRANCH   4  11
ENDBRANCH   3   4
BRANCH   3  13
HETATM   13  O2  UNL     1      37.364  74.304  20.315  1.00  0.00    -0.393 OA
ATOM     14  H2  UNL     1      37.206  74.058  19.410  1.00  0.00     0.210 HD
ENDBRANCH   3  13
ENDBRANCH   1   3
BRANCH   1  15
HETATM   15  C8  UNL     1      38.945  72.691  18.632  1.00  0.00     0.153 C
BRANCH  15  16
HETATM   16  O3  UNL     1      38.710  73.718  17.721  1.00  0.00    -0.393 OA
ATOM     17  H3  UNL     1      38.863  74.542  18.167  1.00  0.00     0.210 HD
ENDBRANCH  15  16
BRANCH  15  18
HETATM   18  C9  UNL     1      39.787  71.581  18.096  1.00  0.00     0.238 C
BRANCH  18  19
HETATM   19  C10 UNL     1      40.310  71.823  16.743  1.00  0.00     0.194 C
HETATM   20  O4  UNL     1      39.748  71.459  15.682  1.00  0.00    -0.647 OA
HETATM   21  O5  UNL     1      41.517  72.501  16.583  1.00  0.00    -0.647 OA
ENDBRANCH  18  19
BRANCH  18  22
HETATM   22  S1  UNL     1      38.847  70.056  18.184  1.00  0.00     0.165 S
HETATM   23  O6  UNL     1      38.128  69.807  16.889  1.00  0.00    -0.226 OA
HETATM   24  O7  UNL     1      37.799  70.157  19.254  1.00  0.00    -0.226 OA
BRANCH  22  25
HETATM   25  C11 UNL     1      39.918  68.722  18.603  1.00  0.00     0.109 C
HETATM   26  C12 UNL     1      39.841  68.295  20.058  1.00  0.00     0.020 C
HETATM   27  C13 UNL     1      41.367  68.356  20.117  1.00  0.00     0.002 C
HETATM   28  C14 UNL     1      41.338  69.192  18.852  1.00  0.00     0.020 C
ENDBRANCH  22  25
ENDBRANCH  18  22
ENDBRANCH  15  18
ENDBRANCH   1  15
TORSDOF 13
ENDMDL