MODEL 5
REMARK VINA RESULT: -5.386779190      2.745      4.252
REMARK  12 active torsions:
REMARK  status: ('A' for Active; 'I' for Inactive)
REMARK    1  A    between atoms: C2_2  and  C4_4
REMARK    2  A    between atoms: C4_4  and  N1_5
REMARK    3  A    between atoms: C4_4  and  C9_11
REMARK    4  A    between atoms: N1_5  and  C5_7
REMARK       I    between atoms: C9_11  and  N2_13
REMARK    5  A    between atoms: N2_13  and  C10_15
REMARK    6  A    between atoms: C10_15  and  C11_16
REMARK    7  A    between atoms: C10_15  and  C16_28
REMARK       I    between atoms: C11_16  and  N3_18
REMARK    8  A    between atoms: N3_18  and  C12_20
REMARK    9  A    between atoms: C12_20  and  C13_21
REMARK   10  A    between atoms: C13_21  and  O3_22
REMARK   11  A    between atoms: C13_21  and  N4_24
REMARK   12  A    between atoms: N4_24  and  N5_25
ROOT
HETATM    1  C10 UNL     1      37.915  69.369  18.016  1.00  0.00     0.208 C
ENDROOT
BRANCH   1   2
HETATM    2  N2  UNL     1      38.229  70.619  18.699  1.00  0.00    -0.344 N
HETATM    3  C9  UNL     1      39.211  70.750  19.669  1.00  0.00     0.241 C
HETATM    4  O1  UNL     1      39.954  69.814  20.075  1.00  0.00    -0.271 OA
ATOM      5  H2  UNL     1      37.693  71.449  18.447  1.00  0.00     0.163 HD
BRANCH   3   6
HETATM    6  C4  UNL     1      39.428  72.119  20.300  1.00  0.00     0.173 C
BRANCH   6   7
HETATM    7  C2  UNL     1      40.092  72.937  19.233  1.00  0.00     0.009 C
HETATM    8  C1  UNL     1      41.072  72.053  18.484  1.00  0.00     0.012 C
HETATM    9  C3  UNL     1      39.229  73.792  18.390  1.00  0.00     0.012 C
ENDBRANCH   6   7
BRANCH   6  10
HETATM   10  N1  UNL     1      38.256  72.598  20.836  1.00  0.00    -0.401 N
ATOM     11  H1  UNL     1      37.413  72.289  20.351  1.00  0.00     0.154 HD
BRANCH  10  12
HETATM   12  C5  UNL     1      38.023  73.418  21.906  1.00  0.00     0.015 C
HETATM   13  C6  UNL     1      37.441  74.795  21.538  1.00  0.00     0.037 C
HETATM   14  C7  UNL     1      39.485  73.855  22.367  1.00  0.00     0.037 C
HETATM   15  C8  UNL     1      37.387  72.958  23.156  1.00  0.00     0.037 C
ENDBRANCH  10  12
ENDBRANCH   6  10
ENDBRANCH   3   6
ENDBRANCH   1   2
BRANCH   1  16
HETATM   16  C11 UNL     1      38.775  69.289  16.811  1.00  0.00     0.246 C
HETATM   17  O2  UNL     1      39.346  68.195  16.512  1.00  0.00    -0.271 OA
HETATM   18  N3  UNL     1      38.987  70.405  15.964  1.00  0.00    -0.335 N
ATOM     19  H3  UNL     1      38.519  71.266  16.243  1.00  0.00     0.168 HD
BRANCH  18  20
HETATM   20  C12 UNL     1      39.759  70.481  14.789  1.00  0.00     0.113 C
BRANCH  20  21
HETATM   21  C13 UNL     1      39.101  70.416  13.465  1.00  0.00     0.264 C
BRANCH  21  22
HETATM   22  O3  UNL     1      39.911  70.809  12.428  1.00  0.00    -0.374 OA
ATOM     23  H3  UNL     1      39.686  70.409  11.597  1.00  0.00     0.212 HD
ENDBRANCH  21  22
BRANCH  21  24
HETATM   24  N4  UNL     1      38.603  69.087  13.145  1.00  0.00    -0.128 NA
BRANCH  24  25
HETATM   25  N5  UNL     1      37.275  68.890  13.538  1.00  0.00    -0.240 NA
HETATM   26  C14 UNL     1      37.145  67.466  13.824  1.00  0.00     0.131 C
HETATM   27  C15 UNL     1      36.336  69.229  12.512  1.00  0.00     0.131 C
ENDBRANCH  24  25
ENDBRANCH  21  24
ENDBRANCH  20  21
ENDBRANCH  18  20
ENDBRANCH   1  16
BRANCH   1  28
HETATM   28  C16 UNL     1      36.473  69.208  17.756  1.00  0.00     0.182 A
HETATM   29  O4  UNL     1      35.947  68.085  17.126  1.00  0.00    -0.373 OA
HETATM   30  C17 UNL     1      35.665  68.270  18.554  1.00  0.00     0.149 A
HETATM   31  C18 UNL     1      34.173  68.541  18.746  1.00  0.00     0.042 C
ENDBRANCH   1  28
TORSDOF 12
ENDMDL