MODEL 5
REMARK VINA RESULT: -6.580091037      3.203      5.619
REMARK  13 active torsions:
REMARK  status: ('A' for Active; 'I' for Inactive)
REMARK    1  A    between atoms: C2_2  and  C3_4
REMARK    2  A    between atoms: C3_4  and  C4_5
REMARK    3  A    between atoms: C3_4  and  C15_22
REMARK    4  A    between atoms: C4_5  and  C5_7
REMARK       I    between atoms: C5_7  and  N1_9
REMARK    5  A    between atoms: N1_9  and  C6_11
REMARK    6  A    between atoms: C6_11  and  C7_12
REMARK    7  A    between atoms: C6_11  and  C9_16
REMARK    8  A    between atoms: C7_12  and  C8_13
REMARK    9  A    between atoms: C15_22  and  O6_23
REMARK   10  A    between atoms: C15_22  and  C16_25
REMARK   11  A    between atoms: C16_25  and  O7_26
REMARK   12  A    between atoms: C16_25  and  C17_28
REMARK   13  A    between atoms: C17_28  and  O8_30
ROOT
HETATM    1  C4  UNL     1      39.048  69.346  19.287  1.00  0.00     0.230 C
HETATM    2  O2  UNL     1      39.338  68.297  19.976  1.00  0.00    -0.286 OA
ENDROOT
BRANCH   1   3
HETATM    3  C3  UNL     1      38.171  69.187  18.109  1.00  0.00     0.166 C
BRANCH   3   4
HETATM    4  C2  UNL     1      38.969  69.153  16.860  1.00  0.00     0.137 C
HETATM    5  C1  UNL     1      38.948  70.354  15.982  1.00  0.00     0.091 C
HETATM    6  O1  UNL     1      39.629  68.202  16.533  1.00  0.00    -0.297 OA
ENDBRANCH   3   4
BRANCH   3   7
HETATM    7  C15 UNL     1      37.240  68.022  18.278  1.00  0.00     0.168 C
BRANCH   7   8
HETATM    8  O6  UNL     1      37.801  66.800  17.923  1.00  0.00    -0.392 OA
ATOM      9  H6  UNL     1      37.312  66.332  17.257  1.00  0.00     0.210 HD
ENDBRANCH   7   8
BRANCH   7  10
HETATM   10  C16 UNL     1      35.818  68.232  17.971  1.00  0.00     0.176 C
BRANCH  10  11
HETATM   11  O7  UNL     1      35.642  69.535  17.439  1.00  0.00    -0.390 OA
ATOM     12  H7  UNL     1      34.714  69.728  17.384  1.00  0.00     0.210 HD
ENDBRANCH  10  11
BRANCH  10  13
HETATM   13  C17 UNL     1      34.769  67.951  18.952  1.00  0.00     0.145 C
HETATM   14  C18 UNL     1      33.492  68.734  18.802  1.00  0.00     0.042 C
BRANCH  13  15
HETATM   15  O8  UNL     1      34.372  66.595  18.725  1.00  0.00    -0.393 OA
ATOM     16  H8  UNL     1      34.280  66.505  17.783  1.00  0.00     0.210 HD
ENDBRANCH  13  15
ENDBRANCH  10  13
ENDBRANCH   7  10
ENDBRANCH   3   7
ENDBRANCH   1   3
BRANCH   1  17
HETATM   17  C5  UNL     1      39.630  70.572  19.771  1.00  0.00     0.288 C
HETATM   18  O3  UNL     1      40.867  70.790  19.924  1.00  0.00    -0.264 OA
HETATM   19  N1  UNL     1      38.800  71.699  20.134  1.00  0.00    -0.345 N
ATOM     20  H1  UNL     1      37.788  71.609  20.040  1.00  0.00     0.163 HD
BRANCH  19  21
HETATM   21  C6  UNL     1      39.334  72.931  20.616  1.00  0.00     0.128 C
BRANCH  21  22
HETATM   22  C7  UNL     1      39.472  73.997  19.583  1.00  0.00     0.143 C
BRANCH  22  23
HETATM   23  C8  UNL     1      39.361  73.545  18.193  1.00  0.00     0.174 C
HETATM   24  O4  UNL     1      38.314  73.574  17.513  1.00  0.00    -0.648 OA
HETATM   25  O5  UNL     1      40.497  73.036  17.551  1.00  0.00    -0.648 OA
ENDBRANCH  22  23
ENDBRANCH  21  22
BRANCH  21  26
HETATM   26  C9  UNL     1      38.588  73.338  21.822  1.00  0.00    -0.035 A
HETATM   27  C10 UNL     1      37.214  73.436  21.700  1.00  0.00     0.009 A
HETATM   28  C11 UNL     1      36.447  73.809  22.784  1.00  0.00     0.001 A
HETATM   29  C12 UNL     1      37.011  74.088  23.998  1.00  0.00     0.000 A
HETATM   30  C13 UNL     1      38.370  73.990  24.119  1.00  0.00     0.001 A
HETATM   31  C14 UNL     1      39.126  73.620  23.039  1.00  0.00     0.009 A
ENDBRANCH  21  26
ENDBRANCH  19  21
ENDBRANCH   1  17
TORSDOF 13
ENDMDL