MODEL 2
REMARK VINA RESULT: -6.228670929      6.338      9.456
REMARK  11 active torsions:
REMARK  status: ('A' for Active; 'I' for Inactive)
REMARK    1  A    between atoms: C2_2  and  N1_3
REMARK       I    between atoms: N1_3  and  C3_5
REMARK    2  A    between atoms: C3_5  and  C4_7
REMARK    3  A    between atoms: C4_7  and  N2_8
REMARK    4  A    between atoms: C4_7  and  C14_24
REMARK       I    between atoms: N2_8  and  C5_10
REMARK       I    between atoms: C5_10  and  N3_12
REMARK    5  A    between atoms: N3_12  and  C6_14
REMARK    6  A    between atoms: C6_14  and  C7_15
REMARK    7  A    between atoms: C6_14  and  C8_18
REMARK    8  A    between atoms: C14_24  and  C15_26
REMARK    9  A    between atoms: C15_26  and  O6_27
REMARK   10  A    between atoms: C15_26  and  C16_29
REMARK   11  A    between atoms: C16_29  and  C17_30
ROOT
HETATM    1  N2  UNL     1      38.580  74.153  24.310  1.00  0.00    -0.323 N
ATOM      2  H2  UNL     1      39.525  73.943  24.631  1.00  0.00     0.165 HD
HETATM    3  C5  UNL     1      38.189  73.812  22.999  1.00  0.00     0.317 C
HETATM    4  O2  UNL     1      37.008  74.080  22.621  1.00  0.00    -0.247 OA
HETATM    5  N3  UNL     1      39.053  73.180  22.073  1.00  0.00    -0.328 N
ATOM      6  H3  UNL     1      40.011  72.945  22.331  1.00  0.00     0.165 HD
ENDROOT
BRANCH   1   7
HETATM    7  C4  UNL     1      37.631  74.810  25.214  1.00  0.00     0.251 C
BRANCH   7   8
HETATM    8  C3  UNL     1      36.387  74.044  25.324  1.00  0.00     0.248 C
HETATM    9  N1  UNL     1      36.372  72.625  25.323  1.00  0.00    -0.359 N
ATOM     10  H1  UNL     1      37.255  72.121  25.242  1.00  0.00     0.162 HD
HETATM   11  O1  UNL     1      35.245  74.624  25.433  1.00  0.00    -0.271 OA
BRANCH   9  12
HETATM   12  C2  UNL     1      35.135  71.868  25.437  1.00  0.00     0.118 C
HETATM   13  C1  UNL     1      34.542  71.643  24.084  1.00  0.00     0.026 C
ENDBRANCH   9  12
ENDBRANCH   7   8
BRANCH   7  14
HETATM   14  C14 UNL     1      38.287  75.149  26.477  1.00  0.00     0.187 C
HETATM   15  O5  UNL     1      38.539  74.138  27.201  1.00  0.00    -0.292 OA
BRANCH  14  16
HETATM   16  C15 UNL     1      38.695  76.431  27.032  1.00  0.00     0.196 C
BRANCH  16  17
HETATM   17  O6  UNL     1      38.737  76.280  28.455  1.00  0.00    -0.388 OA
ATOM     18  H6  UNL     1      39.648  76.346  28.717  1.00  0.00     0.210 HD
ENDBRANCH  16  17
BRANCH  16  19
HETATM   19  C16 UNL     1      37.704  77.567  26.811  1.00  0.00     0.108 C
BRANCH  19  20
HETATM   20  C17 UNL     1      38.392  78.834  27.174  1.00  0.00     0.234 C
HETATM   21  O7  UNL     1      39.595  78.912  27.072  1.00  0.00    -0.307 OA
ENDBRANCH  19  20
ENDBRANCH  16  19
ENDBRANCH  14  16
ENDBRANCH   7  14
ENDBRANCH   1   7
BRANCH   5  22
HETATM   22  C6  UNL     1      38.544  72.874  20.744  1.00  0.00     0.191 C
BRANCH  22  23
HETATM   23  C7  UNL     1      38.606  74.101  19.902  1.00  0.00     0.197 C
HETATM   24  O3  UNL     1      39.086  75.167  20.432  1.00  0.00    -0.646 OA
HETATM   25  O4  UNL     1      38.199  74.219  18.613  1.00  0.00    -0.646 OA
ENDBRANCH  22  23
BRANCH  22  26
HETATM   26  C8  UNL     1      39.291  71.696  20.132  1.00  0.00     0.019 C
HETATM   27  C9  UNL     1      38.459  71.022  19.137  1.00  0.00     0.007 C
HETATM   28  C10 UNL     1      38.978  70.864  17.749  1.00  0.00     0.000 C
HETATM   29  C11 UNL     1      40.499  70.761  17.714  1.00  0.00     0.000 C
HETATM   30  C12 UNL     1      40.947  72.104  18.246  1.00  0.00     0.000 C
HETATM   31  C13 UNL     1      40.642  72.146  19.713  1.00  0.00     0.007 C
ENDBRANCH  22  26
ENDBRANCH   5  22
TORSDOF 11
ENDMDL