MODEL 1
REMARK VINA RESULT: -6.914377531      0.000      0.000
REMARK  12 active torsions:
REMARK  status: ('A' for Active; 'I' for Inactive)
REMARK    1  A    between atoms: N1_2  and  C2_4
REMARK    2  A    between atoms: C2_4  and  C3_5
REMARK    3  A    between atoms: C2_4  and  C14_20
REMARK    4  A    between atoms: C3_5  and  C4_7
REMARK    5  A    between atoms: C4_7  and  N2_8
REMARK    6  A    between atoms: C13_17  and  O2_18
REMARK    7  A    between atoms: C14_20  and  O3_21
REMARK    8  A    between atoms: C14_20  and  N3_23
REMARK    9  A    between atoms: N3_23  and  C15_26
REMARK   10  A    between atoms: C15_26  and  C16_27
REMARK   11  A    between atoms: C15_26  and  C17_30
REMARK   12  A    between atoms: C17_30  and  O6_32
ROOT
HETATM    1  C2  UNL     1      36.429  73.715  24.530  1.00  0.00     0.205 C
ENDROOT
BRANCH   1   2
HETATM    2  N1  UNL     1      35.210  73.059  24.774  1.00  0.00    -0.412 N
HETATM    3  C1  UNL     1      35.188  71.741  25.280  1.00  0.00     0.141 C
ATOM      4  H1  UNL     1      34.331  73.540  24.584  1.00  0.00     0.153 HD
ENDBRANCH   1   2
BRANCH   1   5
HETATM    5  C3  UNL     1      36.921  73.757  23.146  1.00  0.00     0.171 C
HETATM    6  O1  UNL     1      36.201  74.225  22.284  1.00  0.00    -0.294 OA
BRANCH   5   7
HETATM    7  C4  UNL     1      38.257  73.262  22.727  1.00  0.00     0.205 C
BRANCH   7   8
HETATM    8  N2  UNL     1      38.347  73.261  21.234  1.00  0.00    -0.355 N
HETATM    9  C5  UNL     1      38.006  71.972  20.687  1.00  0.00     0.125 C
HETATM   10  C6  UNL     1      39.134  71.023  20.476  1.00  0.00     0.020 C
HETATM   11  C7  UNL     1      40.499  71.566  20.341  1.00  0.00     0.002 C
HETATM   12  C8  UNL     1      41.140  71.440  18.998  1.00  0.00     0.000 C
HETATM   13  C9  UNL     1      40.288  71.775  17.820  1.00  0.00     0.000 C
HETATM   14  C10 UNL     1      40.226  73.257  17.612  1.00  0.00     0.004 C
HETATM   15  C11 UNL     1      38.910  73.879  18.116  1.00  0.00     0.031 C
HETATM   16  C12 UNL     1      39.148  74.773  19.249  1.00  0.00     0.029 C
HETATM   17  C13 UNL     1      38.724  74.444  20.599  1.00  0.00     0.134 C
BRANCH  17  18
HETATM   18  O2  UNL     1      38.688  75.487  21.395  1.00  0.00    -0.346 OA
ATOM     19  H2  UNL     1      39.463  76.033  21.326  1.00  0.00     0.219 HD
ENDBRANCH  17  18
ENDBRANCH   7   8
ENDBRANCH   5   7
ENDBRANCH   1   5
BRANCH   1  20
HETATM   20  C14 UNL     1      36.393  75.078  25.212  1.00  0.00     0.349 C
BRANCH  20  21
HETATM   21  O3  UNL     1      35.709  74.901  26.448  1.00  0.00    -0.368 OA
ATOM     22  H3  UNL     1      36.345  75.050  27.138  1.00  0.00     0.212 HD
ENDBRANCH  20  21
BRANCH  20  23
HETATM   23  N3  UNL     1      37.706  75.530  25.528  1.00  0.00    -0.030 N
ATOM     24  H32 UNL     1      38.402  74.876  25.172  1.00  0.00     0.281 HD
ATOM     25  H31 UNL     1      37.940  76.354  24.973  1.00  0.00     0.281 HD
BRANCH  23  26
HETATM   26  C15 UNL     1      37.929  75.788  26.924  1.00  0.00     0.316 C
BRANCH  26  27
HETATM   27  C16 UNL     1      38.805  74.743  27.507  1.00  0.00     0.207 C
HETATM   28  O4  UNL     1      38.390  73.563  27.568  1.00  0.00    -0.646 OA
HETATM   29  O5  UNL     1      40.074  75.038  27.990  1.00  0.00    -0.646 OA
ENDBRANCH  26  27
BRANCH  26  30
HETATM   30  C17 UNL     1      38.637  77.145  27.075  1.00  0.00     0.155 C
HETATM   31  C18 UNL     1      37.814  78.251  26.514  1.00  0.00     0.042 C
BRANCH  30  32
HETATM   32  O6  UNL     1      39.010  77.358  28.383  1.00  0.00    -0.393 OA
ATOM     33  H6  UNL     1      39.939  77.197  28.500  1.00  0.00     0.210 HD
ENDBRANCH  30  32
ENDBRANCH  26  30
ENDBRANCH  23  26
ENDBRANCH  20  23
ENDBRANCH   1  20
TORSDOF 12
ENDMDL