MODEL 4
REMARK VINA RESULT: -6.356492987      1.876      6.687
REMARK  14 active torsions:
REMARK  status: ('A' for Active; 'I' for Inactive)
REMARK    1  A    between atoms: C2_2  and  C3_4
REMARK    2  A    between atoms: C3_4  and  N1_5
REMARK    3  A    between atoms: C3_4  and  C9_17
REMARK       I    between atoms: N1_5  and  C4_7
REMARK    4  A    between atoms: C4_7  and  C5_9
REMARK    5  A    between atoms: C5_9  and  N2_10
REMARK    6  A    between atoms: C5_9  and  C6_14
REMARK    7  A    between atoms: C9_17  and  C10_19
REMARK    8  A    between atoms: C10_19  and  N3_20
REMARK    9  A    between atoms: C10_19  and  C17_33
REMARK       I    between atoms: N3_20  and  C11_22
REMARK   10  A    between atoms: C11_22  and  C12_24
REMARK   11  A    between atoms: C12_24  and  N4_25
REMARK   12  A    between atoms: C12_24  and  C13_29
REMARK   13  A    between atoms: C13_29  and  C14_30
REMARK   14  A    between atoms: C17_33  and  O5_35
ROOT
HETATM    1  C9  UNL     1      40.306  69.717  19.141  1.00  0.00     0.181 C
HETATM    2  O3  UNL     1      40.613  69.531  20.360  1.00  0.00    -0.293 OA
ENDROOT
BRANCH   1   3
HETATM    3  C3  UNL     1      40.279  71.139  18.774  1.00  0.00     0.225 C
BRANCH   3   4
HETATM    4  C2  UNL     1      41.266  71.631  17.838  1.00  0.00     0.153 C
HETATM    5  C1  UNL     1      42.701  71.259  17.879  1.00  0.00     0.093 C
HETATM    6  O1  UNL     1      40.953  72.400  16.932  1.00  0.00    -0.296 OA
ENDBRANCH   3   4
BRANCH   3   7
HETATM    7  N1  UNL     1      40.236  71.934  20.011  1.00  0.00    -0.341 N
HETATM    8  C4  UNL     1      39.341  72.988  20.223  1.00  0.00     0.249 C
HETATM    9  O2  UNL     1      38.540  73.236  19.254  1.00  0.00    -0.271 OA
ATOM     10  H1  UNL     1      40.895  71.703  20.755  1.00  0.00     0.163 HD
BRANCH   8  11
HETATM   11  C5  UNL     1      39.208  73.843  21.408  1.00  0.00     0.278 C
BRANCH  11  12
HETATM   12  N2  UNL     1      38.940  75.231  21.044  1.00  0.00    -0.066 N
ATOM     13  H23 UNL     1      39.727  75.643  20.543  1.00  0.00     0.275 HD
ATOM     14  H22 UNL     1      38.233  75.294  20.310  1.00  0.00     0.275 HD
ATOM     15  H21 UNL     1      38.682  75.791  21.857  1.00  0.00     0.275 HD
ENDBRANCH  11  12
BRANCH  11  16
HETATM   16  C6  UNL     1      38.117  73.401  22.322  1.00  0.00     0.017 C
HETATM   17  C7  UNL     1      38.486  73.624  23.758  1.00  0.00     0.012 C
HETATM   18  C8  UNL     1      36.847  74.178  22.053  1.00  0.00     0.012 C
ENDBRANCH  11  16
ENDBRANCH   8  11
ENDBRANCH   3   7
ENDBRANCH   1   3
BRANCH   1  19
HETATM   19  C10 UNL     1      40.037  68.538  18.331  1.00  0.00     0.185 C
BRANCH  19  20
HETATM   20  N3  UNL     1      38.725  67.943  18.716  1.00  0.00    -0.345 N
HETATM   21  C11 UNL     1      37.559  68.367  18.036  1.00  0.00     0.249 C
HETATM   22  O4  UNL     1      37.641  69.232  17.125  1.00  0.00    -0.271 OA
ATOM     23  H3  UNL     1      38.669  67.243  19.456  1.00  0.00     0.163 HD
BRANCH  21  24
HETATM   24  C12 UNL     1      36.217  67.832  18.350  1.00  0.00     0.275 C
BRANCH  24  25
HETATM   25  N4  UNL     1      36.164  66.396  18.182  1.00  0.00    -0.066 N
ATOM     26  H43 UNL     1      36.085  65.918  19.081  1.00  0.00     0.275 HD
ATOM     27  H42 UNL     1      35.280  66.102  17.768  1.00  0.00     0.275 HD
ATOM     28  H41 UNL     1      36.960  66.051  17.646  1.00  0.00     0.275 HD
ENDBRANCH  24  25
BRANCH  24  29
HETATM   29  C13 UNL     1      35.127  68.465  17.547  1.00  0.00     0.046 C
BRANCH  29  30
HETATM   30  C14 UNL     1      34.098  69.208  18.339  1.00  0.00    -0.020 C
HETATM   31  C15 UNL     1      33.381  68.156  19.198  1.00  0.00     0.009 C
HETATM   32  C16 UNL     1      33.083  69.936  17.522  1.00  0.00     0.009 C
ENDBRANCH  29  30
ENDBRANCH  24  29
ENDBRANCH  21  24
ENDBRANCH  19  20
BRANCH  19  33
HETATM   33  C17 UNL     1      41.042  67.418  18.564  1.00  0.00     0.144 C
HETATM   34  C18 UNL     1      42.380  67.779  18.044  1.00  0.00     0.042 C
BRANCH  33  35
HETATM   35  O5  UNL     1      40.999  66.914  19.841  1.00  0.00    -0.393 OA
ATOM     36  H5  UNL     1      41.014  65.965  19.867  1.00  0.00     0.210 HD
ENDBRANCH  33  35
ENDBRANCH  19  33
ENDBRANCH   1  19
TORSDOF 14
ENDMDL