MODEL 2
REMARK VINA RESULT: -6.661325918      2.467      4.148
REMARK  11 active torsions:
REMARK  status: ('A' for Active; 'I' for Inactive)
REMARK    1  A    between atoms: C2_2  and  N1_4
REMARK    2  A    between atoms: N1_4  and  C4_6
REMARK    3  A    between atoms: C4_6  and  C5_12
REMARK    4  A    between atoms: N2_7  and  N3_9
REMARK    5  A    between atoms: C5_12  and  C6_13
REMARK    6  A    between atoms: C5_12  and  N8_25
REMARK    7  A    between atoms: C6_13  and  C7_14
REMARK    8  A    between atoms: C7_14  and  C8_15
REMARK    9  A    between atoms: C8_15  and  N4_16
REMARK       I    between atoms: C9_18  and  N6_20
REMARK   10  A    between atoms: N6_20  and  N7_22
REMARK       I    between atoms: N8_25  and  C10_27
REMARK   11  A    between atoms: C10_27  and  C11_29
ROOT
HETATM    1  C5  UNL     1      40.487  69.745  16.430  1.00  0.00     0.153 C
ENDROOT
BRANCH   1   2
HETATM    2  C4  UNL     1      39.754  69.962  15.176  1.00  0.00     0.115 C
HETATM    3  N2  UNL     1      38.660  69.418  14.818  1.00  0.00    -0.294 N
ATOM      4  H2  UNL     1      38.240  68.744  15.459  1.00  0.00     0.187 HD
BRANCH   2   5
HETATM    5  N1  UNL     1      40.310  70.909  14.239  1.00  0.00    -0.373 N
ATOM      6  H1  UNL     1      39.860  71.816  14.119  1.00  0.00     0.161 HD
BRANCH   5   7
HETATM    7  C2  UNL     1      41.491  70.598  13.469  1.00  0.00     0.074 C
HETATM    8  C1  UNL     1      41.194  70.671  11.974  1.00  0.00     0.031 C
HETATM    9  C3  UNL     1      42.537  71.652  13.756  1.00  0.00     0.031 C
ENDBRANCH   5   7
ENDBRANCH   2   5
BRANCH   3  10
HETATM   10  N3  UNL     1      37.995  69.667  13.633  1.00  0.00    -0.344 N
ATOM     11  H32 UNL     1      37.739  70.638  13.453  1.00  0.00     0.176 HD
ATOM     12  H31 UNL     1      37.746  68.963  12.938  1.00  0.00     0.176 HD
ENDBRANCH   3  10
ENDBRANCH   1   2
BRANCH   1  13
HETATM   13  C6  UNL     1      40.655  68.344  16.873  1.00  0.00     0.035 C
BRANCH  13  14
HETATM   14  C7  UNL     1      39.868  68.000  18.090  1.00  0.00     0.022 C
BRANCH  14  15
HETATM   15  C8  UNL     1      38.600  67.256  17.692  1.00  0.00     0.122 C
BRANCH  15  16
HETATM   16  N4  UNL     1      37.442  67.786  18.378  1.00  0.00    -0.363 N
HETATM   17  C9  UNL     1      36.436  68.252  17.690  1.00  0.00     0.207 C
HETATM   18  N5  UNL     1      36.422  68.264  16.274  1.00  0.00    -0.062 NA
HETATM   19  N6  UNL     1      35.312  68.768  18.386  1.00  0.00    -0.213 N
ATOM     20  H6  UNL     1      35.222  69.774  18.529  1.00  0.00     0.196 HD
ATOM     21  H4  UNL     1      37.413  67.796  19.398  1.00  0.00     0.162 HD
BRANCH  19  22
HETATM   22  N7  UNL     1      34.329  67.907  18.875  1.00  0.00    -0.036 N
HETATM   23  O1  UNL     1      34.517  66.684  19.029  1.00  0.00    -0.516 OA
HETATM   24  O2  UNL     1      33.081  68.406  19.214  1.00  0.00    -0.516 OA
ENDBRANCH  19  22
ENDBRANCH  15  16
ENDBRANCH  14  15
ENDBRANCH  13  14
ENDBRANCH   1  13
BRANCH   1  25
HETATM   25  N8  UNL     1      40.000  70.629  17.473  1.00  0.00    -0.345 N
HETATM   26  C10 UNL     1      40.414  71.956  17.646  1.00  0.00     0.252 C
HETATM   27  O3  UNL     1      41.267  72.513  16.889  1.00  0.00    -0.268 OA
ATOM     28  H8  UNL     1      39.308  70.259  18.125  1.00  0.00     0.163 HD
BRANCH  26  29
HETATM   29  C11 UNL     1      39.881  72.787  18.719  1.00  0.00     0.032 A
HETATM   30  C12 UNL     1      39.142  73.936  18.454  1.00  0.00     0.017 A
HETATM   31  C13 UNL     1      38.657  74.704  19.467  1.00  0.00     0.001 A
HETATM   32  C14 UNL     1      38.887  74.363  20.776  1.00  0.00     0.000 A
HETATM   33  C15 UNL     1      39.620  73.221  21.033  1.00  0.00     0.001 A
HETATM   34  C16 UNL     1      40.128  72.416  20.047  1.00  0.00     0.017 A
ENDBRANCH  26  29
ENDBRANCH   1  25
TORSDOF 11
ENDMDL