MODEL 1
REMARK VINA RESULT: -5.944152559      0.000      0.000
REMARK  14 active torsions:
REMARK  status: ('A' for Active; 'I' for Inactive)
REMARK    1  A    between atoms: O1_2  and  C2_3
REMARK    2  A    between atoms: C2_3  and  C3_5
REMARK    3  A    between atoms: C3_5  and  C4_6
REMARK    4  A    between atoms: C4_6  and  C5_7
REMARK    5  A    between atoms: C5_7  and  N1_8
REMARK    6  A    between atoms: C5_7  and  C14_27
REMARK    7  A    between atoms: N1_8  and  C6_10
REMARK    8  A    between atoms: C6_10  and  O3_11
REMARK    9  A    between atoms: C6_10  and  C7_13
REMARK   10  A    between atoms: C7_13  and  N2_14
REMARK   11  A    between atoms: C7_13  and  C11_24
REMARK       I    between atoms: N2_14  and  C8_16
REMARK   12  A    between atoms: C8_16  and  C9_18
REMARK   13  A    between atoms: C9_18  and  N3_20
REMARK       I    between atoms: C14_27  and  N4_29
REMARK   14  A    between atoms: N4_29  and  C15_31
ROOT
HETATM    1  N1  UNL     1      38.280  70.094  17.377  1.00  0.00    -0.359 N
ATOM      2  H1  UNL     1      37.455  70.497  17.822  1.00  0.00     0.162 HD
ENDROOT
BRANCH   1   3
HETATM    3  C5  UNL     1      38.464  68.626  17.355  1.00  0.00     0.176 C
BRANCH   3   4
HETATM    4  C4  UNL     1      37.127  67.972  17.618  1.00  0.00     0.044 C
BRANCH   4   5
HETATM    5  C3  UNL     1      36.076  69.031  17.948  1.00  0.00     0.113 C
BRANCH   5   6
HETATM    6  C2  UNL     1      34.933  68.393  18.614  1.00  0.00     0.258 C
HETATM    7  O2  UNL     1      35.009  67.204  19.017  1.00  0.00    -0.265 OA
BRANCH   6   8
HETATM    8  O1  UNL     1      33.750  69.101  18.806  1.00  0.00    -0.326 OA
HETATM    9  C1  UNL     1      33.168  69.772  17.728  1.00  0.00     0.213 C
ENDBRANCH   6   8
ENDBRANCH   5   6
ENDBRANCH   4   5
ENDBRANCH   3   4
BRANCH   3  10
HETATM   10  C14 UNL     1      39.383  68.271  18.445  1.00  0.00     0.242 C
HETATM   11  O5  UNL     1      38.989  68.217  19.634  1.00  0.00    -0.271 OA
HETATM   12  N4  UNL     1      40.740  67.997  18.081  1.00  0.00    -0.326 N
ATOM     13  H4  UNL     1      41.060  68.043  17.113  1.00  0.00     0.165 HD
BRANCH  12  14
HETATM   14  C15 UNL     1      41.643  67.646  19.179  1.00  0.00     0.220 A
HETATM   15  C16 UNL     1      42.086  68.784  20.049  1.00  0.00     0.072 C
HETATM   16  C17 UNL     1      42.508  66.444  19.010  1.00  0.00     0.296 A
HETATM   17  N5  UNL     1      41.373  66.413  19.896  1.00  0.00    -0.043 N
ATOM     18  H52 UNL     1      41.253  66.180  20.881  1.00  0.00     0.280 HD
ATOM     19  H51 UNL     1      40.557  65.806  19.976  1.00  0.00     0.280 HD
ENDBRANCH  12  14
ENDBRANCH   3  10
ENDBRANCH   1   3
BRANCH   1  20
HETATM   20  C6  UNL     1      39.229  70.923  16.791  1.00  0.00     0.135 C
BRANCH  20  21
HETATM   21  O3  UNL     1      39.401  70.810  15.507  1.00  0.00    -0.348 OA
ATOM     22  H3  UNL     1      39.997  70.134  15.210  1.00  0.00     0.219 HD
ENDBRANCH  20  21
BRANCH  20  23
HETATM   23  C7  UNL     1      40.075  71.924  17.463  1.00  0.00     0.162 C
BRANCH  23  24
HETATM   24  N2  UNL     1      41.457  71.505  17.555  1.00  0.00    -0.347 N
HETATM   25  C8  UNL     1      42.440  71.867  16.604  1.00  0.00     0.248 C
HETATM   26  O4  UNL     1      42.113  72.588  15.628  1.00  0.00    -0.271 OA
ATOM     27  H2  UNL     1      41.736  70.920  18.342  1.00  0.00     0.163 HD
BRANCH  25  28
HETATM   28  C9  UNL     1      43.842  71.433  16.712  1.00  0.00     0.270 C
HETATM   29  C10 UNL     1      44.780  72.479  16.157  1.00  0.00     0.050 C
BRANCH  28  30
HETATM   30  N3  UNL     1      44.180  71.032  18.041  1.00  0.00    -0.067 N
ATOM     31  H33 UNL     1      45.149  70.718  18.097  1.00  0.00     0.275 HD
ATOM     32  H32 UNL     1      44.234  71.836  18.667  1.00  0.00     0.275 HD
ATOM     33  H31 UNL     1      43.540  70.325  18.404  1.00  0.00     0.275 HD
ENDBRANCH  28  30
ENDBRANCH  25  28
ENDBRANCH  23  24
BRANCH  23  34
HETATM   34  C11 UNL     1      39.504  72.515  18.691  1.00  0.00     0.008 C
HETATM   35  C12 UNL     1      39.033  73.938  18.521  1.00  0.00     0.012 C
HETATM   36  C13 UNL     1      40.474  72.459  19.865  1.00  0.00     0.012 C
ENDBRANCH  23  34
ENDBRANCH  20  23
ENDBRANCH   1  20
TORSDOF 14
ENDMDL