MODEL 1
REMARK VINA RESULT: -6.794554368      0.000      0.000
REMARK  13 active torsions:
REMARK  status: ('A' for Active; 'I' for Inactive)
REMARK    1  A    between atoms: C3_3  and  C4_4
REMARK    2  A    between atoms: C4_4  and  N1_5
REMARK    3  A    between atoms: N1_5  and  N2_6
REMARK       I    between atoms: N1_5  and  C5_10
REMARK    4  A    between atoms: N2_6  and  O1_8
REMARK       I    between atoms: C5_10  and  N3_12
REMARK    5  A    between atoms: N3_12  and  C6_14
REMARK    6  A    between atoms: C6_14  and  C7_15
REMARK    7  A    between atoms: C7_15  and  C8_16
REMARK    8  A    between atoms: C8_16  and  C9_17
REMARK    9  A    between atoms: C9_17  and  N4_18
REMARK   10  A    between atoms: C9_17  and  C12_23
REMARK       I    between atoms: N4_18  and  C10_20
REMARK   11  A    between atoms: C12_23  and  N6_26
REMARK   12  A    between atoms: N6_26  and  N7_27
REMARK   13  A    between atoms: N7_27  and  C14_29
ROOT
HETATM    1  C1  UNL     1      39.338  77.388  27.515  1.00  0.00     0.012 C
HETATM    2  C2  UNL     1      39.027  76.219  27.520  1.00  0.00    -0.116 C
HETATM    3  C3  UNL     1      38.690  74.813  27.540  1.00  0.00     0.115 C
ENDROOT
BRANCH   3   4
HETATM    4  C4  UNL     1      37.292  74.473  27.136  1.00  0.00     0.168 C
BRANCH   4   5
HETATM    5  N1  UNL     1      37.156  73.638  25.987  1.00  0.00    -0.223 N
HETATM    6  C5  UNL     1      37.312  74.089  24.662  1.00  0.00     0.338 C
HETATM    7  O2  UNL     1      37.561  75.270  24.364  1.00  0.00    -0.245 OA
HETATM    8  N3  UNL     1      37.182  73.169  23.592  1.00  0.00    -0.342 N
ATOM      9  H3  UNL     1      36.974  72.196  23.820  1.00  0.00     0.164 HD
BRANCH   5  10
HETATM   10  N2  UNL     1      36.847  72.280  26.213  1.00  0.00    -0.204 N
ATOM     11  H2  UNL     1      37.253  71.533  25.650  1.00  0.00     0.216 HD
BRANCH  10  12
HETATM   12  O1  UNL     1      36.047  72.046  27.143  1.00  0.00    -0.274 OA
ATOM     13  H1  UNL     1      36.040  71.155  27.473  1.00  0.00     0.246 HD
ENDBRANCH  10  12
ENDBRANCH   5  10
BRANCH   8  14
HETATM   14  C6  UNL     1      37.325  73.520  22.215  1.00  0.00     0.124 C
BRANCH  14  15
HETATM   15  C7  UNL     1      38.707  73.148  21.739  1.00  0.00     0.022 C
BRANCH  15  16
HETATM   16  C8  UNL     1      38.693  73.221  20.227  1.00  0.00     0.029 C
BRANCH  16  17
HETATM   17  C9  UNL     1      39.380  72.051  19.578  1.00  0.00     0.119 C
BRANCH  17  18
HETATM   18  N4  UNL     1      38.464  71.506  18.596  1.00  0.00    -0.354 N
HETATM   19  C10 UNL     1      38.163  70.115  18.583  1.00  0.00     0.214 C
HETATM   20  C11 UNL     1      37.236  69.509  17.603  1.00  0.00     0.117 C
HETATM   21  O3  UNL     1      38.688  69.341  19.425  1.00  0.00    -0.274 OA
ATOM     22  H4  UNL     1      38.032  72.123  17.909  1.00  0.00     0.162 HD
ENDBRANCH  17  18
BRANCH  17  23
HETATM   23  C12 UNL     1      40.711  72.378  18.985  1.00  0.00     0.228 C
HETATM   24  C13 UNL     1      41.574  71.206  19.143  1.00  0.00     0.084 C
HETATM   25  N5  UNL     1      42.263  70.277  19.268  1.00  0.00    -0.195 NA
BRANCH  23  26
HETATM   26  N6  UNL     1      40.678  72.717  17.596  1.00  0.00    -0.118 NA
BRANCH  26  27
HETATM   27  N7  UNL     1      41.533  71.997  16.810  1.00  0.00    -0.281 N
ATOM     28  H7  UNL     1      42.521  71.935  17.058  1.00  0.00     0.184 HD
BRANCH  27  29
HETATM   29  C14 UNL     1      41.055  71.337  15.657  1.00  0.00     0.196 C
HETATM   30  N8  UNL     1      39.674  71.137  15.447  1.00  0.00    -0.069 NA
HETATM   31  S1  UNL     1      42.098  70.793  14.544  1.00  0.00    -0.043 SA
ENDBRANCH  27  29
ENDBRANCH  26  27
ENDBRANCH  23  26
ENDBRANCH  17  23
ENDBRANCH  16  17
ENDBRANCH  15  16
ENDBRANCH  14  15
ENDBRANCH   8  14
ENDBRANCH   4   5
ENDBRANCH   3   4
TORSDOF 13
ENDMDL