MODEL 1
REMARK VINA RESULT: -7.599714759      0.000      0.000
REMARK  12 active torsions:
REMARK  status: ('A' for Active; 'I' for Inactive)
REMARK    1  A    between atoms: C2_2  and  N1_4
REMARK    2  A    between atoms: N1_4  and  C4_7
REMARK    3  A    between atoms: C4_7  and  O1_8
REMARK    4  A    between atoms: C4_7  and  C5_10
REMARK    5  A    between atoms: C5_10  and  C6_12
REMARK    6  A    between atoms: C6_12  and  N2_14
REMARK    7  A    between atoms: N2_14  and  C8_17
REMARK    8  A    between atoms: C8_17  and  C9_18
REMARK       I    between atoms: C9_18  and  N3_20
REMARK    9  A    between atoms: N3_20  and  C10_22
REMARK   10  A    between atoms: C10_22  and  C11_23
REMARK   11  A    between atoms: C10_22  and  C12_25
REMARK       I    between atoms: C12_25  and  N4_27
REMARK   12  A    between atoms: N4_27  and  C13_29
ROOT
HETATM    1  C8  UNL     1      37.497  73.687  23.217  1.00  0.00     0.335 C
ENDROOT
BRANCH   1   2
HETATM    2  N2  UNL     1      37.884  74.423  24.381  1.00  0.00    -0.056 N
ATOM      3  H22 UNL     1      37.272  75.224  24.533  1.00  0.00     0.278 HD
ATOM      4  H21 UNL     1      38.763  74.918  24.231  1.00  0.00     0.278 HD
BRANCH   2   5
HETATM    5  C6  UNL     1      37.949  73.597  25.541  1.00  0.00     0.256 C
HETATM    6  C7  UNL     1      36.692  72.694  25.682  1.00  0.00     0.048 C
BRANCH   5   7
HETATM    7  C5  UNL     1      37.899  74.401  26.818  1.00  0.00     0.212 C
HETATM    8  O2  UNL     1      36.914  74.339  27.483  1.00  0.00    -0.291 OA
BRANCH   7   9
HETATM    9  C4  UNL     1      39.081  75.216  27.172  1.00  0.00     0.391 C
BRANCH   9  10
HETATM   10  N1  UNL     1      38.690  76.471  27.827  1.00  0.00    -0.038 N
ATOM     11  H12 UNL     1      39.137  76.552  28.741  1.00  0.00     0.281 HD
ATOM     12  H11 UNL     1      37.713  76.434  28.116  1.00  0.00     0.281 HD
BRANCH  10  13
HETATM   13  C2  UNL     1      38.936  77.635  27.047  1.00  0.00     0.181 C
HETATM   14  C1  UNL     1      37.874  78.699  27.131  1.00  0.00     0.039 C
HETATM   15  C3  UNL     1      40.210  78.279  27.588  1.00  0.00     0.039 C
ENDBRANCH  10  13
ENDBRANCH   9  10
BRANCH   9  16
HETATM   16  O1  UNL     1      39.880  74.536  28.094  1.00  0.00    -0.364 OA
ATOM     17  H1  UNL     1      40.292  73.830  27.611  1.00  0.00     0.212 HD
ENDBRANCH   9  16
ENDBRANCH   7   9
ENDBRANCH   5   7
ENDBRANCH   2   5
ENDBRANCH   1   2
BRANCH   1  18
HETATM   18  C9  UNL     1      38.652  73.455  22.268  1.00  0.00     0.244 C
HETATM   19  O3  UNL     1      39.766  73.854  22.617  1.00  0.00    -0.272 OA
HETATM   20  N3  UNL     1      38.457  72.809  21.038  1.00  0.00    -0.341 N
ATOM     21  H3  UNL     1      37.510  72.515  20.797  1.00  0.00     0.163 HD
BRANCH  20  22
HETATM   22  C10 UNL     1      39.513  72.535  20.088  1.00  0.00     0.238 C
BRANCH  22  23
HETATM   23  C11 UNL     1      39.312  73.625  19.032  1.00  0.00     0.266 C
HETATM   24  O4  UNL     1      39.838  73.567  17.973  1.00  0.00    -0.304 OA
ENDBRANCH  22  23
BRANCH  22  25
HETATM   25  C12 UNL     1      39.264  71.239  19.409  1.00  0.00     0.251 C
HETATM   26  O5  UNL     1      39.984  70.299  19.700  1.00  0.00    -0.270 OA
HETATM   27  N4  UNL     1      38.219  71.128  18.457  1.00  0.00    -0.325 N
ATOM     28  H4  UNL     1      37.684  71.973  18.260  1.00  0.00     0.169 HD
BRANCH  27  29
HETATM   29  C13 UNL     1      37.844  69.960  17.755  1.00  0.00     0.034 A
HETATM   30  C14 UNL     1      36.889  69.124  18.361  1.00  0.00     0.029 A
HETATM   31  C15 UNL     1      36.507  67.953  17.749  1.00  0.00     0.002 A
HETATM   32  C16 UNL     1      37.027  67.534  16.532  1.00  0.00     0.000 A
HETATM   33  C17 UNL     1      37.955  68.343  15.943  1.00  0.00     0.002 A
HETATM   34  C18 UNL     1      38.352  69.538  16.554  1.00  0.00     0.029 A
ENDBRANCH  27  29
ENDBRANCH  22  25
ENDBRANCH  20  22
ENDBRANCH   1  18
TORSDOF 12
ENDMDL