MODEL 1
REMARK VINA RESULT: -9.522652080      0.000      0.000
REMARK  9 active torsions:
REMARK  status: ('A' for Active; 'I' for Inactive)
REMARK    1  A    between atoms: C2_2  and  C4_4
REMARK    2  A    between atoms: C4_4  and  C5_5
REMARK    3  A    between atoms: C5_5  and  N1_6
REMARK    4  A    between atoms: C5_5  and  C27_37
REMARK       I    between atoms: N1_6  and  C6_8
REMARK    5  A    between atoms: C6_8  and  C7_10
REMARK    6  A    between atoms: C7_10  and  C8_11
REMARK    7  A    between atoms: C9_12  and  O2_13
REMARK    8  A    between atoms: C10_15  and  O3_16
REMARK    9  A    between atoms: C25_33  and  O4_34
ROOT
HETATM    1  C8  UNL     1       3.071  15.825 -39.577  1.00  0.00     0.033 C
HETATM    2  C9  UNL     1       2.262  17.096 -39.714  1.00  0.00     0.152 C
HETATM    3  C10 UNL     1       1.225  17.044 -38.580  1.00  0.00     0.155 C
HETATM    4  C11 UNL     1       2.083  16.337 -37.521  1.00  0.00    -0.009 C
HETATM    5  C12 UNL     1       3.033  17.331 -36.995  1.00  0.00     0.018 C
HETATM    6  C13 UNL     1       1.239  15.772 -36.411  1.00  0.00     0.013 C
HETATM    7  C14 UNL     1       1.410  14.311 -36.194  1.00  0.00     0.009 C
HETATM    8  C15 UNL     1       2.791  13.762 -36.338  1.00  0.00     0.025 C
HETATM    9  C16 UNL     1       3.751  13.942 -35.238  1.00  0.00     0.003 C
HETATM   10  C17 UNL     1       3.322  13.416 -33.891  1.00  0.00    -0.014 C
HETATM   11  C18 UNL     1       2.513  14.374 -33.075  1.00  0.00     0.010 C
HETATM   12  C19 UNL     1       2.754  12.033 -33.967  1.00  0.00     0.007 C
HETATM   13  C20 UNL     1       3.895  11.117 -34.395  1.00  0.00     0.038 C
HETATM   14  C21 UNL     1       4.679  11.618 -35.554  1.00  0.00     0.174 C
HETATM   15  F1  UNL     1       5.929  10.974 -35.487  1.00  0.00    -0.249 F
HETATM   16  C22 UNL     1       4.974  13.071 -35.587  1.00  0.00     0.024 C
HETATM   17  C23 UNL     1       5.594  13.440 -36.896  1.00  0.00     0.011 C
HETATM   18  C24 UNL     1       4.858  14.651 -37.445  1.00  0.00     0.039 C
HETATM   19  C25 UNL     1       3.425  14.210 -37.642  1.00  0.00     0.067 C
HETATM   20  C26 UNL     1       2.581  15.211 -38.330  1.00  0.00     0.038 C
ENDROOT
BRANCH   1  21
HETATM   21  C7  UNL     1       2.695  14.984 -40.808  1.00  0.00     0.110 C
BRANCH  21  22
HETATM   22  C6  UNL     1       3.926  14.606 -41.513  1.00  0.00     0.218 C
HETATM   23  N1  UNL     1       4.174  13.247 -41.805  1.00  0.00    -0.346 N
ATOM     24  H1  UNL     1       3.493  12.544 -41.521  1.00  0.00     0.163 HD
HETATM   25  O1  UNL     1       4.752  15.491 -41.859  1.00  0.00    -0.274 OA
BRANCH  23  26
HETATM   26  C5  UNL     1       5.408  12.821 -42.519  1.00  0.00     0.185 C
BRANCH  26  27
HETATM   27  C4  UNL     1       5.779  11.522 -41.922  1.00  0.00     0.040 C
BRANCH  27  28
HETATM   28  C2  UNL     1       5.931  11.373 -40.453  1.00  0.00    -0.020 C
HETATM   29  C1  UNL     1       4.818  10.373 -40.033  1.00  0.00     0.009 C
HETATM   30  C3  UNL     1       7.215  10.614 -40.077  1.00  0.00     0.009 C
ENDBRANCH  27  28
ENDBRANCH  26  27
BRANCH  26  31
HETATM   31  C27 UNL     1       5.148  12.861 -43.966  1.00  0.00     0.196 C
HETATM   32  O5  UNL     1       4.833  11.788 -44.599  1.00  0.00    -0.646 OA
HETATM   33  O6  UNL     1       5.203  13.993 -44.756  1.00  0.00    -0.646 OA
ENDBRANCH  26  31
ENDBRANCH  23  26
ENDBRANCH  21  22
ENDBRANCH   1  21
BRANCH   2  34
HETATM   34  O2  UNL     1       3.017  18.255 -39.628  1.00  0.00    -0.393 OA
ATOM     35  H2  UNL     1       3.665  18.345 -40.316  1.00  0.00     0.210 HD
ENDBRANCH   2  34
BRANCH   3  36
HETATM   36  O3  UNL     1       0.235  16.167 -38.960  1.00  0.00    -0.392 OA
ATOM     37  H3  UNL     1       0.403  15.338 -38.528  1.00  0.00     0.210 HD
ENDBRANCH   3  36
BRANCH  19  38
HETATM   38  O4  UNL     1       3.528  13.113 -38.539  1.00  0.00    -0.389 OA
ATOM     39  H4  UNL     1       4.358  13.144 -39.000  1.00  0.00     0.210 HD
ENDBRANCH  19  38
TORSDOF 9
ENDMDL