MODEL 3
REMARK VINA RESULT: -7.241198895      3.226      5.282
REMARK  10 active torsions:
REMARK  status: ('A' for Active; 'I' for Inactive)
REMARK    1  A    between atoms: C2_2  and  C3_4
REMARK    2  A    between atoms: C7_8  and  O1_9
REMARK    3  A    between atoms: C10_15  and  C11_16
REMARK    4  A    between atoms: C11_16  and  O2_17
REMARK    5  A    between atoms: C11_16  and  C12_19
REMARK    6  A    between atoms: C12_19  and  O3_20
REMARK    7  A    between atoms: C12_19  and  C13_22
REMARK    8  A    between atoms: C13_22  and  C14_23
REMARK    9  A    between atoms: C14_23  and  C15_25
REMARK   10  A    between atoms: C15_25  and  O5_26
ROOT
HETATM    1  C3  UNL     1       3.523  12.933 -35.185  1.00  0.00    -0.040 C
HETATM    2  C4  UNL     1       2.328  13.472 -34.974  1.00  0.00    -0.006 C
HETATM    3  C5  UNL     1       2.295  14.884 -35.423  1.00  0.00     0.005 C
HETATM    4  C6  UNL     1       2.432  15.690 -34.118  1.00  0.00     0.022 C
HETATM    5  C7  UNL     1       0.950  15.112 -36.019  1.00  0.00     0.132 C
HETATM    6  C8  UNL     1       0.696  16.485 -36.562  1.00  0.00     0.057 C
HETATM    7  C9  UNL     1       0.929  16.623 -38.021  1.00  0.00     0.084 C
HETATM    8  N1  UNL     1      -0.171  17.254 -38.724  1.00  0.00    -0.410 N
ATOM      9  H1  UNL     1      -0.858  16.714 -39.250  1.00  0.00     0.154 HD
HETATM   10  C10 UNL     1      -0.232  18.658 -38.635  1.00  0.00     0.108 C
HETATM   11  C16 UNL     1       0.807  19.302 -37.780  1.00  0.00     0.032 C
HETATM   12  C17 UNL     1       2.208  18.765 -37.924  1.00  0.00    -0.011 C
HETATM   13  C18 UNL     1       2.926  19.107 -36.677  1.00  0.00     0.010 C
HETATM   14  C19 UNL     1       2.225  17.339 -38.387  1.00  0.00     0.012 C
HETATM   15  C20 UNL     1       3.460  16.584 -38.203  1.00  0.00     0.012 C
HETATM   16  C21 UNL     1       3.393  15.174 -37.680  1.00  0.00    -0.008 C
HETATM   17  C22 UNL     1       4.711  14.521 -38.074  1.00  0.00     0.006 C
HETATM   18  C23 UNL     1       4.915  13.399 -37.115  1.00  0.00     0.010 C
HETATM   19  C24 UNL     1       4.390  13.934 -35.827  1.00  0.00     0.025 C
HETATM   20  C25 UNL     1       3.489  15.118 -36.206  1.00  0.00     0.012 C
ENDROOT
BRANCH  10  21
HETATM   21  C11 UNL     1      -0.350  19.379 -39.991  1.00  0.00     0.169 C
BRANCH  21  22
HETATM   22  O2  UNL     1      -1.341  18.681 -40.670  1.00  0.00    -0.391 OA
ATOM     23  H2  UNL     1      -2.028  19.322 -40.813  1.00  0.00     0.210 HD
ENDBRANCH  21  22
BRANCH  21  24
HETATM   24  C12 UNL     1       0.924  19.334 -40.759  1.00  0.00     0.155 C
BRANCH  24  25
HETATM   25  O3  UNL     1       1.361  20.584 -41.200  1.00  0.00    -0.393 OA
ATOM     26  H3  UNL     1       1.108  20.786 -42.093  1.00  0.00     0.210 HD
ENDBRANCH  24  25
BRANCH  24  27
HETATM   27  C13 UNL     1       0.997  18.279 -41.798  1.00  0.00     0.115 C
BRANCH  27  28
HETATM   28  C14 UNL     1       2.323  17.771 -42.126  1.00  0.00     0.152 C
HETATM   29  O4  UNL     1       3.121  18.544 -42.664  1.00  0.00    -0.296 OA
BRANCH  28  30
HETATM   30  C15 UNL     1       2.796  16.409 -41.870  1.00  0.00     0.242 C
BRANCH  30  31
HETATM   31  O5  UNL     1       1.812  15.511 -41.492  1.00  0.00    -0.394 OA
ATOM     32  H5  UNL     1       1.079  15.445 -42.093  1.00  0.00     0.209 HD
ENDBRANCH  30  31
ENDBRANCH  28  30
ENDBRANCH  27  28
ENDBRANCH  24  27
ENDBRANCH  21  24
ENDBRANCH  10  21
BRANCH   5  33
HETATM   33  O1  UNL     1       0.562  14.093 -36.904  1.00  0.00    -0.394 OA
ATOM     34  H1  UNL     1       0.375  13.272 -36.464  1.00  0.00     0.210 HD
ENDBRANCH   5  33
BRANCH   1  35
HETATM   35  C2  UNL     1       3.867  11.584 -34.853  1.00  0.00     0.008 C
HETATM   36  C1  UNL     1       3.102  10.785 -34.167  1.00  0.00     0.032 C
HETATM   37 BR1  UNL     1       5.561  10.881 -35.424  1.00  0.00    -0.051 Br
ENDBRANCH   1  35
TORSDOF 10
ENDMDL