MODEL 2
REMARK VINA RESULT: -7.843607722      1.024      1.489
REMARK  10 active torsions:
REMARK  status: ('A' for Active; 'I' for Inactive)
REMARK    1  A    between atoms: C3_5  and  N2_6
REMARK    2  A    between atoms: N2_6  and  C4_8
REMARK    3  A    between atoms: C7_13  and  C8_14
REMARK    4  A    between atoms: C8_14  and  S1_15
REMARK    5  A    between atoms: S1_15  and  N4_18
REMARK    6  A    between atoms: N4_18  and  C9_20
REMARK    7  A    between atoms: C10_21  and  O3_22
REMARK    8  A    between atoms: C11_24  and  C12_25
REMARK    9  A    between atoms: C12_25  and  O4_28
REMARK   10  A    between atoms: C17_33  and  C18_34
ROOT
HETATM    1  N4  UNL     1      -0.996  22.142 -38.465  1.00  0.00    -0.281 N
ATOM      2  H4  UNL     1      -0.749  22.865 -39.142  1.00  0.00     0.178 HD
ENDROOT
BRANCH   1   3
HETATM    3  S1  UNL     1      -0.754  20.467 -38.893  1.00  0.00     0.236 S
HETATM    4  O1  UNL     1      -1.347  20.172 -40.212  1.00  0.00    -0.205 OA
HETATM    5  O2  UNL     1      -1.632  19.682 -37.872  1.00  0.00    -0.205 OA
BRANCH   3   6
HETATM    6  C8  UNL     1       0.846  19.862 -38.678  1.00  0.00     0.222 C
BRANCH   6   7
HETATM    7  C7  UNL     1       1.019  18.384 -38.503  1.00  0.00     0.065 A
HETATM    8  C2  UNL     1       0.902  17.397 -39.443  1.00  0.00     0.046 A
HETATM    9  C1  UNL     1       1.041  17.522 -40.920  1.00  0.00     0.071 C
HETATM   10  N1  UNL     1       0.750  16.262 -38.772  1.00  0.00    -0.194 N
HETATM   11  C3  UNL     1       0.764  16.445 -37.438  1.00  0.00     0.679 A
ATOM     12  H1  UNL     1       0.635  15.352 -39.217  1.00  0.00     0.184 HD
HETATM   13  N3  UNL     1       0.947  17.790 -37.260  1.00  0.00    -0.193 N
ATOM     14  H3  UNL     1       1.018  18.271 -36.363  1.00  0.00     0.184 HD
BRANCH  11  15
HETATM   15  N2  UNL     1       0.561  15.597 -36.486  1.00  0.00    -0.222 N
ATOM     16  H2  UNL     1      -0.380  15.245 -36.314  1.00  0.00     0.178 HD
BRANCH  15  17
HETATM   17  C4  UNL     1       1.656  15.145 -35.664  1.00  0.00     0.091 C
HETATM   18  C5  UNL     1       2.963  15.013 -36.432  1.00  0.00     0.032 C
HETATM   19  C6  UNL     1       1.930  16.066 -34.478  1.00  0.00     0.032 C
ENDBRANCH  15  17
ENDBRANCH  11  15
ENDBRANCH   6   7
ENDBRANCH   3   6
ENDBRANCH   1   3
BRANCH   1  20
HETATM   20  C9  UNL     1      -1.523  22.530 -37.212  1.00  0.00     0.084 A
HETATM   21  C10 UNL     1      -1.089  22.221 -35.981  1.00  0.00     0.102 A
HETATM   22  C11 UNL     1      -1.598  22.851 -34.848  1.00  0.00     0.012 A
HETATM   23  C15 UNL     1      -2.563  23.810 -35.019  1.00  0.00     0.033 A
HETATM   24  C16 UNL     1      -3.029  24.137 -36.280  1.00  0.00     0.020 A
HETATM   25 BR1  UNL     1      -4.394  25.465 -36.420  1.00  0.00    -0.050 Br
HETATM   26  C17 UNL     1      -2.546  23.524 -37.397  1.00  0.00    -0.007 A
BRANCH  21  27
HETATM   27  O3  UNL     1      -0.117  21.267 -35.773  1.00  0.00    -0.358 OA
ATOM     28  H3  UNL     1      -0.330  20.399 -35.450  1.00  0.00     0.217 HD
ENDBRANCH  21  27
BRANCH  22  29
HETATM   29  C12 UNL     1      -1.247  22.511 -33.448  1.00  0.00     0.080 C
HETATM   30  C13 UNL     1       0.226  22.541 -33.133  1.00  0.00     0.051 C
HETATM   31  C14 UNL     1      -1.983  23.351 -32.434  1.00  0.00     0.051 C
BRANCH  29  32
HETATM   32  O4  UNL     1      -1.590  21.119 -33.295  1.00  0.00    -0.386 OA
ATOM     33  H4  UNL     1      -2.358  20.987 -33.839  1.00  0.00     0.211 HD
ENDBRANCH  29  32
ENDBRANCH  22  29
BRANCH  26  34
HETATM   34  C18 UNL     1      -3.128  23.635 -38.762  1.00  0.00     0.014 C
HETATM   35  C19 UNL     1      -3.243  24.987 -39.365  1.00  0.00     0.015 C
HETATM   36  C20 UNL     1      -4.595  23.080 -38.634  1.00  0.00     0.015 C
ENDBRANCH  26  34
ENDBRANCH   1  20
TORSDOF 10
ENDMDL