MODEL 2
REMARK VINA RESULT: -9.494387075      1.004      1.154
REMARK  7 active torsions:
REMARK  status: ('A' for Active; 'I' for Inactive)
REMARK    1  A    between atoms: C3_3  and  N1_4
REMARK    2  A    between atoms: N1_4  and  C4_6
REMARK    3  A    between atoms: N5_15  and  C7_17
REMARK    4  A    between atoms: C11_22  and  N6_23
REMARK    5  A    between atoms: N6_23  and  C12_25
REMARK    6  A    between atoms: C12_25  and  C13_26
REMARK    7  A    between atoms: N8_36  and  C20_38
ROOT
HETATM    1  C1  UNL     1      -1.935  22.930 -33.409  1.00  0.00     0.014 C
HETATM    2  C2  UNL     1      -0.749  22.746 -33.493  1.00  0.00    -0.098 C
HETATM    3  C3  UNL     1       0.711  22.501 -33.582  1.00  0.00     0.215 C
ENDROOT
BRANCH   3   4
HETATM    4  N1  UNL     1       1.163  22.366 -34.925  1.00  0.00    -0.364 N
ATOM      5  H1  UNL     1       0.910  23.104 -35.582  1.00  0.00     0.162 HD
BRANCH   4   6
HETATM    6  C4  UNL     1       1.864  21.388 -35.376  1.00  0.00     0.134 A
HETATM    7  N2  UNL     1       3.114  21.043 -35.012  1.00  0.00    -0.283 N
HETATM    8  N3  UNL     1       3.431  19.986 -35.737  1.00  0.00    -0.283 N
ATOM      9  H2  UNL     1       3.699  21.506 -34.316  1.00  0.00     0.188 HD
HETATM   10  C5  UNL     1       2.425  19.638 -36.557  1.00  0.00     0.153 A
ATOM     11  H3  UNL     1       4.325  19.497 -35.681  1.00  0.00     0.188 HD
HETATM   12  N4  UNL     1       2.241  18.660 -37.484  1.00  0.00    -0.174 N
HETATM   13  C25 UNL     1       1.402  20.522 -36.348  1.00  0.00     0.099 A
HETATM   14  C6  UNL     1       1.110  18.527 -38.193  1.00  0.00     0.685 A
ATOM     15  H4  UNL     1       2.998  17.996 -37.648  1.00  0.00     0.186 HD
HETATM   16  N5  UNL     1       0.874  17.600 -39.051  1.00  0.00    -0.192 N
HETATM   17  N7  UNL     1       0.100  19.426 -37.966  1.00  0.00    -0.176 N
ATOM     18  H5  UNL     1      -0.029  17.617 -39.524  1.00  0.00     0.184 HD
HETATM   19  C19 UNL     1       0.196  20.419 -37.074  1.00  0.00     0.135 A
ATOM     20  H7  UNL     1      -0.762  19.334 -38.502  1.00  0.00     0.186 HD
HETATM   21  N8  UNL     1      -0.682  21.292 -36.815  1.00  0.00    -0.370 N
ATOM     22  H8  UNL     1      -0.461  21.985 -36.099  1.00  0.00     0.161 HD
BRANCH  16  23
HETATM   23  C7  UNL     1       1.764  16.565 -39.389  1.00  0.00     0.051 A
HETATM   24  C8  UNL     1       2.042  16.186 -40.689  1.00  0.00     0.032 A
HETATM   25  C9  UNL     1       2.915  15.171 -41.024  1.00  0.00     0.028 A
HETATM   26  C10 UNL     1       3.562  14.479 -40.019  1.00  0.00     0.060 A
HETATM   27 CL1  UNL     1       4.678  13.189 -40.447  1.00  0.00    -0.082 Cl
HETATM   28  C11 UNL     1       3.316  14.824 -38.684  1.00  0.00     0.052 A
HETATM   29  C18 UNL     1       2.438  15.839 -38.401  1.00  0.00     0.060 A
BRANCH  28  30
HETATM   30  N6  UNL     1       3.962  14.105 -37.650  1.00  0.00    -0.388 N
ATOM     31  H6  UNL     1       4.975  13.998 -37.721  1.00  0.00     0.159 HD
BRANCH  30  32
HETATM   32  C12 UNL     1       3.323  13.514 -36.516  1.00  0.00     0.124 C
BRANCH  32  33
HETATM   33  C13 UNL     1       4.286  13.353 -35.351  1.00  0.00     0.007 C
HETATM   34  C14 UNL     1       3.702  12.626 -34.186  1.00  0.00     0.032 C
HETATM   35  C15 UNL     1       3.669  11.139 -34.317  1.00  0.00     0.168 C
HETATM   36  O1  UNL     1       4.860  10.601 -34.810  1.00  0.00    -0.391 OA
HETATM   37  C16 UNL     1       5.107  11.146 -36.078  1.00  0.00     0.168 C
HETATM   38  C17 UNL     1       5.482  12.577 -35.906  1.00  0.00     0.032 C
ENDBRANCH  32  33
ENDBRANCH  30  32
ENDBRANCH  28  30
ENDBRANCH  16  23
BRANCH  21  39
HETATM   39  C20 UNL     1      -1.969  21.382 -37.455  1.00  0.00     0.083 C
HETATM   40  C21 UNL     1      -3.101  21.273 -36.452  1.00  0.00     0.025 C
HETATM   41  C22 UNL     1      -3.854  22.573 -36.546  1.00  0.00     0.002 C
HETATM   42  C23 UNL     1      -2.787  23.554 -36.991  1.00  0.00     0.002 C
HETATM   43  C24 UNL     1      -2.103  22.756 -38.092  1.00  0.00     0.025 C
ENDBRANCH  21  39
ENDBRANCH   4   6
ENDBRANCH   3   4
TORSDOF 7
ENDMDL