MODEL 2
REMARK VINA RESULT: -8.122830886      2.953      5.407
REMARK  9 active torsions:
REMARK  status: ('A' for Active; 'I' for Inactive)
REMARK    1  A    between atoms: C2_2  and  C3_3
REMARK    2  A    between atoms: C3_3  and  C5_6
REMARK    3  A    between atoms: C3_3  and  N4_17
REMARK    4  A    between atoms: C10_11  and  N2_12
REMARK    5  A    between atoms: C13_20  and  N5_21
REMARK    6  A    between atoms: N5_21  and  C14_23
REMARK    7  A    between atoms: C17_29  and  N7_30
REMARK    8  A    between atoms: C18_35  and  C19_36
REMARK    9  A    between atoms: C19_36  and  N9_37
ROOT
HETATM    1  C3  UNL     1       2.426  15.786 -39.054  1.00  0.00     0.164 C
HETATM    2  C4  UNL     1       3.436  15.768 -37.901  1.00  0.00     0.097 C
HETATM    3  N1  UNL     1       4.223  15.772 -37.031  1.00  0.00    -0.194 NA
ENDROOT
BRANCH   1   4
HETATM    4  C2  UNL     1       1.358  14.873 -38.513  1.00  0.00     0.049 C
HETATM    5  C1  UNL     1       1.139  14.849 -37.054  1.00  0.00     0.009 C
ENDBRANCH   1   4
BRANCH   1   6
HETATM    6  C5  UNL     1       3.212  15.239 -40.165  1.00  0.00     0.054 A
HETATM    7  C6  UNL     1       3.631  13.934 -40.244  1.00  0.00     0.035 A
HETATM    8  C7  UNL     1       4.396  13.455 -41.312  1.00  0.00    -0.057 A
HETATM    9  C8  UNL     1       4.846  12.058 -41.407  1.00  0.00     0.048 C
HETATM   10  C9  UNL     1       4.744  14.326 -42.319  1.00  0.00     0.054 A
HETATM   11  C10 UNL     1       4.317  15.627 -42.224  1.00  0.00     0.099 A
HETATM   12  N3  UNL     1       3.580  16.037 -41.171  1.00  0.00    -0.343 N
ATOM     13  H3  UNL     1       3.286  17.013 -41.142  1.00  0.00     0.167 HD
BRANCH  11  14
HETATM   14  N2  UNL     1       4.639  16.451 -43.148  1.00  0.00    -0.385 N
ATOM     15  H22 UNL     1       4.101  16.491 -44.014  1.00  0.00     0.157 HD
ATOM     16  H21 UNL     1       5.435  17.072 -42.999  1.00  0.00     0.157 HD
ENDBRANCH  11  14
ENDBRANCH   1   6
BRANCH   1  17
HETATM   17  N4  UNL     1       2.047  17.153 -39.223  1.00  0.00    -0.366 N
HETATM   18  C11 UNL     1       2.527  18.071 -38.246  1.00  0.00     0.126 C
HETATM   19  C12 UNL     1       1.435  18.518 -37.339  1.00  0.00     0.046 C
HETATM   20  C13 UNL     1       0.529  19.587 -37.778  1.00  0.00     0.107 C
HETATM   21  C18 UNL     1       0.556  19.856 -39.275  1.00  0.00     0.050 C
HETATM   22  C23 UNL     1       0.389  18.746 -40.195  1.00  0.00    -0.009 C
HETATM   23  C24 UNL     1      -1.011  18.562 -40.737  1.00  0.00     0.021 C
HETATM   24  C25 UNL     1       1.231  19.019 -41.474  1.00  0.00     0.021 C
HETATM   25  C26 UNL     1       0.726  17.382 -39.650  1.00  0.00     0.070 C
BRANCH  20  26
HETATM   26  N5  UNL     1       0.915  20.812 -37.119  1.00  0.00    -0.221 N
ATOM     27  H5  UNL     1       1.593  21.375 -37.632  1.00  0.00     0.178 HD
BRANCH  26  28
HETATM   28  C14 UNL     1       0.555  21.298 -36.020  1.00  0.00     0.679 A
HETATM   29  N6  UNL     1       1.516  21.824 -35.208  1.00  0.00    -0.200 N
HETATM   30  C15 UNL     1       1.302  22.363 -34.012  1.00  0.00     0.133 A
ATOM     31  H6  UNL     1       2.477  21.802 -35.545  1.00  0.00     0.183 HD
HETATM   32  C16 UNL     1       0.009  22.388 -33.559  1.00  0.00     0.093 A
HETATM   33 CL1  UNL     1      -0.346  23.075 -31.986  1.00  0.00    -0.079 Cl
HETATM   34  C17 UNL     1      -0.979  21.866 -34.357  1.00  0.00     0.138 A
HETATM   35  N8  UNL     1      -0.703  21.338 -35.552  1.00  0.00    -0.175 N
ATOM     36  H8  UNL     1      -1.461  20.958 -36.119  1.00  0.00     0.186 HD
BRANCH  34  37
HETATM   37  N7  UNL     1      -2.195  21.916 -33.880  1.00  0.00    -0.384 N
ATOM     38  H72 UNL     1      -2.390  22.152 -32.907  1.00  0.00     0.157 HD
ATOM     39  H71 UNL     1      -2.947  21.705 -34.537  1.00  0.00     0.157 HD
ENDBRANCH  34  37
ENDBRANCH  26  28
ENDBRANCH  20  26
BRANCH  21  40
HETATM   40  C19 UNL     1      -0.204  21.153 -39.541  1.00  0.00     0.280 C
BRANCH  40  41
HETATM   41  N9  UNL     1       0.387  21.964 -40.535  1.00  0.00     0.097 N
HETATM   42  C20 UNL     1      -0.371  22.484 -41.679  1.00  0.00     0.308 A
HETATM   43  C21 UNL     1      -0.082  23.348 -40.606  1.00  0.00     0.247 A
HETATM   44  C22 UNL     1      -1.223  23.862 -39.800  1.00  0.00     0.045 C
ENDBRANCH  40  41
ENDBRANCH  21  40
ENDBRANCH   1  17
TORSDOF 9
ENDMDL