MODEL 2
REMARK VINA RESULT: -7.526647890      5.365      8.486
REMARK  10 active torsions:
REMARK  status: ('A' for Active; 'I' for Inactive)
REMARK    1  A    between atoms: C10_10  and  O1_11
REMARK    2  A    between atoms: C18_21  and  O2_22
REMARK    3  A    between atoms: C19_24  and  C20_25
REMARK    4  A    between atoms: C20_25  and  C22_27
REMARK    5  A    between atoms: C20_25  and  C25_37
REMARK    6  A    between atoms: C22_27  and  N1_28
REMARK    7  A    between atoms: N1_28  and  C23_31
REMARK    8  A    between atoms: C23_31  and  C24_32
REMARK    9  A    between atoms: C24_32  and  N2_33
REMARK   10  A    between atoms: C28_40  and  O3_41
ROOT
HETATM    1  C1  UNL     1       2.802  17.576 -37.719  1.00  0.00     0.020 C
HETATM    2  C2  UNL     1       2.038  16.549 -38.530  1.00  0.00    -0.014 C
HETATM    3  C3  UNL     1       2.466  16.753 -39.936  1.00  0.00     0.014 C
HETATM    4  C4  UNL     1       2.200  18.083 -40.546  1.00  0.00     0.009 C
HETATM    5  C5  UNL     1       0.799  18.232 -41.067  1.00  0.00     0.030 C
HETATM    6  C6  UNL     1       0.728  19.232 -42.162  1.00  0.00     0.009 C
HETATM    7  C7  UNL     1      -0.133  20.432 -41.899  1.00  0.00     0.005 C
HETATM    8  C8  UNL     1       0.103  20.823 -40.452  1.00  0.00    -0.004 C
HETATM    9  C9  UNL     1      -0.509  22.198 -40.181  1.00  0.00     0.037 C
HETATM   10  C10 UNL     1      -0.461  22.517 -38.715  1.00  0.00     0.118 C
HETATM   11  C11 UNL     1       0.237  21.406 -37.962  1.00  0.00     0.032 C
HETATM   12  C12 UNL     1      -0.466  20.080 -38.182  1.00  0.00     0.011 C
HETATM   13  C13 UNL     1      -0.625  19.781 -39.634  1.00  0.00     0.034 C
HETATM   14  C14 UNL     1      -0.269  18.371 -40.045  1.00  0.00     0.129 C
HETATM   15  F1  UNL     1      -1.416  17.981 -40.810  1.00  0.00    -0.238 F
HETATM   16  C15 UNL     1      -0.271  17.424 -38.942  1.00  0.00     0.020 C
HETATM   17  C16 UNL     1       0.575  16.667 -38.283  1.00  0.00    -0.069 C
HETATM   18  C17 UNL     1       0.237  15.736 -37.145  1.00  0.00     0.067 C
HETATM   19  C18 UNL     1       1.037  14.541 -37.642  1.00  0.00     0.128 C
HETATM   20  C19 UNL     1       2.320  15.110 -38.158  1.00  0.00     0.041 C
ENDROOT
BRANCH  20  21
HETATM   21  C20 UNL     1       3.565  14.747 -37.489  1.00  0.00     0.014 C
HETATM   22  C21 UNL     1       4.467  15.834 -37.014  1.00  0.00     0.023 C
BRANCH  21  23
HETATM   23  C22 UNL     1       3.162  14.069 -36.128  1.00  0.00     0.246 C
BRANCH  23  24
HETATM   24  N1  UNL     1       3.077  15.076 -35.122  1.00  0.00    -0.072 N
ATOM     25  H12 UNL     1       3.942  15.614 -35.081  1.00  0.00     0.277 HD
ATOM     26  H11 UNL     1       2.429  15.811 -35.405  1.00  0.00     0.277 HD
BRANCH  24  27
HETATM   27  C23 UNL     1       2.741  14.586 -33.844  1.00  0.00     0.259 C
BRANCH  27  28
HETATM   28  C24 UNL     1       2.939  13.117 -33.614  1.00  0.00     0.257 C
BRANCH  28  29
HETATM   29  N2  UNL     1       1.780  12.358 -33.293  1.00  0.00    -0.078 N
ATOM     30  H23 UNL     1       0.976  12.980 -33.211  1.00  0.00     0.274 HD
ATOM     31  H22 UNL     1       1.502  11.800 -34.100  1.00  0.00     0.274 HD
ATOM     32  H21 UNL     1       1.837  11.761 -32.468  1.00  0.00     0.274 HD
ENDBRANCH  28  29
ENDBRANCH  27  28
ENDBRANCH  24  27
ENDBRANCH  23  24
ENDBRANCH  21  23
BRANCH  21  33
HETATM   33  C25 UNL     1       4.278  13.597 -38.114  1.00  0.00    -0.048 A
HETATM   34  C26 UNL     1       5.097  12.722 -37.432  1.00  0.00     0.011 A
HETATM   35  C27 UNL     1       5.723  11.665 -38.075  1.00  0.00     0.037 A
HETATM   36  C28 UNL     1       5.559  11.435 -39.420  1.00  0.00     0.065 A
HETATM   37  C29 UNL     1       4.736  12.319 -40.089  1.00  0.00     0.037 A
HETATM   38  C30 UNL     1       4.105  13.377 -39.473  1.00  0.00     0.011 A
BRANCH  36  39
HETATM   39  O3  UNL     1       6.162  10.390 -40.104  1.00  0.00    -0.361 OA
ATOM     40  H3  UNL     1       5.686   9.754 -40.625  1.00  0.00     0.217 HD
ENDBRANCH  36  39
ENDBRANCH  21  33
ENDBRANCH  20  21
BRANCH  19  41
HETATM   41  O2  UNL     1       0.246  13.969 -38.689  1.00  0.00    -0.395 OA
ATOM     42  H2  UNL     1       0.871  13.585 -39.292  1.00  0.00     0.210 HD
ENDBRANCH  19  41
BRANCH  10  43
HETATM   43  O1  UNL     1      -1.733  22.734 -38.192  1.00  0.00    -0.396 OA
ATOM     44  H1  UNL     1      -1.722  22.772 -37.243  1.00  0.00     0.210 HD
ENDBRANCH  10  43
TORSDOF 10
ENDMDL