MODEL 4
REMARK VINA RESULT: -8.316026907      0.779      1.066
REMARK  11 active torsions:
REMARK  status: ('A' for Active; 'I' for Inactive)
REMARK    1  A    between atoms: C2_2  and  O1_4
REMARK    2  A    between atoms: O1_4  and  C4_5
REMARK    3  A    between atoms: C4_5  and  N2_9
REMARK    4  A    between atoms: N2_9  and  C5_11
REMARK    5  A    between atoms: C5_11  and  C6_12
REMARK    6  A    between atoms: C6_12  and  C7_13
REMARK    7  A    between atoms: C6_12  and  C9_17
REMARK    8  A    between atoms: C7_13  and  C8_15
REMARK    9  A    between atoms: C14_22  and  O3_23
REMARK   10  A    between atoms: C18_28  and  O4_29
REMARK   11  A    between atoms: C24_36  and  O5_37
ROOT
HETATM    1  C9  UNL     1       1.464  17.518 -38.931  1.00  0.00     0.007 C
HETATM    2  C10 UNL     1       1.295  16.323 -39.873  1.00  0.00     0.007 C
HETATM    3  C11 UNL     1       2.527  15.498 -39.377  1.00  0.00     0.006 C
HETATM    4  C12 UNL     1       2.151  15.552 -37.927  1.00  0.00     0.001 C
HETATM    5  C13 UNL     1       2.842  14.731 -36.987  1.00  0.00     0.026 C
HETATM    6  C14 UNL     1       4.286  14.406 -37.120  1.00  0.00     0.123 C
HETATM    7  C15 UNL     1       4.507  13.177 -36.212  1.00  0.00     0.037 C
HETATM    8  C16 UNL     1       4.217  13.559 -34.785  1.00  0.00    -0.001 C
HETATM    9  C17 UNL     1       4.527  12.427 -33.873  1.00  0.00     0.037 C
HETATM   10  C18 UNL     1       3.396  11.538 -33.511  1.00  0.00     0.118 C
HETATM   11  C19 UNL     1       2.065  12.198 -33.379  1.00  0.00     0.032 C
HETATM   12  C20 UNL     1       1.838  13.061 -34.612  1.00  0.00     0.012 C
HETATM   13  C21 UNL     1       2.847  14.159 -34.572  1.00  0.00    -0.034 C
HETATM   14  C22 UNL     1       2.865  14.759 -33.176  1.00  0.00     0.016 C
HETATM   15  C23 UNL     1       2.662  15.246 -35.552  1.00  0.00     0.030 C
HETATM   16  C24 UNL     1       1.351  15.945 -35.543  1.00  0.00     0.124 C
HETATM   17  C25 UNL     1       1.516  17.252 -36.358  1.00  0.00     0.042 C
HETATM   18  C26 UNL     1       2.074  17.075 -37.685  1.00  0.00    -0.033 C
HETATM   19  C27 UNL     1       3.536  17.618 -37.650  1.00  0.00     0.016 C
ENDROOT
BRANCH   1  20
HETATM   20  C6  UNL     1       0.416  18.523 -39.067  1.00  0.00     0.084 C
BRANCH  20  21
HETATM   21  C5  UNL     1       0.774  19.869 -38.400  1.00  0.00     0.136 C
BRANCH  21  22
HETATM   22  N2  UNL     1      -0.463  20.499 -37.983  1.00  0.00    -0.356 N
ATOM     23  H2  UNL     1      -1.311  20.354 -38.532  1.00  0.00     0.163 HD
BRANCH  22  24
HETATM   24  C4  UNL     1      -0.512  21.324 -36.811  1.00  0.00     0.212 C
HETATM   25  N1  UNL     1       0.435  21.205 -35.958  1.00  0.00    -0.365 N
ATOM     26  H12 UNL     1       0.400  21.791 -35.124  1.00  0.00     0.159 HD
ATOM     27  H11 UNL     1       1.186  20.538 -36.133  1.00  0.00     0.159 HD
BRANCH  24  28
HETATM   28  O1  UNL     1      -1.528  22.226 -36.575  1.00  0.00    -0.318 OA
BRANCH  28  29
HETATM   29  C2  UNL     1      -2.442  22.091 -35.511  1.00  0.00     0.123 C
HETATM   30  C1  UNL     1      -2.286  23.250 -34.519  1.00  0.00     0.040 C
HETATM   31  C3  UNL     1      -3.877  22.130 -35.977  1.00  0.00     0.040 C
ENDBRANCH  28  29
ENDBRANCH  24  28
ENDBRANCH  22  24
ENDBRANCH  21  22
ENDBRANCH  20  21
BRANCH  20  32
HETATM   32  C7  UNL     1       0.076  18.909 -40.463  1.00  0.00     0.182 C
HETATM   33  O2  UNL     1      -1.171  18.949 -40.684  1.00  0.00    -0.290 OA
BRANCH  32  34
HETATM   34  C8  UNL     1       0.883  19.241 -41.612  1.00  0.00     0.238 C
HETATM   35  F1  UNL     1       1.267  18.293 -42.488  1.00  0.00    -0.216 F
ENDBRANCH  32  34
ENDBRANCH  20  32
ENDBRANCH   1  20
BRANCH  16  36
HETATM   36  O5  UNL     1       0.933  16.357 -34.279  1.00  0.00    -0.395 OA
ATOM     37  H5  UNL     1       0.113  15.971 -33.997  1.00  0.00     0.210 HD
ENDBRANCH  16  36
BRANCH   6  38
HETATM   38  O3  UNL     1       4.700  14.067 -38.389  1.00  0.00    -0.395 OA
ATOM     39  H3  UNL     1       4.919  13.151 -38.514  1.00  0.00     0.210 HD
ENDBRANCH   6  38
BRANCH  10  40
HETATM   40  O4  UNL     1       3.286  10.409 -34.352  1.00  0.00    -0.396 OA
ATOM     41  H4  UNL     1       3.607   9.611 -33.949  1.00  0.00     0.210 HD
ENDBRANCH  10  40
TORSDOF 11
ENDMDL