MODEL 2
REMARK VINA RESULT: -7.098251879      0.946      1.527
REMARK  11 active torsions:
REMARK  status: ('A' for Active; 'I' for Inactive)
REMARK    1  A    between atoms: C2_2  and  C3_3
REMARK    2  A    between atoms: C2_2  and  C4_6
REMARK    3  A    between atoms: C3_3  and  O1_4
REMARK    4  A    between atoms: C14_17  and  C15_18
REMARK    5  A    between atoms: C15_18  and  O2_19
REMARK    6  A    between atoms: N1_21  and  O3_23
REMARK    7  A    between atoms: C17_26  and  N2_27
REMARK    8  A    between atoms: N2_27  and  C18_29
REMARK    9  A    between atoms: C18_29  and  C19_30
REMARK   10  A    between atoms: C19_30  and  N3_31
REMARK   11  A    between atoms: C23_35  and  O4_36
ROOT
HETATM    1  C4  UNL     1       3.947  14.098 -37.404  1.00  0.00    -0.038 C
HETATM    2  C5  UNL     1       3.854  14.699 -38.715  1.00  0.00    -0.022 A
HETATM    3  C6  UNL     1       3.765  14.081 -39.956  1.00  0.00     0.014 A
HETATM    4  C7  UNL     1       3.706  14.818 -41.110  1.00  0.00     0.020 A
HETATM    5  C8  UNL     1       3.735  16.173 -41.029  1.00  0.00     0.011 A
HETATM    6 BR1  UNL     1       3.657  17.198 -42.644  1.00  0.00    -0.051 Br
HETATM    7  C9  UNL     1       3.820  16.770 -39.799  1.00  0.00     0.027 A
HETATM    8  C10 UNL     1       3.882  16.107 -38.591  1.00  0.00    -0.041 A
HETATM    9  C11 UNL     1       3.926  16.390 -37.190  1.00  0.00     0.035 C
HETATM   10  C12 UNL     1       3.270  15.166 -36.541  1.00  0.00     0.033 C
HETATM   11  C13 UNL     1       1.824  15.141 -36.551  1.00  0.00     0.049 C
HETATM   12  C14 UNL     1       1.070  16.446 -36.711  1.00  0.00    -0.020 C
HETATM   13  C16 UNL     1       1.848  17.633 -36.410  1.00  0.00     0.049 C
HETATM   14  C17 UNL     1       1.550  18.936 -37.073  1.00  0.00     0.091 C
HETATM   15  C22 UNL     1       2.667  19.791 -36.483  1.00  0.00     0.057 C
HETATM   16  C23 UNL     1       3.881  18.915 -36.856  1.00  0.00     0.125 C
HETATM   17  C24 UNL     1       3.364  17.552 -36.533  1.00  0.00     0.034 C
ENDROOT
BRANCH  12  18
HETATM   18  C15 UNL     1       0.223  16.371 -37.905  1.00  0.00     0.162 C
HETATM   19  N1  UNL     1       0.232  17.055 -38.964  1.00  0.00    -0.247 N
ATOM     20  H1  UNL     1       0.933  17.793 -39.036  1.00  0.00     0.196 HD
BRANCH  18  21
HETATM   21  O2  UNL     1      -0.781  15.371 -37.892  1.00  0.00    -0.345 OA
ATOM     22  H2  UNL     1      -0.487  14.485 -38.067  1.00  0.00     0.219 HD
ENDBRANCH  18  21
BRANCH  19  23
HETATM   23  O3  UNL     1      -0.604  16.894 -40.008  1.00  0.00    -0.288 OA
ATOM     24  H3  UNL     1      -0.711  17.503 -40.730  1.00  0.00     0.244 HD
ENDBRANCH  19  23
ENDBRANCH  12  18
BRANCH  14  25
HETATM   25  N2  UNL     1       0.343  19.541 -37.037  1.00  0.00    -0.395 N
ATOM     26  H2  UNL     1      -0.328  19.085 -36.419  1.00  0.00     0.159 HD
BRANCH  25  27
HETATM   27  C18 UNL     1      -0.152  20.654 -37.672  1.00  0.00     0.085 C
BRANCH  27  28
HETATM   28  C19 UNL     1      -1.176  20.374 -38.727  1.00  0.00     0.315 C
BRANCH  28  29
HETATM   29  N3  UNL     1      -0.753  21.069 -39.960  1.00  0.00     0.084 N
HETATM   30  C20 UNL     1       0.351  20.383 -40.586  1.00  0.00     0.309 C
HETATM   31  C21 UNL     1      -0.392  22.435 -39.696  1.00  0.00     0.309 C
ENDBRANCH  28  29
ENDBRANCH  27  28
ENDBRANCH  25  27
ENDBRANCH  14  25
BRANCH   1  32
HETATM   32  C2  UNL     1       4.515  13.030 -36.954  1.00  0.00    -0.053 C
HETATM   33  C1  UNL     1       4.274  12.805 -35.434  1.00  0.00     0.046 C
BRANCH  32  34
HETATM   34  C3  UNL     1       5.421  12.049 -37.520  1.00  0.00     0.198 C
BRANCH  34  35
HETATM   35  O1  UNL     1       5.708  10.905 -36.872  1.00  0.00    -0.397 OA
ATOM     36  H1  UNL     1       6.131  10.179 -37.316  1.00  0.00     0.209 HD
ENDBRANCH  34  35
ENDBRANCH  32  34
ENDBRANCH   1  32
BRANCH  16  37
HETATM   37  O4  UNL     1       4.900  19.358 -35.980  1.00  0.00    -0.395 OA
ATOM     38  H4  UNL     1       5.697  19.244 -36.484  1.00  0.00     0.210 HD
ENDBRANCH  16  37
TORSDOF 11
ENDMDL