MODEL 3
REMARK VINA RESULT: -8.431286250      1.345      1.777
REMARK  10 active torsions:
REMARK  status: ('A' for Active; 'I' for Inactive)
REMARK    1  A    between atoms: C2_2  and  O1_4
REMARK    2  A    between atoms: C2_2  and  C4_6
REMARK    3  A    between atoms: C4_6  and  N1_7
REMARK       I    between atoms: N1_7  and  C5_9
REMARK    4  A    between atoms: C5_9  and  C6_11
REMARK    5  A    between atoms: C6_11  and  N2_12
REMARK    6  A    between atoms: N2_12  and  C7_13
REMARK    7  A    between atoms: C7_13  and  O3_14
REMARK    8  A    between atoms: C7_13  and  C8_16
REMARK    9  A    between atoms: C9_18  and  N3_19
REMARK       I    between atoms: N3_19  and  C10_21
REMARK       I    between atoms: C10_21  and  N4_23
REMARK   10  A    between atoms: N4_23  and  C11_24
ROOT
HETATM    1  C8  UNL     1       2.155  17.096 -41.710  1.00  0.00     0.093 A
HETATM    2  S1  UNL     1       1.346  18.631 -41.667  1.00  0.00    -0.065 SA
HETATM    3  C9  UNL     1       0.645  18.583 -40.133  1.00  0.00     0.081 A
HETATM    4  C21 UNL     1       1.068  17.346 -39.677  1.00  0.00     0.062 A
HETATM    5  C22 UNL     1       1.836  16.591 -40.481  1.00  0.00     0.059 A
HETATM    6 CL1  UNL     1       2.447  14.991 -39.902  1.00  0.00    -0.083 Cl
ENDROOT
BRANCH   1   7
HETATM    7  C7  UNL     1       3.093  16.612 -42.745  1.00  0.00     0.229 C
BRANCH   7   8
HETATM    8  N2  UNL     1       4.167  15.874 -42.629  1.00  0.00    -0.402 NA
BRANCH   8   9
HETATM    9  C6  UNL     1       5.166  14.924 -42.901  1.00  0.00     0.176 A
HETATM   10  C23 UNL     1       5.977  15.146 -44.151  1.00  0.00     0.060 A
HETATM   11  C24 UNL     1       6.644  15.362 -42.820  1.00  0.00     0.060 A
BRANCH   9  12
HETATM   12  C5  UNL     1       4.987  13.544 -42.432  1.00  0.00     0.259 C
HETATM   13  N1  UNL     1       4.996  13.049 -41.103  1.00  0.00    -0.355 N
ATOM     14  H1  UNL     1       5.157  13.659 -40.302  1.00  0.00     0.162 HD
HETATM   15  O2  UNL     1       4.783  12.684 -43.368  1.00  0.00    -0.269 OA
BRANCH  13  16
HETATM   16  C4  UNL     1       4.765  11.650 -40.953  1.00  0.00     0.159 C
BRANCH  16  17
HETATM   17  C2  UNL     1       5.608  10.870 -40.010  1.00  0.00     0.066 C
HETATM   18  C1  UNL     1       5.634  11.512 -38.627  1.00  0.00     0.047 C
HETATM   19  C3  UNL     1       6.956  10.523 -40.545  1.00  0.00     0.047 C
BRANCH  17  20
HETATM   20  O1  UNL     1       4.903   9.630 -39.825  1.00  0.00    -0.389 OA
ATOM     21  H1  UNL     1       4.205   9.651 -40.470  1.00  0.00     0.210 HD
ENDBRANCH  17  20
ENDBRANCH  16  17
ENDBRANCH  13  16
ENDBRANCH   9  12
ENDBRANCH   8   9
ENDBRANCH   7   8
BRANCH   7  22
HETATM   22  O3  UNL     1       2.676  17.072 -43.948  1.00  0.00    -0.335 OA
ATOM     23  H3  UNL     1       3.235  17.615 -44.493  1.00  0.00     0.220 HD
ENDBRANCH   7  22
ENDBRANCH   1   7
BRANCH   3  24
HETATM   24  N3  UNL     1      -0.209  19.445 -39.398  1.00  0.00    -0.291 N
HETATM   25  C10 UNL     1       0.215  20.045 -38.157  1.00  0.00     0.394 C
HETATM   26  O4  UNL     1       1.345  19.804 -37.760  1.00  0.00    -0.230 OA
HETATM   27  N4  UNL     1      -0.781  20.847 -37.588  1.00  0.00    -0.385 NA
ATOM     28  H3  UNL     1      -1.144  19.645 -39.754  1.00  0.00     0.172 HD
BRANCH  27  29
HETATM   29  C11 UNL     1      -1.727  21.621 -37.032  1.00  0.00     0.100 C
HETATM   30  C12 UNL     1      -1.979  22.838 -37.987  1.00  0.00     0.050 C
HETATM   31  C13 UNL     1      -2.931  23.763 -37.360  1.00  0.00    -0.010 C
HETATM   32  C14 UNL     1      -4.284  23.124 -37.186  1.00  0.00     0.009 C
HETATM   33  C18 UNL     1      -2.435  24.315 -36.041  1.00  0.00     0.009 C
HETATM   34  C15 UNL     1      -4.093  21.891 -36.318  1.00  0.00    -0.010 C
HETATM   35  C16 UNL     1      -3.626  22.396 -34.948  1.00  0.00     0.009 C
HETATM   36  C20 UNL     1      -3.076  20.953 -36.854  1.00  0.00     0.050 C
HETATM   37  C17 UNL     1      -2.309  23.116 -35.121  1.00  0.00    -0.010 C
HETATM   38  C19 UNL     1      -1.306  22.161 -35.677  1.00  0.00     0.050 C
ENDBRANCH  27  29
ENDBRANCH   3  24
TORSDOF 10
ENDMDL