MODEL 3
REMARK VINA RESULT: -8.500204750      5.657      8.384
REMARK  10 active torsions:
REMARK  status: ('A' for Active; 'I' for Inactive)
REMARK    1  A    between atoms: C2_2  and  O2_4
REMARK    2  A    between atoms: O2_4  and  C3_5
REMARK    3  A    between atoms: C3_5  and  C4_6
REMARK    4  A    between atoms: C4_6  and  C5_7
REMARK    5  A    between atoms: C5_7  and  C6_8
REMARK    6  A    between atoms: C6_8  and  C7_9
REMARK    7  A    between atoms: C7_9  and  O3_10
REMARK    8  A    between atoms: C8_12  and  C9_13
REMARK    9  A    between atoms: C19_24  and  C20_25
REMARK   10  A    between atoms: C27_37  and  O4_38
ROOT
HETATM    1  C7  UNL     1      -0.765  22.555 -36.300  1.00  0.00     0.085 C
HETATM    2  C8  UNL     1      -2.140  23.190 -36.137  1.00  0.00     0.042 C
HETATM    3  C10 UNL     1      -2.591  23.446 -37.573  1.00  0.00    -0.010 C
HETATM    4  C11 UNL     1      -3.799  24.308 -37.671  1.00  0.00     0.010 C
HETATM    5  C12 UNL     1      -2.731  22.152 -38.345  1.00  0.00     0.013 C
HETATM    6  C13 UNL     1      -1.426  21.483 -38.351  1.00  0.00     0.040 C
HETATM    7  C14 UNL     1      -0.969  21.236 -36.902  1.00  0.00     0.033 C
HETATM    8  C15 UNL     1       0.285  20.447 -37.240  1.00  0.00     0.022 C
HETATM    9  C16 UNL     1      -0.413  19.315 -38.023  1.00  0.00     0.068 C
HETATM   10  C17 UNL     1       0.477  18.373 -38.634  1.00  0.00    -0.023 A
HETATM   11  C18 UNL     1       0.871  17.477 -37.641  1.00  0.00     0.024 A
HETATM   12  C19 UNL     1       1.728  16.424 -37.834  1.00  0.00     0.005 A
HETATM   13  C21 UNL     1       2.249  16.209 -39.074  1.00  0.00     0.017 A
HETATM   14  C22 UNL     1       1.906  17.052 -40.106  1.00  0.00     0.031 A
HETATM   15  C23 UNL     1       1.043  18.104 -39.889  1.00  0.00     0.037 A
HETATM   16  N3  UNL     1       0.856  18.810 -41.124  1.00  0.00    -0.375 N
HETATM   17  C24 UNL     1       1.904  18.664 -42.069  1.00  0.00     0.150 C
HETATM   18  C25 UNL     1      -0.324  19.675 -41.498  1.00  0.00     0.206 C
HETATM   19  C26 UNL     1      -0.957  19.963 -40.253  1.00  0.00    -0.125 C
HETATM   20  C27 UNL     1      -1.410  20.078 -38.932  1.00  0.00     0.123 C
ENDROOT
BRANCH   1  21
HETATM   21  C6  UNL     1       0.167  22.733 -35.172  1.00  0.00     0.011 C
BRANCH  21  22
HETATM   22  C5  UNL     1      -0.069  22.143 -33.890  1.00  0.00    -0.003 C
BRANCH  22  23
HETATM   23  C4  UNL     1      -0.231  22.675 -32.702  1.00  0.00    -0.001 C
BRANCH  23  24
HETATM   24  C3  UNL     1      -0.982  22.007 -31.624  1.00  0.00     0.206 C
BRANCH  24  25
HETATM   25  O2  UNL     1      -1.793  22.960 -30.980  1.00  0.00    -0.318 OA
BRANCH  25  26
HETATM   26  C2  UNL     1      -1.243  24.101 -30.440  1.00  0.00     0.255 C
HETATM   27  C1  UNL     1      -1.945  25.381 -30.834  1.00  0.00     0.126 C
HETATM   28  O1  UNL     1      -0.256  24.111 -29.689  1.00  0.00    -0.266 OA
ENDBRANCH  25  26
ENDBRANCH  24  25
ENDBRANCH  23  24
ENDBRANCH  22  23
ENDBRANCH  21  22
ENDBRANCH   1  21
BRANCH   1  29
HETATM   29  O3  UNL     1      -0.147  23.338 -37.339  1.00  0.00    -0.385 OA
ATOM     30  H3  UNL     1       0.502  22.739 -37.687  1.00  0.00     0.211 HD
ENDBRANCH   1  29
BRANCH   2  31
HETATM   31  C9  UNL     1      -3.135  22.298 -35.498  1.00  0.00     0.123 C
HETATM   32 CL1  UNL     1      -3.595  22.937 -33.902  1.00  0.00    -0.130 Cl
ENDBRANCH   2  31
BRANCH  20  33
HETATM   33  O4  UNL     1      -2.725  19.610 -38.657  1.00  0.00    -0.377 OA
ATOM     34  H4  UNL     1      -2.578  18.707 -38.404  1.00  0.00     0.211 HD
ENDBRANCH  20  33
BRANCH  12  35
HETATM   35  C20 UNL     1       2.097  15.526 -36.746  1.00  0.00     0.120 C
HETATM   36  N1  UNL     1       1.432  15.505 -35.654  1.00  0.00    -0.387 N
ATOM     37  H12 UNL     1       0.630  16.125 -35.541  1.00  0.00     0.157 HD
ATOM     38  H11 UNL     1       1.690  14.876 -34.894  1.00  0.00     0.157 HD
HETATM   39  N2  UNL     1       3.206  14.669 -36.903  1.00  0.00    -0.082 NA
ENDBRANCH  12  35
TORSDOF 10
ENDMDL