MODEL 2
REMARK VINA RESULT: -7.502780659      1.095      1.286
REMARK  19 active torsions:
REMARK  status: ('A' for Active; 'I' for Inactive)
REMARK    1  A    between atoms: C2_2  and  C3_3
REMARK    2  A    between atoms: C2_2  and  C5_9
REMARK    3  A    between atoms: C3_3  and  O1_4
REMARK    4  A    between atoms: C3_3  and  C4_6
REMARK    5  A    between atoms: C4_6  and  O2_7
REMARK    6  A    between atoms: C5_9  and  N1_10
REMARK    7  A    between atoms: C5_9  and  C7_22
REMARK    8  A    between atoms: N1_10  and  C6_12
REMARK    9  A    between atoms: C6_12  and  O3_18
REMARK   10  A    between atoms: N2_13  and  N3_15
REMARK   11  A    between atoms: O3_18  and  N4_19
REMARK   12  A    between atoms: C7_22  and  O4_23
REMARK   13  A    between atoms: C7_22  and  C8_25
REMARK   14  A    between atoms: C8_25  and  N5_26
REMARK   15  A    between atoms: C10_28  and  O5_29
REMARK   16  A    between atoms: C11_31  and  C12_32
REMARK   17  A    between atoms: C16_40  and  N8_41
REMARK   18  A    between atoms: C17_46  and  N10_47
REMARK   19  A    between atoms: N11_50  and  N12_51
ROOT
HETATM    1  N5  UNL     1      22.586  33.884 -21.212  1.00  0.00    -0.298 N
HETATM    2  C9  UNL     1      21.416  33.245 -21.232  1.00  0.00     0.149 A
HETATM    3  C10 UNL     1      20.391  34.151 -21.067  1.00  0.00     0.113 A
HETATM    4  C11 UNL     1      20.981  35.376 -20.946  1.00  0.00     0.111 A
HETATM    5  N13 UNL     1      22.289  35.176 -21.037  1.00  0.00    -0.294 N
ATOM      6  H13 UNL     1      22.984  35.920 -20.981  1.00  0.00     0.187 HD
ENDROOT
BRANCH   1   7
HETATM    7  C8  UNL     1      23.941  33.412 -21.341  1.00  0.00     0.182 C
BRANCH   7   8
HETATM    8  C7  UNL     1      24.704  34.006 -22.470  1.00  0.00     0.161 C
BRANCH   8   9
HETATM    9  C5  UNL     1      25.953  34.743 -21.984  1.00  0.00     0.121 C
BRANCH   9  10
HETATM   10  C2  UNL     1      25.571  36.083 -21.470  1.00  0.00     0.038 C
HETATM   11  C1  UNL     1      26.504  37.113 -22.165  1.00  0.00     0.015 C
BRANCH  10  12
HETATM   12  C3  UNL     1      25.871  36.321 -20.004  1.00  0.00     0.147 C
BRANCH  12  13
HETATM   13  O1  UNL     1      27.065  37.120 -20.042  1.00  0.00    -0.393 OA
ATOM     14  H1  UNL     1      27.753  36.486 -19.876  1.00  0.00     0.210 HD
ENDBRANCH  12  13
BRANCH  12  15
HETATM   15  C4  UNL     1      24.909  37.164 -19.248  1.00  0.00     0.196 C
BRANCH  15  16
HETATM   16  O2  UNL     1      23.723  37.433 -19.926  1.00  0.00    -0.398 OA
ATOM     17  H2  UNL     1      23.610  38.343 -20.173  1.00  0.00     0.209 HD
ENDBRANCH  15  16
ENDBRANCH  12  15
ENDBRANCH  10  12
ENDBRANCH   9  10
BRANCH   9  18
HETATM   18  N1  UNL     1      26.609  33.880 -21.009  1.00  0.00    -0.346 N
ATOM     19  H1  UNL     1      26.097  33.560 -20.187  1.00  0.00     0.163 HD
BRANCH  18  20
HETATM   20  C6  UNL     1      27.969  33.480 -21.200  1.00  0.00     0.257 C
HETATM   21  N2  UNL     1      28.500  32.604 -20.433  1.00  0.00    -0.270 N
ATOM     22  H2  UNL     1      27.922  32.211 -19.691  1.00  0.00     0.190 HD
BRANCH  21  23
HETATM   23  N3  UNL     1      29.793  32.156 -20.538  1.00  0.00    -0.342 N
ATOM     24  H32 UNL     1      30.423  32.711 -21.117  1.00  0.00     0.176 HD
ATOM     25  H31 UNL     1      30.156  31.320 -20.081  1.00  0.00     0.176 HD
ENDBRANCH  21  23
BRANCH  20  26
HETATM   26  O3  UNL     1      28.753  34.012 -22.205  1.00  0.00    -0.206 OA
BRANCH  26  27
HETATM   27  N4  UNL     1      29.479  35.170 -22.064  1.00  0.00    -0.302 N
ATOM     28  H42 UNL     1      29.022  36.043 -22.327  1.00  0.00     0.184 HD
ATOM     29  H41 UNL     1      30.436  35.193 -21.714  1.00  0.00     0.184 HD
ENDBRANCH  26  27
ENDBRANCH  20  26
ENDBRANCH  18  20
ENDBRANCH   9  18
ENDBRANCH   8   9
BRANCH   8  30
HETATM   30  O4  UNL     1      23.891  34.709 -23.293  1.00  0.00    -0.392 OA
ATOM     31  H4  UNL     1      23.565  34.238 -24.051  1.00  0.00     0.210 HD
ENDBRANCH   8  30
ENDBRANCH   7   8
ENDBRANCH   1   7
BRANCH   3  32
HETATM   32  O5  UNL     1      19.060  33.800 -21.043  1.00  0.00    -0.357 OA
ATOM     33  H5  UNL     1      18.605  33.518 -20.259  1.00  0.00     0.218 HD
ENDBRANCH   3  32
BRANCH   4  34
HETATM   34  C12 UNL     1      20.335  36.662 -20.751  1.00  0.00     0.079 A
HETATM   35  C13 UNL     1      19.064  36.888 -21.278  1.00  0.00     0.121 A
HETATM   36  N6  UNL     1      18.408  38.048 -21.139  1.00  0.00    -0.346 N
HETATM   37  C14 UNL     1      18.961  39.073 -20.466  1.00  0.00     0.175 A
ATOM     38  H6  UNL     1      17.480  38.156 -21.547  1.00  0.00     0.167 HD
HETATM   39  C15 UNL     1      20.218  38.865 -19.937  1.00  0.00     0.124 A
HETATM   40  N11 UNL     1      18.288  40.229 -20.334  1.00  0.00    -0.074 N
HETATM   41  N7  UNL     1      20.872  37.692 -20.084  1.00  0.00    -0.347 N
HETATM   42  C16 UNL     1      20.790  39.924 -19.241  1.00  0.00     0.145 A
ATOM     43  H7  UNL     1      21.801  37.587 -19.675  1.00  0.00     0.166 HD
HETATM   44  N9  UNL     1      20.096  41.058 -19.130  1.00  0.00    -0.173 N
HETATM   45  C17 UNL     1      18.870  41.250 -19.650  1.00  0.00     0.700 A
ATOM     46  H9  UNL     1      20.523  41.830 -18.618  1.00  0.00     0.186 HD
BRANCH  42  47
HETATM   47  N8  UNL     1      21.974  39.772 -18.727  1.00  0.00    -0.383 N
ATOM     48  H82 UNL     1      22.329  38.867 -18.418  1.00  0.00     0.157 HD
ATOM     49  H81 UNL     1      22.577  40.588 -18.625  1.00  0.00     0.157 HD
ENDBRANCH  42  47
BRANCH  45  50
HETATM   50  N10 UNL     1      18.234  42.369 -19.516  1.00  0.00    -0.233 N
ATOM     51 2H10 UNL     1      18.668  43.233 -19.839  1.00  0.00     0.174 HD
ATOM     52 1H10 UNL     1      17.305  42.418 -19.096  1.00  0.00     0.174 HD
ENDBRANCH  45  50
BRANCH  40  53
HETATM   53  N12 UNL     1      17.023  40.440 -20.866  1.00  0.00    -0.322 N
ATOM     54 2H12 UNL     1      16.341  39.685 -20.793  1.00  0.00     0.178 HD
ATOM     55 1H12 UNL     1      16.744  41.310 -21.321  1.00  0.00     0.178 HD
ENDBRANCH  40  53
ENDBRANCH   4  34
TORSDOF 19
ENDMDL