MODEL 1
REMARK VINA RESULT: -8.412979793      0.000      0.000
REMARK  15 active torsions:
REMARK  status: ('A' for Active; 'I' for Inactive)
REMARK    1  A    between atoms: C3_4  and  N2_5
REMARK    2  A    between atoms: N2_5  and  C4_7
REMARK    3  A    between atoms: C4_7  and  O1_8
REMARK    4  A    between atoms: C4_7  and  C5_10
REMARK    5  A    between atoms: C5_10  and  O2_11
REMARK    6  A    between atoms: C5_10  and  C6_13
REMARK    7  A    between atoms: C6_13  and  N3_14
REMARK    8  A    between atoms: C6_13  and  C7_18
REMARK    9  A    between atoms: C8_19  and  O3_20
REMARK   10  A    between atoms: O3_20  and  C9_21
REMARK   11  A    between atoms: C9_21  and  C10_22
REMARK   12  A    between atoms: C13_29  and  N6_30
REMARK   13  A    between atoms: C14_35  and  N8_36
REMARK   14  A    between atoms: N11_46  and  N12_47
REMARK   15  A    between atoms: N12_47  and  N13_49
ROOT
HETATM    1  C7  UNL     1      27.410  33.519 -20.292  1.00  0.00     0.188 C
HETATM    2  C8  UNL     1      26.389  33.395 -21.386  1.00  0.00     0.136 C
HETATM    3  N10 UNL     1      26.479  34.164 -22.412  1.00  0.00    -0.372 N
ATOM      4  H10 UNL     1      25.791  34.089 -23.161  1.00  0.00     0.161 HD
HETATM    5  C16 UNL     1      27.543  35.130 -22.515  1.00  0.00     0.138 C
HETATM    6  C17 UNL     1      28.798  34.781 -21.796  1.00  0.00     0.135 C
HETATM    7  N11 UNL     1      28.711  33.631 -20.920  1.00  0.00    -0.201 NA
ENDROOT
BRANCH   2   8
HETATM    8  O3  UNL     1      25.367  32.468 -21.295  1.00  0.00    -0.332 OA
BRANCH   8   9
HETATM    9  C9  UNL     1      24.183  32.547 -22.037  1.00  0.00     0.235 C
BRANCH   9  10
HETATM   10  C10 UNL     1      23.210  33.548 -21.580  1.00  0.00     0.050 A
HETATM   11  C11 UNL     1      22.738  33.565 -20.261  1.00  0.00     0.117 A
HETATM   12  N4  UNL     1      21.841  34.465 -19.825  1.00  0.00    -0.348 N
HETATM   13  C12 UNL     1      21.359  35.395 -20.660  1.00  0.00     0.151 A
ATOM     14  H4  UNL     1      21.527  34.439 -18.855  1.00  0.00     0.167 HD
HETATM   15  N5  UNL     1      20.451  36.311 -20.234  1.00  0.00    -0.174 N
HETATM   16  C15 UNL     1      21.799  35.410 -21.965  1.00  0.00     0.122 A
HETATM   17  C13 UNL     1      19.958  37.252 -21.064  1.00  0.00     0.679 A
ATOM     18  H5  UNL     1      20.136  36.286 -19.264  1.00  0.00     0.186 HD
HETATM   19  N7  UNL     1      20.386  37.267 -22.335  1.00  0.00    -0.175 N
HETATM   20  C14 UNL     1      21.289  36.374 -22.805  1.00  0.00     0.145 A
ATOM     21  H7  UNL     1      20.019  37.977 -22.969  1.00  0.00     0.186 HD
HETATM   22  N9  UNL     1      22.697  34.500 -22.380  1.00  0.00    -0.351 N
ATOM     23  H9  UNL     1      23.007  34.533 -23.351  1.00  0.00     0.166 HD
BRANCH  17  24
HETATM   24  N6  UNL     1      19.096  38.137 -20.691  1.00  0.00    -0.234 N
ATOM     25  H62 UNL     1      18.164  37.826 -20.416  1.00  0.00     0.174 HD
ATOM     26  H61 UNL     1      19.302  39.135 -20.658  1.00  0.00     0.174 HD
ENDBRANCH  17  24
BRANCH  20  27
HETATM   27  N8  UNL     1      21.702  36.392 -24.036  1.00  0.00    -0.383 N
ATOM     28  H82 UNL     1      22.628  36.775 -24.227  1.00  0.00     0.157 HD
ATOM     29  H81 UNL     1      21.131  36.038 -24.804  1.00  0.00     0.157 HD
ENDBRANCH  20  27
ENDBRANCH   9  10
ENDBRANCH   8   9
ENDBRANCH   2   8
BRANCH   1  30
HETATM   30  C6  UNL     1      27.128  34.609 -19.327  1.00  0.00     0.243 C
BRANCH  30  31
HETATM   31  C5  UNL     1      25.738  35.137 -19.290  1.00  0.00     0.199 C
BRANCH  31  32
HETATM   32  C4  UNL     1      25.608  36.532 -19.850  1.00  0.00     0.250 C
BRANCH  32  33
HETATM   33  N2  UNL     1      24.306  37.046 -19.499  1.00  0.00    -0.346 N
ATOM     34  H2  UNL     1      23.816  36.648 -18.697  1.00  0.00     0.163 HD
BRANCH  33  35
HETATM   35  C3  UNL     1      23.683  38.095 -20.238  1.00  0.00     0.136 A
HETATM   36  C2  UNL     1      23.841  38.429 -21.562  1.00  0.00     0.160 A
HETATM   37  N1  UNL     1      23.061  39.486 -21.848  1.00  0.00    -0.290 N
HETATM   38  C1  UNL     1      22.918  40.165 -23.120  1.00  0.00     0.178 C
HETATM   39  N15 UNL     1      22.438  39.792 -20.725  1.00  0.00    -0.240 N
HETATM   40  N14 UNL     1      22.794  38.977 -19.755  1.00  0.00    -0.270 N
ATOM     41  H15 UNL     1      21.771  40.557 -20.623  1.00  0.00     0.208 HD
ATOM     42  H14 UNL     1      22.451  39.011 -18.794  1.00  0.00     0.190 HD
ENDBRANCH  33  35
ENDBRANCH  32  33
BRANCH  32  43
HETATM   43  O1  UNL     1      26.547  37.420 -19.378  1.00  0.00    -0.374 OA
ATOM     44  H1  UNL     1      26.787  37.994 -20.097  1.00  0.00     0.212 HD
ENDBRANCH  32  43
ENDBRANCH  31  32
BRANCH  31  45
HETATM   45  O2  UNL     1      25.078  35.066 -18.098  1.00  0.00    -0.389 OA
ATOM     46  H2  UNL     1      24.375  34.432 -18.165  1.00  0.00     0.210 HD
ENDBRANCH  31  45
ENDBRANCH  30  31
BRANCH  30  47
HETATM   47  N3  UNL     1      27.496  34.276 -17.964  1.00  0.00    -0.070 N
ATOM     48  H33 UNL     1      28.293  34.815 -17.622  1.00  0.00     0.274 HD
ATOM     49  H32 UNL     1      26.816  34.598 -17.277  1.00  0.00     0.274 HD
ATOM     50  H31 UNL     1      27.652  33.269 -17.932  1.00  0.00     0.274 HD
ENDBRANCH  30  47
ENDBRANCH   1  30
BRANCH   7  51
HETATM   51  N12 UNL     1      29.071  32.521 -21.639  1.00  0.00    -0.268 N
ATOM     52  H12 UNL     1      28.724  32.354 -22.584  1.00  0.00     0.201 HD
BRANCH  51  53
HETATM   53  N13 UNL     1      29.923  31.648 -21.017  1.00  0.00    -0.335 N
ATOM     54 2H13 UNL     1      30.241  31.815 -20.062  1.00  0.00     0.177 HD
ATOM     55 1H13 UNL     1      30.212  30.836 -21.561  1.00  0.00     0.177 HD
ENDBRANCH  51  53
ENDBRANCH   7  51
TORSDOF 15
ENDMDL