MODEL 1
REMARK VINA RESULT: -9.203309574      0.000      0.000
REMARK  15 active torsions:
REMARK  status: ('A' for Active; 'I' for Inactive)
REMARK       I    between atoms: C2_2  and  N1_4
REMARK    1  A    between atoms: N1_4  and  C3_6
REMARK    2  A    between atoms: C3_6  and  C4_7
REMARK    3  A    between atoms: C3_6  and  C17_38
REMARK    4  A    between atoms: C6_11  and  N3_12
REMARK    5  A    between atoms: N3_12  and  N4_14
REMARK    6  A    between atoms: N4_14  and  C7_16
REMARK    7  A    between atoms: C7_16  and  O2_17
REMARK    8  A    between atoms: C7_16  and  C8_19
REMARK    9  A    between atoms: C8_19  and  O3_20
REMARK   10  A    between atoms: C11_24  and  O4_25
REMARK   11  A    between atoms: C14_31  and  O7_32
REMARK   12  A    between atoms: C17_38  and  O10_39
REMARK   13  A    between atoms: C17_38  and  C18_41
REMARK   14  A    between atoms: C18_41  and  O11_42
REMARK   15  A    between atoms: C18_41  and  O12_44
ROOT
HETATM    1  C4  UNL     1      19.633  39.892 -19.600  1.00  0.00     0.154 A
HETATM    2  N2  UNL     1      20.713  39.131 -19.899  1.00  0.00    -0.335 N
ATOM      3  H2  UNL     1      21.663  39.471 -19.741  1.00  0.00     0.168 HD
HETATM    4  C5  UNL     1      20.482  37.895 -20.418  1.00  0.00     0.082 A
HETATM    5  C6  UNL     1      21.519  36.990 -20.664  1.00  0.00     0.088 A
HETATM    6  C9  UNL     1      21.262  35.713 -21.079  1.00  0.00     0.034 A
HETATM    7  C10 UNL     1      22.263  34.790 -21.283  1.00  0.00     0.059 A
HETATM    8  C11 UNL     1      21.969  33.518 -21.684  1.00  0.00     0.142 A
HETATM    9  C12 UNL     1      20.615  33.238 -21.870  1.00  0.00     0.322 A
HETATM   10  O5  UNL     1      20.378  32.063 -22.257  1.00  0.00    -0.257 OA
HETATM   11  O6  UNL     1      19.688  34.080 -21.672  1.00  0.00    -0.270 OA
HETATM   12  C13 UNL     1      19.941  35.304 -21.273  1.00  0.00     0.126 A
HETATM   13  C14 UNL     1      18.903  36.171 -21.039  1.00  0.00     0.119 A
HETATM   14  C15 UNL     1      19.206  37.426 -20.623  1.00  0.00     0.104 A
HETATM   15  C16 UNL     1      18.164  38.267 -20.295  1.00  0.00     0.304 A
HETATM   16  O8  UNL     1      16.995  37.877 -20.463  1.00  0.00    -0.259 OA
HETATM   17  O9  UNL     1      18.448  39.469 -19.797  1.00  0.00    -0.259 OA
ENDROOT
BRANCH   1  18
HETATM   18  C3  UNL     1      19.804  41.301 -19.013  1.00  0.00     0.193 C
BRANCH  18  19
HETATM   19  N1  UNL     1      18.564  41.915 -19.134  1.00  0.00    -0.347 N
HETATM   20  C2  UNL     1      18.086  43.098 -19.813  1.00  0.00     0.214 C
HETATM   21  C1  UNL     1      19.806  43.519 -20.313  1.00  0.00     0.117 C
HETATM   22  O1  UNL     1      17.745  43.988 -20.328  1.00  0.00    -0.274 OA
ATOM     23  H1  UNL     1      17.826  41.422 -18.632  1.00  0.00     0.163 HD
ENDBRANCH  18  19
BRANCH  18  24
HETATM   24  C17 UNL     1      20.262  41.130 -17.603  1.00  0.00     0.203 C
BRANCH  24  25
HETATM   25  O10 UNL     1      21.253  40.203 -17.392  1.00  0.00    -0.388 OA
ATOM     26  H10 UNL     1      22.137  40.473 -17.609  1.00  0.00     0.210 HD
ENDBRANCH  24  25
BRANCH  24  27
HETATM   27  C18 UNL     1      20.443  42.328 -16.757  1.00  0.00     0.284 C
BRANCH  27  28
HETATM   28  O11 UNL     1      21.677  42.686 -16.340  1.00  0.00    -0.369 OA
ATOM     29  H11 UNL     1      21.796  43.469 -15.815  1.00  0.00     0.212 HD
ENDBRANCH  27  28
BRANCH  27  30
HETATM   30  O12 UNL     1      19.630  42.241 -15.610  1.00  0.00    -0.369 OA
ATOM     31  H12 UNL     1      20.092  41.787 -14.914  1.00  0.00     0.212 HD
ENDBRANCH  27  30
ENDBRANCH  24  27
ENDBRANCH  18  24
ENDBRANCH   1  18
BRANCH   5  32
HETATM   32  N3  UNL     1      22.878  37.421 -20.533  1.00  0.00    -0.300 N
ATOM     33  H3  UNL     1      23.204  37.997 -21.309  1.00  0.00     0.186 HD
BRANCH  32  34
HETATM   34  N4  UNL     1      23.798  37.215 -19.592  1.00  0.00    -0.305 N
ATOM     35  H4  UNL     1      23.798  37.901 -18.838  1.00  0.00     0.183 HD
BRANCH  34  36
HETATM   36  C7  UNL     1      24.731  36.246 -19.474  1.00  0.00     0.256 C
BRANCH  36  37
HETATM   37  O2  UNL     1      24.885  35.579 -18.245  1.00  0.00    -0.373 OA
ATOM     38  H2  UNL     1      25.305  34.727 -18.224  1.00  0.00     0.212 HD
ENDBRANCH  36  37
BRANCH  36  39
HETATM   39  C8  UNL     1      26.191  36.727 -19.714  1.00  0.00     0.218 C
BRANCH  39  40
HETATM   40  O3  UNL     1      27.095  36.172 -18.864  1.00  0.00    -0.397 OA
ATOM     41  H3  UNL     1      27.140  35.224 -18.922  1.00  0.00     0.209 HD
ENDBRANCH  39  40
ENDBRANCH  36  39
ENDBRANCH  34  36
ENDBRANCH  32  34
ENDBRANCH   5  32
BRANCH  13  42
HETATM   42  O7  UNL     1      17.565  35.777 -21.202  1.00  0.00    -0.357 OA
ATOM     43  H7  UNL     1      17.149  35.771 -22.056  1.00  0.00     0.218 HD
ENDBRANCH  13  42
BRANCH   8  44
HETATM   44  O4  UNL     1      22.948  32.591 -21.872  1.00  0.00    -0.355 OA
ATOM     45  H4  UNL     1      22.978  32.056 -22.658  1.00  0.00     0.218 HD
ENDBRANCH   8  44
TORSDOF 15
ENDMDL