MODEL 5
REMARK VINA RESULT: -7.203341019      3.523      6.502
REMARK  16 active torsions:
REMARK  status: ('A' for Active; 'I' for Inactive)
REMARK    1  A    between atoms: C1_2  and  S1_21
REMARK    2  A    between atoms: N2_3  and  C2_5
REMARK    3  A    between atoms: C2_5  and  C3_6
REMARK    4  A    between atoms: C3_6  and  C4_7
REMARK    5  A    between atoms: C5_8  and  O1_9
REMARK    6  A    between atoms: C7_14  and  C8_15
REMARK    7  A    between atoms: C8_15  and  O4_16
REMARK    8  A    between atoms: C9_18  and  O5_19
REMARK    9  A    between atoms: S1_21  and  S2_22
REMARK   10  A    between atoms: S2_22  and  C10_23
REMARK   11  A    between atoms: C11_27  and  N4_28
REMARK   12  A    between atoms: C12_35  and  C13_36
REMARK   13  A    between atoms: C13_36  and  O6_37
REMARK   14  A    between atoms: C14_42  and  C15_43
REMARK   15  A    between atoms: C15_43  and  O7_44
REMARK   16  A    between atoms: C15_43  and  O8_46
ROOT
HETATM    1  C10 UNL     1      24.895  36.041 -20.582  1.00  0.00     0.298 C
HETATM    2  N3  UNL     1      24.226  35.112 -19.699  1.00  0.00    -0.005 N
ATOM      3  H31 UNL     1      23.227  35.313 -19.662  1.00  0.00     0.283 HD
ATOM      4  H32 UNL     1      24.478  35.299 -18.729  1.00  0.00     0.283 HD
HETATM    5  C11 UNL     1      24.448  33.734 -20.015  1.00  0.00     0.581 C
HETATM    6  N5  UNL     1      25.754  33.231 -19.747  1.00  0.00     0.010 N
ATOM      7  H51 UNL     1      25.706  32.274 -19.398  1.00  0.00     0.284 HD
ATOM      8  H52 UNL     1      26.155  33.692 -18.931  1.00  0.00     0.284 HD
HETATM    9  C12 UNL     1      26.655  33.316 -20.875  1.00  0.00     0.411 C
HETATM   10  N6  UNL     1      26.593  34.606 -21.522  1.00  0.00    -0.032 N
ATOM     11  H61 UNL     1      25.896  34.607 -22.266  1.00  0.00     0.280 HD
ATOM     12  H62 UNL     1      27.431  34.775 -22.078  1.00  0.00     0.280 HD
HETATM   13  C14 UNL     1      26.362  35.685 -20.599  1.00  0.00     0.284 C
ENDROOT
BRANCH   1  14
HETATM   14  S2  UNL     1      24.175  36.086 -22.243  1.00  0.00    -0.054 SA
BRANCH  14  15
HETATM   15  S1  UNL     1      22.171  36.727 -22.219  1.00  0.00    -0.023 SA
BRANCH  15  16
HETATM   16  C1  UNL     1      21.205  36.001 -20.919  1.00  0.00     0.160 C
HETATM   17  N1  UNL     1      21.211  34.603 -20.697  1.00  0.00    -0.074 NA
HETATM   18  N2  UNL     1      20.463  36.702 -20.125  1.00  0.00    -0.372 N
ATOM     19  H2  UNL     1      19.933  36.219 -19.399  1.00  0.00     0.161 HD
BRANCH  18  20
HETATM   20  C2  UNL     1      20.351  38.126 -20.221  1.00  0.00     0.126 C
BRANCH  20  21
HETATM   21  C3  UNL     1      19.441  38.667 -19.173  1.00  0.00     0.066 C
BRANCH  21  22
HETATM   22  C4  UNL     1      19.448  40.133 -19.010  1.00  0.00     0.036 A
HETATM   23  C5  UNL     1      20.329  40.741 -18.149  1.00  0.00     0.195 A
HETATM   24  O2  UNL     1      20.332  42.059 -17.974  1.00  0.00    -0.251 OA
HETATM   25  C6  UNL     1      19.512  42.865 -18.594  1.00  0.00     0.301 A
HETATM   26  O3  UNL     1      19.532  44.120 -18.411  1.00  0.00    -0.259 OA
HETATM   27  C7  UNL     1      18.586  42.366 -19.480  1.00  0.00     0.074 A
HETATM   28  C9  UNL     1      18.567  40.986 -19.677  1.00  0.00     0.091 A
BRANCH  23  29
HETATM   29  O1  UNL     1      21.285  40.054 -17.399  1.00  0.00    -0.340 OA
ATOM     30  H1  UNL     1      22.175  40.359 -17.269  1.00  0.00     0.220 HD
ENDBRANCH  23  29
BRANCH  27  31
HETATM   31  C8  UNL     1      17.649  43.275 -20.191  1.00  0.00     0.212 C
BRANCH  31  32
HETATM   32  O4  UNL     1      16.614  43.655 -19.368  1.00  0.00    -0.396 OA
ATOM     33  H4  UNL     1      16.084  44.328 -19.778  1.00  0.00     0.209 HD
ENDBRANCH  31  32
ENDBRANCH  27  31
BRANCH  28  34
HETATM   34  O5  UNL     1      17.650  40.489 -20.554  1.00  0.00    -0.359 OA
ATOM     35  H5  UNL     1      17.770  39.632 -20.946  1.00  0.00     0.217 HD
ENDBRANCH  28  34
ENDBRANCH  21  22
ENDBRANCH  20  21
ENDBRANCH  18  20
ENDBRANCH  15  16
ENDBRANCH  14  15
ENDBRANCH   1  14
BRANCH  13  36
HETATM   36  C15 UNL     1      27.120  36.923 -21.073  1.00  0.00     0.287 C
BRANCH  36  37
HETATM   37  O7  UNL     1      28.269  36.496 -21.727  1.00  0.00    -0.369 OA
ATOM     38  H7  UNL     1      28.491  37.147 -22.382  1.00  0.00     0.212 HD
ENDBRANCH  36  37
BRANCH  36  39
HETATM   39  O8  UNL     1      27.534  37.675 -19.968  1.00  0.00    -0.369 OA
ATOM     40  H8  UNL     1      27.629  38.586 -20.220  1.00  0.00     0.212 HD
ENDBRANCH  36  39
ENDBRANCH  13  36
BRANCH   5  41
HETATM   41  N4  UNL     1      23.513  32.956 -19.184  1.00  0.00    -0.026 N
ATOM     42  H43 UNL     1      23.268  32.053 -19.591  1.00  0.00     0.278 HD
ATOM     43  H42 UNL     1      23.936  32.599 -18.327  1.00  0.00     0.278 HD
ATOM     44  H41 UNL     1      22.705  33.555 -19.017  1.00  0.00     0.278 HD
ENDBRANCH   5  41
BRANCH   9  45
HETATM   45  C13 UNL     1      28.024  32.922 -20.426  1.00  0.00     0.226 C
BRANCH  45  46
HETATM   46  O6  UNL     1      29.028  33.660 -21.075  1.00  0.00    -0.397 OA
ATOM     47  H6  UNL     1      29.523  33.130 -21.690  1.00  0.00     0.209 HD
ENDBRANCH  45  46
ENDBRANCH   9  45
TORSDOF 16
ENDMDL