MODEL 1
REMARK VINA RESULT: -7.600906328      0.000      0.000
REMARK  15 active torsions:
REMARK  status: ('A' for Active; 'I' for Inactive)
REMARK    1  A    between atoms: C2_2  and  N1_3
REMARK    2  A    between atoms: C2_2  and  C15_44
REMARK       I    between atoms: N1_3  and  C3_5
REMARK    3  A    between atoms: C3_5  and  C4_7
REMARK    4  A    between atoms: C4_7  and  N2_8
REMARK    5  A    between atoms: C6_12  and  N4_13
REMARK    6  A    between atoms: C7_18  and  C8_19
REMARK    7  A    between atoms: C9_23  and  C10_24
REMARK    8  A    between atoms: C10_24  and  O3_25
REMARK    9  A    between atoms: C13_33  and  N9_34
REMARK   10  A    between atoms: C14_39  and  N11_40
REMARK   11  A    between atoms: C15_44  and  O4_45
REMARK   12  A    between atoms: C15_44  and  C16_47
REMARK   13  A    between atoms: C16_47  and  O5_48
REMARK   14  A    between atoms: C16_47  and  C17_50
REMARK   15  A    between atoms: C17_50  and  O6_51
ROOT
HETATM    1  N2  UNL     1      23.936  37.143 -22.682  1.00  0.00    -0.243 N
HETATM    2  C5  UNL     1      22.963  36.693 -21.833  1.00  0.00     0.155 A
HETATM    3  N3  UNL     1      22.680  35.452 -21.390  1.00  0.00    -0.174 N
ATOM      4  H3  UNL     1      23.258  34.674 -21.709  1.00  0.00     0.186 HD
HETATM    5  C6  UNL     1      21.672  35.201 -20.551  1.00  0.00     0.678 A
HETATM    6  N5  UNL     1      20.920  36.235 -20.141  1.00  0.00    -0.187 N
ATOM      7  H5  UNL     1      20.149  36.045 -19.501  1.00  0.00     0.184 HD
HETATM    8  C7  UNL     1      21.127  37.518 -20.532  1.00  0.00     0.113 A
HETATM    9  C11 UNL     1      22.177  37.742 -21.400  1.00  0.00     0.088 A
HETATM   10  C12 UNL     1      22.732  38.839 -22.034  1.00  0.00     0.177 A
HETATM   11  N8  UNL     1      22.404  40.132 -22.006  1.00  0.00    -0.173 N
ATOM     12  H8  UNL     1      21.612  40.416 -21.430  1.00  0.00     0.186 HD
HETATM   13  C13 UNL     1      23.056  41.073 -22.691  1.00  0.00     0.692 A
HETATM   14  N10 UNL     1      24.081  40.675 -23.432  1.00  0.00    -0.021 N
ATOM     15  H10 UNL     1      24.593  41.377 -23.965  1.00  0.00     0.203 HD
HETATM   16  C14 UNL     1      24.491  39.364 -23.521  1.00  0.00     0.713 A
HETATM   17  N12 UNL     1      23.791  38.446 -22.801  1.00  0.00    -0.064 N
ENDROOT
BRANCH   1  18
HETATM   18  C4  UNL     1      24.900  36.265 -23.294  1.00  0.00     0.254 C
BRANCH  18  19
HETATM   19  C3  UNL     1      26.036  35.967 -22.385  1.00  0.00     0.237 C
HETATM   20  N1  UNL     1      26.327  34.716 -21.836  1.00  0.00    -0.353 N
ATOM     21  H1  UNL     1      25.696  33.953 -22.082  1.00  0.00     0.163 HD
HETATM   22  O1  UNL     1      26.805  36.928 -22.087  1.00  0.00    -0.272 OA
BRANCH  20  23
HETATM   23  C2  UNL     1      27.404  34.392 -20.973  1.00  0.00     0.111 C
HETATM   24  C1  UNL     1      28.385  33.407 -21.561  1.00  0.00     0.035 C
BRANCH  23  25
HETATM   25  C15 UNL     1      27.047  33.909 -19.602  1.00  0.00     0.171 C
BRANCH  25  26
HETATM   26  O4  UNL     1      28.240  33.393 -19.054  1.00  0.00    -0.391 OA
ATOM     27  H4  UNL     1      28.446  33.949 -18.313  1.00  0.00     0.210 HD
ENDBRANCH  25  26
BRANCH  25  28
HETATM   28  C16 UNL     1      26.574  35.021 -18.695  1.00  0.00     0.172 C
BRANCH  28  29
HETATM   29  O5  UNL     1      27.155  36.199 -19.141  1.00  0.00    -0.391 OA
ATOM     30  H5  UNL     1      26.684  36.920 -18.740  1.00  0.00     0.210 HD
ENDBRANCH  28  29
BRANCH  28  31
HETATM   31  C17 UNL     1      25.078  35.158 -18.825  1.00  0.00     0.198 C
BRANCH  31  32
HETATM   32  O6  UNL     1      24.477  33.952 -19.188  1.00  0.00    -0.398 OA
ATOM     33  H6  UNL     1      23.608  34.085 -19.547  1.00  0.00     0.209 HD
ENDBRANCH  31  32
ENDBRANCH  28  31
ENDBRANCH  25  28
ENDBRANCH  23  25
ENDBRANCH  20  23
ENDBRANCH  18  19
ENDBRANCH   1  18
BRANCH  16  34
HETATM   34  N11 UNL     1      25.453  39.145 -24.261  1.00  0.00    -0.232 N
ATOM     35 2H11 UNL     1      26.154  39.819 -24.566  1.00  0.00     0.174 HD
ATOM     36 1H11 UNL     1      25.557  38.185 -24.590  1.00  0.00     0.174 HD
ENDBRANCH  16  34
BRANCH   5  37
HETATM   37  N4  UNL     1      21.432  34.008 -20.149  1.00  0.00    -0.234 N
ATOM     38  H42 UNL     1      22.159  33.444 -19.707  1.00  0.00     0.174 HD
ATOM     39  H41 UNL     1      20.507  33.594 -20.262  1.00  0.00     0.174 HD
ENDBRANCH   5  37
BRANCH   8  40
HETATM   40  C8  UNL     1      20.288  38.599 -20.068  1.00  0.00     0.156 A
HETATM   41  N6  UNL     1      19.077  39.054 -20.350  1.00  0.00    -0.241 N
HETATM   42  O2  UNL     1      18.798  40.080 -19.613  1.00  0.00    -0.220 OA
ATOM     43  H6  UNL     1      18.453  38.653 -21.049  1.00  0.00     0.196 HD
HETATM   44  C9  UNL     1      19.798  40.346 -18.823  1.00  0.00     0.172 A
HETATM   45  N7  UNL     1      20.744  39.441 -19.080  1.00  0.00    -0.320 N
ATOM     46  H7  UNL     1      21.653  39.383 -18.621  1.00  0.00     0.169 HD
BRANCH  44  47
HETATM   47  C10 UNL     1      19.942  41.421 -17.807  1.00  0.00     0.250 C
BRANCH  47  48
HETATM   48  O3  UNL     1      21.214  41.398 -17.240  1.00  0.00    -0.393 OA
ATOM     49  H3  UNL     1      21.297  42.068 -16.572  1.00  0.00     0.210 HD
ENDBRANCH  47  48
ENDBRANCH  44  47
ENDBRANCH   8  40
BRANCH  13  50
HETATM   50  N9  UNL     1      22.733  42.310 -22.660  1.00  0.00    -0.234 N
ATOM     51  H92 UNL     1      22.134  42.662 -21.913  1.00  0.00     0.174 HD
ATOM     52  H91 UNL     1      23.049  42.986 -23.355  1.00  0.00     0.174 HD
ENDBRANCH  13  50
TORSDOF 15
ENDMDL