MODEL 3
REMARK VINA RESULT: -8.546312108      1.408      1.980
REMARK  15 active torsions:
REMARK  status: ('A' for Active; 'I' for Inactive)
REMARK    1  A    between atoms: O1_2  and  N1_3
REMARK       I    between atoms: N1_3  and  C2_5
REMARK       I    between atoms: C2_5  and  N2_7
REMARK    2  A    between atoms: C4_9  and  C5_10
REMARK    3  A    between atoms: C5_10  and  C6_11
REMARK    4  A    between atoms: C6_11  and  O3_12
REMARK    5  A    between atoms: C6_11  and  C7_14
REMARK    6  A    between atoms: C8_17  and  C9_18
REMARK    7  A    between atoms: C9_18  and  N4_19
REMARK    8  A    between atoms: C10_22  and  N6_23
REMARK    9  A    between atoms: C11_28  and  C12_29
REMARK   10  A    between atoms: C12_29  and  O4_30
REMARK   11  A    between atoms: C12_29  and  C13_32
REMARK   12  A    between atoms: C12_29  and  N8_35
REMARK   13  A    between atoms: C13_32  and  O5_33
REMARK   14  A    between atoms: N8_35  and  O6_37
REMARK   15  A    between atoms: C15_43  and  O8_44
ROOT
HETATM    1  C7  UNL     1      21.871  35.528 -21.520  1.00  0.00     0.090 A
HETATM    2  N3  UNL     1      23.126  35.610 -21.886  1.00  0.00    -0.351 N
ATOM      3  H3  UNL     1      23.482  36.538 -22.119  1.00  0.00     0.166 HD
HETATM    4  C8  UNL     1      24.006  34.559 -21.985  1.00  0.00     0.098 A
HETATM    5  C14 UNL     1      23.507  33.321 -21.675  1.00  0.00     0.271 A
HETATM    6  O7  UNL     1      24.154  32.266 -21.718  1.00  0.00    -0.266 OA
HETATM    7  N9  UNL     1      22.198  33.192 -21.287  1.00  0.00    -0.301 N
ATOM      8  H9  UNL     1      21.844  32.263 -21.058  1.00  0.00     0.171 HD
HETATM    9  C15 UNL     1      21.373  34.227 -21.195  1.00  0.00     0.168 A
ENDROOT
BRANCH   4  10
HETATM   10  C9  UNL     1      25.395  34.872 -22.285  1.00  0.00     0.214 C
BRANCH  10  11
HETATM   11  N4  UNL     1      26.444  34.248 -21.555  1.00  0.00    -0.255 N
HETATM   12  N5  UNL     1      27.146  33.161 -21.947  1.00  0.00    -0.128 N
HETATM   13  C10 UNL     1      28.046  32.893 -21.017  1.00  0.00     0.692 A
ATOM     14  H5  UNL     1      27.005  32.638 -22.811  1.00  0.00     0.206 HD
HETATM   15  N7  UNL     1      27.944  33.774 -20.040  1.00  0.00    -0.173 N
HETATM   16  C11 UNL     1      26.931  34.623 -20.384  1.00  0.00     0.175 A
ATOM     17  H7  UNL     1      28.512  33.813 -19.192  1.00  0.00     0.185 HD
BRANCH  13  18
HETATM   18  N6  UNL     1      28.922  31.926 -21.037  1.00  0.00    -0.233 N
ATOM     19  H62 UNL     1      28.765  31.026 -21.490  1.00  0.00     0.174 HD
ATOM     20  H61 UNL     1      29.846  31.934 -20.607  1.00  0.00     0.174 HD
ENDBRANCH  13  18
BRANCH  16  21
HETATM   21  C12 UNL     1      26.472  35.704 -19.423  1.00  0.00     0.233 C
BRANCH  21  22
HETATM   22  O4  UNL     1      27.252  35.861 -18.330  1.00  0.00    -0.361 OA
ATOM     23  H4  UNL     1      26.808  35.736 -17.501  1.00  0.00     0.213 HD
ENDBRANCH  21  22
BRANCH  21  24
HETATM   24  C13 UNL     1      25.022  35.454 -19.049  1.00  0.00     0.235 C
BRANCH  24  25
HETATM   25  O5  UNL     1      24.268  36.596 -19.151  1.00  0.00    -0.396 OA
ATOM     26  H5  UNL     1      24.162  37.023 -18.309  1.00  0.00     0.209 HD
ENDBRANCH  24  25
ENDBRANCH  21  24
BRANCH  21  27
HETATM   27  N8  UNL     1      26.477  36.928 -20.227  1.00  0.00    -0.261 N
ATOM     28  H8  UNL     1      25.630  37.307 -20.652  1.00  0.00     0.191 HD
BRANCH  27  29
HETATM   29  O6  UNL     1      27.651  37.504 -20.362  1.00  0.00    -0.291 OA
ATOM     30  H6  UNL     1      27.686  38.206 -21.000  1.00  0.00     0.244 HD
ENDBRANCH  27  29
ENDBRANCH  21  27
ENDBRANCH  16  21
ENDBRANCH  10  11
ENDBRANCH   4  10
BRANCH   1  31
HETATM   31  C6  UNL     1      20.872  36.575 -21.305  1.00  0.00     0.178 C
BRANCH  31  32
HETATM   32  C5  UNL     1      21.184  37.944 -21.834  1.00  0.00     0.098 C
BRANCH  32  33
HETATM   33  C4  UNL     1      21.151  38.848 -20.621  1.00  0.00     0.047 A
HETATM   34  C3  UNL     1      20.243  39.800 -20.298  1.00  0.00     0.149 A
HETATM   35  N2  UNL     1      20.622  40.364 -19.127  1.00  0.00    -0.199 N
HETATM   36  C2  UNL     1      20.001  41.352 -18.329  1.00  0.00     0.366 C
HETATM   37  N11 UNL     1      21.756  39.765 -18.734  1.00  0.00    -0.232 N
HETATM   38  N1  UNL     1      20.657  41.801 -17.104  1.00  0.00    -0.215 N
HETATM   39  O2  UNL     1      18.908  41.886 -18.589  1.00  0.00    -0.243 OA
ATOM     40  H1  UNL     1      21.552  41.393 -16.834  1.00  0.00     0.199 HD
HETATM   41  N10 UNL     1      22.071  38.858 -19.628  1.00  0.00    -0.288 N
ATOM     42  H11 UNL     1      22.282  39.978 -17.886  1.00  0.00     0.209 HD
ATOM     43  H10 UNL     1      22.890  38.250 -19.582  1.00  0.00     0.188 HD
BRANCH  38  44
HETATM   44  O1  UNL     1      20.095  42.745 -16.327  1.00  0.00    -0.281 OA
HETATM   45  C1  UNL     1      21.100  43.499 -15.695  1.00  0.00     0.237 C
ENDBRANCH  38  44
ENDBRANCH  32  33
ENDBRANCH  31  32
BRANCH  31  46
HETATM   46  O3  UNL     1      20.676  36.700 -19.891  1.00  0.00    -0.389 OA
ATOM     47  H3  UNL     1      21.389  36.236 -19.466  1.00  0.00     0.210 HD
ENDBRANCH  31  46
ENDBRANCH   1  31
BRANCH   9  48
HETATM   48  O8  UNL     1      20.037  34.098 -20.794  1.00  0.00    -0.344 OA
ATOM     49  H8  UNL     1      19.830  33.505 -20.082  1.00  0.00     0.219 HD
ENDBRANCH   9  48
TORSDOF 15
ENDMDL