MODEL 4
REMARK VINA RESULT: -6.270200013      2.684      7.084
REMARK  15 active torsions:
REMARK  status: ('A' for Active; 'I' for Inactive)
REMARK    1  A    between atoms: C3_4  and  S1_5
REMARK    2  A    between atoms: S1_5  and  S2_6
REMARK    3  A    between atoms: S2_6  and  C4_7
REMARK    4  A    between atoms: C4_7  and  C5_8
REMARK    5  A    between atoms: C5_8  and  N1_9
REMARK    6  A    between atoms: N1_9  and  C6_11
REMARK    7  A    between atoms: C6_11  and  O2_12
REMARK    8  A    between atoms: C6_11  and  C7_14
REMARK    9  A    between atoms: C8_17  and  C9_18
REMARK   10  A    between atoms: C9_18  and  S3_20
REMARK   11  A    between atoms: S3_20  and  N3_21
REMARK   12  A    between atoms: N3_21  and  N4_22
REMARK   13  A    between atoms: C12_31  and  O4_32
REMARK   14  A    between atoms: C13_34  and  O5_35
REMARK   15  A    between atoms: C14_37  and  N6_38
ROOT
HETATM    1  N1  UNL     1      20.932  35.116 -20.712  1.00  0.00    -0.371 N
ATOM      2  H1  UNL     1      20.928  35.853 -20.007  1.00  0.00     0.161 HD
ENDROOT
BRANCH   1   3
HETATM    3  C5  UNL     1      19.740  34.926 -21.379  1.00  0.00     0.069 C
BRANCH   3   4
HETATM    4  C4  UNL     1      19.505  35.831 -22.575  1.00  0.00     0.130 C
BRANCH   4   5
HETATM    5  S2  UNL     1      18.141  36.967 -22.197  1.00  0.00    -0.090 SA
BRANCH   5   6
HETATM    6  S1  UNL     1      18.335  37.675 -20.183  1.00  0.00    -0.062 SA
BRANCH   6   7
HETATM    7  C3  UNL     1      19.261  39.247 -20.267  1.00  0.00     0.225 C
HETATM    8  O1  UNL     1      19.181  39.859 -19.045  1.00  0.00    -0.365 OA
HETATM    9  C2  UNL     1      19.948  40.975 -18.859  1.00  0.00     0.152 C
HETATM   10  C1  UNL     1      19.327  42.244 -19.410  1.00  0.00     0.042 C
HETATM   11  C14 UNL     1      21.372  40.807 -19.288  1.00  0.00     0.243 C
HETATM   12  C13 UNL     1      21.371  40.347 -20.734  1.00  0.00     0.183 C
HETATM   13  C12 UNL     1      20.661  39.015 -20.777  1.00  0.00     0.188 C
BRANCH  11  14
HETATM   14  N6  UNL     1      22.024  39.803 -18.506  1.00  0.00    -0.070 N
ATOM     15  H63 UNL     1      22.618  40.213 -17.785  1.00  0.00     0.274 HD
ATOM     16  H62 UNL     1      21.366  39.310 -17.901  1.00  0.00     0.274 HD
ATOM     17  H61 UNL     1      22.544  39.159 -19.102  1.00  0.00     0.274 HD
ENDBRANCH  11  14
BRANCH  12  18
HETATM   18  O5  UNL     1      22.619  40.340 -21.309  1.00  0.00    -0.391 OA
ATOM     19  H5  UNL     1      22.667  39.865 -22.130  1.00  0.00     0.210 HD
ENDBRANCH  12  18
BRANCH  13  20
HETATM   20  O4  UNL     1      21.327  38.019 -20.085  1.00  0.00    -0.389 OA
ATOM     21  H4  UNL     1      21.370  37.201 -20.567  1.00  0.00     0.210 HD
ENDBRANCH  13  20
ENDBRANCH   6   7
ENDBRANCH   5   6
ENDBRANCH   4   5
ENDBRANCH   3   4
ENDBRANCH   1   3
BRANCH   1  22
HETATM   22  C6  UNL     1      22.140  34.440 -20.868  1.00  0.00     0.267 C
BRANCH  22  23
HETATM   23  O2  UNL     1      22.254  33.721 -19.584  1.00  0.00    -0.371 OA
ATOM     24  H2  UNL     1      23.111  33.319 -19.661  1.00  0.00     0.212 HD
ENDBRANCH  22  23
BRANCH  22  25
HETATM   25  C7  UNL     1      23.410  35.212 -21.020  1.00  0.00     0.073 C
HETATM   26  N2  UNL     1      23.578  36.111 -19.898  1.00  0.00    -0.377 N
HETATM   27  C8  UNL     1      24.729  36.930 -19.917  1.00  0.00     0.190 C
ATOM     28  H2  UNL     1      22.903  36.151 -19.135  1.00  0.00     0.160 HD
HETATM   29  C10 UNL     1      24.828  37.551 -21.315  1.00  0.00     0.267 C
HETATM   30  N5  UNL     1      25.167  36.423 -22.174  1.00  0.00    -0.054 N
HETATM   31  C11 UNL     1      23.963  35.571 -22.307  1.00  0.00     0.307 C
ATOM     32  H52 UNL     1      25.546  36.713 -23.075  1.00  0.00     0.279 HD
ATOM     33  H51 UNL     1      25.982  35.906 -21.843  1.00  0.00     0.279 HD
HETATM   34  S4  UNL     1      22.959  36.328 -23.568  1.00  0.00    -0.056 SA
BRANCH  27  35
HETATM   35  C9  UNL     1      26.018  36.256 -19.629  1.00  0.00     0.228 C
HETATM   36  O3  UNL     1      27.102  36.572 -20.033  1.00  0.00    -0.282 OA
BRANCH  35  37
HETATM   37  S3  UNL     1      25.914  34.814 -18.557  1.00  0.00     0.039 SA
BRANCH  37  38
HETATM   38  N3  UNL     1      27.529  34.187 -18.250  1.00  0.00    -0.065 NA
BRANCH  38  39
HETATM   39  N4  UNL     1      28.120  33.660 -19.427  1.00  0.00    -0.337 N
ATOM     40  H42 UNL     1      28.075  34.126 -20.333  1.00  0.00     0.173 HD
ATOM     41  H41 UNL     1      28.585  32.770 -19.249  1.00  0.00     0.173 HD
ENDBRANCH  38  39
ENDBRANCH  37  38
ENDBRANCH  35  37
ENDBRANCH  27  35
ENDBRANCH  22  25
ENDBRANCH   1  22
TORSDOF 15
ENDMDL