MODEL 2
REMARK VINA RESULT: -7.900496697      3.062      7.811
REMARK  15 active torsions:
REMARK  status: ('A' for Active; 'I' for Inactive)
REMARK    1  A    between atoms: C3_10  and  C4_11
REMARK    2  A    between atoms: C6_15  and  C7_16
REMARK    3  A    between atoms: C7_16  and  N5_17
REMARK    4  A    between atoms: N5_17  and  C8_19
REMARK    5  A    between atoms: C8_19  and  C9_20
REMARK    6  A    between atoms: C9_20  and  O1_21
REMARK    7  A    between atoms: C9_20  and  C10_23
REMARK    8  A    between atoms: C10_23  and  O2_24
REMARK    9  A    between atoms: C10_23  and  C11_26
REMARK   10  A    between atoms: C11_26  and  O3_27
REMARK   11  A    between atoms: C11_26  and  C12_29
REMARK   12  A    between atoms: C12_29  and  O4_30
REMARK   13  A    between atoms: C13_37  and  C14_38
REMARK   14  A    between atoms: C15_43  and  N11_44
REMARK   15  A    between atoms: N14_51  and  O5_52
ROOT
HETATM    1  N1  UNL     1      18.289  36.563 -26.206  1.00  0.00    -0.233 N
ATOM      2  H11 UNL     1      17.400  36.169 -25.900  1.00  0.00     0.174 HD
ATOM      3  H12 UNL     1      18.346  37.091 -27.077  1.00  0.00     0.174 HD
HETATM    4  C1  UNL     1      19.347  36.400 -25.500  1.00  0.00     0.703 C
HETATM    5  N2  UNL     1      20.593  36.952 -25.929  1.00  0.00    -0.158 N
ATOM      6  H2  UNL     1      20.658  37.474 -26.803  1.00  0.00     0.187 HD
HETATM    7  C2  UNL     1      21.616  36.778 -25.201  1.00  0.00     0.219 A
HETATM    8  N3  UNL     1      22.975  37.185 -25.358  1.00  0.00    -0.309 N
ATOM      9  H3  UNL     1      23.382  37.672 -26.157  1.00  0.00     0.170 HD
HETATM   10  C3  UNL     1      23.644  36.774 -24.177  1.00  0.00     0.151 A
HETATM   11  N7  UNL     1      22.831  36.193 -23.385  1.00  0.00    -0.276 N
ATOM     12  H7  UNL     1      23.080  35.810 -22.473  1.00  0.00     0.189 HD
HETATM   13  N8  UNL     1      21.574  36.156 -23.933  1.00  0.00    -0.227 N
HETATM   14  C13 UNL     1      20.312  35.652 -23.339  1.00  0.00     0.312 C
HETATM   15  N14 UNL     1      19.265  35.653 -24.268  1.00  0.00    -0.058 N
ENDROOT
BRANCH  10  16
HETATM   16  C4  UNL     1      25.063  36.992 -23.920  1.00  0.00     0.095 A
HETATM   17  C5  UNL     1      26.030  37.399 -24.816  1.00  0.00     0.123 A
HETATM   18  N4  UNL     1      27.178  37.465 -24.149  1.00  0.00    -0.349 N
HETATM   19  C6  UNL     1      26.987  37.119 -22.876  1.00  0.00     0.121 A
ATOM     20  H4  UNL     1      28.073  37.739 -24.554  1.00  0.00     0.167 HD
HETATM   21  N6  UNL     1      25.675  36.832 -22.761  1.00  0.00    -0.337 N
ATOM     22  H6  UNL     1      25.219  36.533 -21.899  1.00  0.00     0.167 HD
BRANCH  19  23
HETATM   23  C7  UNL     1      27.945  37.044 -21.785  1.00  0.00     0.132 C
BRANCH  23  24
HETATM   24  N5  UNL     1      27.667  37.468 -20.641  1.00  0.00    -0.393 N
ATOM     25  H5  UNL     1      28.313  38.171 -20.283  1.00  0.00     0.159 HD
BRANCH  24  26
HETATM   26  C8  UNL     1      26.604  37.138 -19.754  1.00  0.00     0.153 C
BRANCH  26  27
HETATM   27  C9  UNL     1      26.510  35.734 -19.300  1.00  0.00     0.167 C
BRANCH  27  28
HETATM   28  O1  UNL     1      27.232  35.484 -18.145  1.00  0.00    -0.391 OA
ATOM     29  H1  UNL     1      27.435  34.564 -18.022  1.00  0.00     0.210 HD
ENDBRANCH  27  28
BRANCH  27  30
HETATM   30  C10 UNL     1      25.250  34.990 -19.417  1.00  0.00     0.179 C
BRANCH  30  31
HETATM   31  O2  UNL     1      24.329  35.950 -20.002  1.00  0.00    -0.390 OA
ATOM     32  H2  UNL     1      24.211  35.641 -20.892  1.00  0.00     0.210 HD
ENDBRANCH  30  31
BRANCH  30  33
HETATM   33  C11 UNL     1      25.166  33.840 -20.383  1.00  0.00     0.173 C
BRANCH  33  34
HETATM   34  O3  UNL     1      24.402  34.402 -21.476  1.00  0.00    -0.391 OA
ATOM     35  H3  UNL     1      24.072  33.628 -21.918  1.00  0.00     0.210 HD
ENDBRANCH  33  34
BRANCH  33  36
HETATM   36  C12 UNL     1      24.274  32.701 -19.938  1.00  0.00     0.198 C
BRANCH  36  37
HETATM   37  O4  UNL     1      23.335  33.163 -19.035  1.00  0.00    -0.398 OA
ATOM     38  H4  UNL     1      23.756  33.708 -18.381  1.00  0.00     0.209 HD
ENDBRANCH  36  37
ENDBRANCH  33  36
ENDBRANCH  30  33
ENDBRANCH  27  30
ENDBRANCH  26  27
ENDBRANCH  24  26
ENDBRANCH  23  24
ENDBRANCH  19  23
ENDBRANCH  10  16
BRANCH  14  39
HETATM   39  C14 UNL     1      20.173  36.387 -22.080  1.00  0.00     0.115 A
HETATM   40  N9  UNL     1      19.387  37.502 -22.160  1.00  0.00    -0.283 N
HETATM   41  N10 UNL     1      19.184  38.264 -21.130  1.00  0.00    -0.132 N
ATOM     42  H9  UNL     1      18.949  37.740 -23.050  1.00  0.00     0.187 HD
HETATM   43  C15 UNL     1      19.722  38.024 -19.924  1.00  0.00     0.691 A
ATOM     44  H10 UNL     1      18.588  39.084 -21.242  1.00  0.00     0.205 HD
HETATM   45  N12 UNL     1      20.493  36.950 -19.805  1.00  0.00    -0.176 N
HETATM   46  C16 UNL     1      20.722  36.130 -20.874  1.00  0.00     0.160 A
ATOM     47  H12 UNL     1      20.920  36.735 -18.904  1.00  0.00     0.185 HD
HETATM   48  N13 UNL     1      21.529  35.015 -20.653  1.00  0.00    -0.080 NA
BRANCH  43  49
HETATM   49  N11 UNL     1      19.486  38.819 -18.935  1.00  0.00    -0.233 N
ATOM     50 2H11 UNL     1      20.154  39.527 -18.630  1.00  0.00     0.174 HD
ATOM     51 1H11 UNL     1      18.605  38.757 -18.424  1.00  0.00     0.174 HD
ENDBRANCH  43  49
ENDBRANCH  14  39
BRANCH  15  52
HETATM   52  O5  UNL     1      18.148  34.921 -24.090  1.00  0.00    -0.272 OA
ATOM     53  H5  UNL     1      18.071  34.470 -23.257  1.00  0.00     0.245 HD
ENDBRANCH  15  52
TORSDOF 15
ENDMDL