MODEL 1
REMARK VINA RESULT: -7.967427206      0.000      0.000
REMARK  12 active torsions:
REMARK  status: ('A' for Active; 'I' for Inactive)
REMARK    1  A    between atoms: C2_2  and  C3_3
REMARK    2  A    between atoms: C2_2  and  C4_6
REMARK    3  A    between atoms: C2_2  and  C16_41
REMARK    4  A    between atoms: C5_8  and  C6_9
REMARK    5  A    between atoms: C6_9  and  C7_13
REMARK    6  A    between atoms: C7_13  and  O3_14
REMARK    7  A    between atoms: C7_13  and  N3_16
REMARK    8  A    between atoms: N7_28  and  O4_29
REMARK    9  A    between atoms: C14_37  and  O5_38
REMARK   10  A    between atoms: C16_41  and  O6_42
REMARK   11  A    between atoms: C16_41  and  C17_44
REMARK   12  A    between atoms: C17_44  and  O7_45
ROOT
HETATM    1  C4  UNL     1      25.058  36.207 -21.208  1.00  0.00     0.089 A
HETATM    2  O2  UNL     1      25.074  37.452 -21.669  1.00  0.00    -0.308 OA
HETATM    3  C5  UNL     1      23.886  37.927 -21.874  1.00  0.00     0.130 A
HETATM    4  C10 UNL     1      22.957  36.965 -21.542  1.00  0.00     0.085 A
HETATM    5  N6  UNL     1      21.608  36.910 -21.560  1.00  0.00    -0.348 N
ATOM      6  H6  UNL     1      21.095  37.733 -21.875  1.00  0.00     0.166 HD
HETATM    7  C11 UNL     1      20.915  35.835 -21.190  1.00  0.00     0.109 A
HETATM    8  C12 UNL     1      19.469  35.777 -21.209  1.00  0.00     0.191 C
HETATM    9  N7  UNL     1      18.685  36.810 -21.013  1.00  0.00    -0.129 N
HETATM   10  N8  UNL     1      17.359  36.396 -21.099  1.00  0.00     0.022 NA
HETATM   11  N9  UNL     1      17.310  35.005 -21.016  1.00  0.00    -0.005 NA
HETATM   12  N10 UNL     1      18.613  34.674 -21.431  1.00  0.00    -0.266 N
ATOM     13  H10 UNL     1      18.895  33.779 -21.829  1.00  0.00     0.185 HD
HETATM   14  C13 UNL     1      21.624  34.744 -20.772  1.00  0.00     0.111 A
HETATM   15  N11 UNL     1      21.006  33.536 -20.350  1.00  0.00    -0.097 NA
HETATM   16  C14 UNL     1      23.026  34.759 -20.736  1.00  0.00     0.107 A
HETATM   17  C15 UNL     1      23.732  35.876 -21.120  1.00  0.00     0.060 A
ENDROOT
BRANCH   3  18
HETATM   18  C6  UNL     1      23.570  39.279 -22.383  1.00  0.00     0.090 C
HETATM   19  N2  UNL     1      24.532  39.941 -22.919  1.00  0.00    -0.396 N
ATOM     20  H22 UNL     1      25.470  39.543 -22.976  1.00  0.00     0.156 HD
ATOM     21  H21 UNL     1      24.314  40.873 -23.271  1.00  0.00     0.156 HD
BRANCH  18  22
HETATM   22  C7  UNL     1      22.225  39.850 -22.302  1.00  0.00     0.295 C
BRANCH  22  23
HETATM   23  O3  UNL     1      22.071  40.750 -23.369  1.00  0.00    -0.369 OA
ATOM     24  H3  UNL     1      21.796  41.585 -23.011  1.00  0.00     0.212 HD
ENDBRANCH  22  23
BRANCH  22  25
HETATM   25  N3  UNL     1      22.078  40.583 -21.068  1.00  0.00    -0.252 N
HETATM   26  C8  UNL     1      21.861  40.106 -19.813  1.00  0.00     0.204 A
HETATM   27  N4  UNL     1      21.786  41.148 -18.973  1.00  0.00    -0.346 N
HETATM   28  C9  UNL     1      21.951  42.249 -19.689  1.00  0.00     0.198 A
ATOM     29  H4  UNL     1      21.630  41.101 -17.967  1.00  0.00     0.167 HD
HETATM   30  N5  UNL     1      22.129  41.912 -20.967  1.00  0.00    -0.290 N
ATOM     31  H5  UNL     1      22.280  42.562 -21.739  1.00  0.00     0.188 HD
ENDBRANCH  22  25
ENDBRANCH  18  22
ENDBRANCH   3  18
BRANCH   1  32
HETATM   32  C2  UNL     1      26.252  35.393 -20.870  1.00  0.00     0.113 C
HETATM   33  C1  UNL     1      26.552  34.381 -21.964  1.00  0.00     0.035 C
BRANCH  32  34
HETATM   34  C3  UNL     1      26.269  34.790 -19.537  1.00  0.00     0.248 C
HETATM   35  N1  UNL     1      26.766  33.432 -19.471  1.00  0.00    -0.061 NA
HETATM   36  O1  UNL     1      25.896  35.355 -18.501  1.00  0.00    -0.276 OA
ENDBRANCH  32  34
BRANCH  32  37
HETATM   37  C16 UNL     1      27.442  36.334 -20.875  1.00  0.00     0.165 C
BRANCH  37  38
HETATM   38  O6  UNL     1      27.237  37.430 -20.049  1.00  0.00    -0.392 OA
ATOM     39  H6  UNL     1      27.629  38.219 -20.405  1.00  0.00     0.210 HD
ENDBRANCH  37  38
BRANCH  37  40
HETATM   40  C17 UNL     1      27.835  36.714 -22.283  1.00  0.00     0.197 C
BRANCH  40  41
HETATM   41  O7  UNL     1      27.580  38.070 -22.474  1.00  0.00    -0.398 OA
ATOM     42  H7  UNL     1      26.678  38.178 -22.752  1.00  0.00     0.209 HD
ENDBRANCH  40  41
ENDBRANCH  37  40
ENDBRANCH  32  37
ENDBRANCH   1  32
BRANCH  16  43
HETATM   43  O5  UNL     1      23.727  33.659 -20.319  1.00  0.00    -0.358 OA
ATOM     44  H5  UNL     1      24.519  33.390 -20.768  1.00  0.00     0.217 HD
ENDBRANCH  16  43
BRANCH   9  45
HETATM   45  O4  UNL     1      19.066  38.104 -20.760  1.00  0.00    -0.268 OA
ATOM     46  H4  UNL     1      18.498  38.853 -20.625  1.00  0.00     0.246 HD
ENDBRANCH   9  45
TORSDOF 12
ENDMDL