MODEL 3
REMARK VINA RESULT: -8.327038582      3.655      5.234
REMARK  14 active torsions:
REMARK  status: ('A' for Active; 'I' for Inactive)
REMARK    1  A    between atoms: O1_2  and  N1_3
REMARK       I    between atoms: N1_3  and  C2_5
REMARK    2  A    between atoms: C2_5  and  C3_7
REMARK    3  A    between atoms: C4_12  and  C5_13
REMARK    4  A    between atoms: C5_13  and  N4_14
REMARK    5  A    between atoms: C5_13  and  C14_44
REMARK    6  A    between atoms: N4_14  and  C6_16
REMARK    7  A    between atoms: C8_20  and  N6_21
REMARK    8  A    between atoms: C9_26  and  N8_27
REMARK    9  A    between atoms: N10_33  and  C11_34
REMARK   10  A    between atoms: C11_34  and  C12_35
REMARK   11  A    between atoms: C12_35  and  O3_36
REMARK   12  A    between atoms: C12_35  and  O4_38
REMARK   13  A    between atoms: C13_40  and  N11_41
REMARK   14  A    between atoms: C15_47  and  O7_48
ROOT
HETATM    1  C6  UNL     1      22.265  35.795 -21.480  1.00  0.00     0.147 A
HETATM    2  N5  UNL     1      23.019  36.690 -22.185  1.00  0.00    -0.334 N
ATOM      3  H5  UNL     1      22.563  37.243 -22.912  1.00  0.00     0.168 HD
HETATM    4  C7  UNL     1      24.331  36.879 -21.967  1.00  0.00     0.123 A
HETATM    5  C8  UNL     1      25.072  37.791 -22.692  1.00  0.00     0.145 A
HETATM    6  N7  UNL     1      26.385  37.985 -22.477  1.00  0.00    -0.175 N
ATOM      7  H7  UNL     1      26.911  38.664 -23.027  1.00  0.00     0.186 HD
HETATM    8  C9  UNL     1      26.986  37.261 -21.522  1.00  0.00     0.679 A
HETATM    9  N9  UNL     1      26.292  36.368 -20.801  1.00  0.00    -0.174 N
ATOM     10  H9  UNL     1      26.776  35.833 -20.081  1.00  0.00     0.186 HD
HETATM   11  C10 UNL     1      24.972  36.155 -20.999  1.00  0.00     0.155 A
HETATM   12  N10 UNL     1      24.274  35.267 -20.284  1.00  0.00    -0.309 N
HETATM   13  C13 UNL     1      22.933  35.086 -20.519  1.00  0.00     0.147 A
ENDROOT
BRANCH   1  14
HETATM   14  N4  UNL     1      20.911  35.608 -21.725  1.00  0.00    -0.354 N
ATOM     15  H4  UNL     1      20.288  36.225 -21.204  1.00  0.00     0.162 HD
BRANCH  14  16
HETATM   16  C5  UNL     1      20.255  34.678 -22.600  1.00  0.00     0.241 C
BRANCH  16  17
HETATM   17  C4  UNL     1      18.947  35.106 -23.133  1.00  0.00     0.110 A
HETATM   18  N3  UNL     1      18.678  34.887 -24.449  1.00  0.00    -0.296 N
HETATM   19  N2  UNL     1      17.564  35.197 -25.033  1.00  0.00    -0.281 N
ATOM     20  H3  UNL     1      19.404  34.449 -25.015  1.00  0.00     0.187 HD
HETATM   21  C3  UNL     1      16.568  35.775 -24.350  1.00  0.00     0.193 A
ATOM     22  H2  UNL     1      17.444  34.997 -26.025  1.00  0.00     0.188 HD
HETATM   23  N12 UNL     1      16.786  36.012 -23.050  1.00  0.00    -0.316 N
HETATM   24  C15 UNL     1      17.946  35.699 -22.407  1.00  0.00     0.169 A
ATOM     25  H12 UNL     1      16.040  36.452 -22.511  1.00  0.00     0.169 HD
BRANCH  21  26
HETATM   26  C2  UNL     1      15.335  36.123 -25.031  1.00  0.00     0.310 C
HETATM   27  N1  UNL     1      14.304  35.163 -25.143  1.00  0.00    -0.229 N
ATOM     28  H1  UNL     1      14.443  34.237 -24.741  1.00  0.00     0.198 HD
HETATM   29  O2  UNL     1      15.154  37.262 -25.529  1.00  0.00    -0.262 OA
BRANCH  27  30
HETATM   30  O1  UNL     1      13.151  35.436 -25.763  1.00  0.00    -0.282 OA
HETATM   31  C1  UNL     1      12.116  35.272 -24.848  1.00  0.00     0.237 C
ENDBRANCH  27  30
ENDBRANCH  21  26
BRANCH  24  32
HETATM   32  O7  UNL     1      18.078  35.993 -21.047  1.00  0.00    -0.344 OA
ATOM     33  H7  UNL     1      17.353  36.309 -20.521  1.00  0.00     0.219 HD
ENDBRANCH  24  32
ENDBRANCH  16  17
BRANCH  16  34
HETATM   34  C14 UNL     1      20.056  33.426 -21.817  1.00  0.00     0.203 C
HETATM   35  O5  UNL     1      19.631  33.399 -20.659  1.00  0.00    -0.646 OA
HETATM   36  O6  UNL     1      20.375  32.204 -22.443  1.00  0.00    -0.646 OA
ENDBRANCH  16  34
ENDBRANCH  14  16
ENDBRANCH   1  14
BRANCH  13  37
HETATM   37  N11 UNL     1      22.349  34.225 -19.806  1.00  0.00    -0.382 N
ATOM     38 2H11 UNL     1      21.433  33.914 -20.130  1.00  0.00     0.157 HD
ATOM     39 1H11 UNL     1      22.769  33.865 -18.950  1.00  0.00     0.157 HD
ENDBRANCH  13  37
BRANCH  12  40
HETATM   40  C11 UNL     1      24.928  34.468 -19.273  1.00  0.00     0.192 C
BRANCH  40  41
HETATM   41  C12 UNL     1      25.352  33.107 -19.734  1.00  0.00     0.272 C
BRANCH  41  42
HETATM   42  O3  UNL     1      26.707  32.927 -19.634  1.00  0.00    -0.370 OA
ATOM     43  H3  UNL     1      27.170  33.273 -20.387  1.00  0.00     0.212 HD
ENDBRANCH  41  42
BRANCH  41  44
HETATM   44  O4  UNL     1      24.638  32.144 -18.987  1.00  0.00    -0.370 OA
ATOM     45  H4  UNL     1      25.215  31.798 -18.317  1.00  0.00     0.212 HD
ENDBRANCH  41  44
ENDBRANCH  40  41
ENDBRANCH  12  40
BRANCH   5  46
HETATM   46  N6  UNL     1      24.513  38.499 -23.616  1.00  0.00    -0.383 N
ATOM     47  H62 UNL     1      25.090  38.766 -24.413  1.00  0.00     0.157 HD
ATOM     48  H61 UNL     1      23.533  38.771 -23.535  1.00  0.00     0.157 HD
ENDBRANCH   5  46
BRANCH   8  49
HETATM   49  N8  UNL     1      28.246  37.409 -21.276  1.00  0.00    -0.234 N
ATOM     50  H82 UNL     1      28.578  38.320 -20.958  1.00  0.00     0.174 HD
ATOM     51  H81 UNL     1      28.895  36.632 -21.399  1.00  0.00     0.174 HD
ENDBRANCH   8  49
TORSDOF 14
ENDMDL