MODEL 5
REMARK VINA RESULT: -6.836450251      3.508      5.572
REMARK  8 active torsions:
REMARK  status: ('A' for Active; 'I' for Inactive)
REMARK       I    between atoms: C2_2  and  N1_4
REMARK    1  A    between atoms: N1_4  and  C3_6
REMARK    2  A    between atoms: C3_6  and  C6_9
REMARK    3  A    between atoms: C6_9  and  C9_12
REMARK    4  A    between atoms: C10_13  and  O2_14
REMARK    5  A    between atoms: C11_16  and  C12_17
REMARK    6  A    between atoms: C12_17  and  O3_18
REMARK    7  A    between atoms: C12_17  and  N2_20
REMARK    8  A    between atoms: N3_27  and  C18_28
ROOT
HETATM    1  C9  UNL     1       8.204   3.410   4.242  1.00  0.00     0.056 A
HETATM    2  C10 UNL     1       8.247   4.694   3.657  1.00  0.00     0.101 A
HETATM    3  C11 UNL     1       7.143   5.403   4.009  1.00  0.00     0.051 A
HETATM    4  C17 UNL     1       6.417   4.578   4.801  1.00  0.00     0.106 A
HETATM    5  N3  UNL     1       7.039   3.367   4.957  1.00  0.00    -0.352 N
ENDROOT
BRANCH   1   6
HETATM    6  C6  UNL     1       9.127   2.321   4.078  1.00  0.00     0.022 C
HETATM    7  C7  UNL     1      10.498   2.989   3.751  1.00  0.00     0.024 C
HETATM    8  C8  UNL     1       9.301   1.527   5.351  1.00  0.00     0.024 C
BRANCH   6   9
HETATM    9  C3  UNL     1       8.928   1.321   2.985  1.00  0.00     0.038 C
HETATM   10  C4  UNL     1       7.604   1.247   2.313  1.00  0.00     0.039 C
HETATM   11  C5  UNL     1       9.927   1.564   1.872  1.00  0.00     0.039 C
BRANCH   9  12
HETATM   12  N1  UNL     1       9.342  -0.018   3.468  1.00  0.00    -0.352 N
HETATM   13  C2  UNL     1       9.409  -1.172   2.703  1.00  0.00     0.214 C
HETATM   14  C1  UNL     1       9.847  -2.446   3.323  1.00  0.00     0.117 C
HETATM   15  O1  UNL     1       9.117  -1.206   1.494  1.00  0.00    -0.274 OA
ATOM     16  H1  UNL     1       9.601  -0.098   4.452  1.00  0.00     0.163 HD
ENDBRANCH   9  12
ENDBRANCH   6   9
ENDBRANCH   1   6
BRANCH   2  17
HETATM   17  O2  UNL     1       9.244   5.183   2.855  1.00  0.00    -0.358 OA
ATOM     18  H2  UNL     1       9.265   5.150   1.906  1.00  0.00     0.217 HD
ENDBRANCH   2  17
BRANCH   5  19
HETATM   19  C18 UNL     1       6.406   2.343   5.747  1.00  0.00     0.089 A
HETATM   20  C19 UNL     1       5.098   2.775   6.470  1.00  0.00     0.028 A
HETATM   21  C20 UNL     1       6.255   2.311   7.201  1.00  0.00     0.028 A
ENDBRANCH   5  19
BRANCH   3  22
HETATM   22  C12 UNL     1       6.829   6.807   3.583  1.00  0.00     0.395 C
BRANCH  22  23
HETATM   23  O3  UNL     1       7.015   7.599   4.721  1.00  0.00    -0.364 OA
ATOM     24  H3  UNL     1       7.724   8.193   4.508  1.00  0.00     0.212 HD
ENDBRANCH  22  23
BRANCH  22  25
HETATM   25  N2  UNL     1       5.450   6.919   3.153  1.00  0.00     0.126 N
HETATM   26  C13 UNL     1       4.667   7.760   4.001  1.00  0.00     0.302 C
HETATM   27  C14 UNL     1       3.606   8.538   3.255  1.00  0.00     0.198 C
HETATM   28  O4  UNL     1       4.148   9.383   2.293  1.00  0.00    -0.388 OA
HETATM   29  C15 UNL     1       5.325   8.869   1.742  1.00  0.00     0.198 C
HETATM   30  C16 UNL     1       5.307   7.349   1.800  1.00  0.00     0.302 C
ENDBRANCH  22  25
ENDBRANCH   3  22
TORSDOF 8
ENDMDL