MODEL 1
REMARK VINA RESULT: -7.567183097      0.000      0.000
REMARK  9 active torsions:
REMARK  status: ('A' for Active; 'I' for Inactive)
REMARK    1  A    between atoms: O1_2  and  C2_3
REMARK    2  A    between atoms: C2_3  and  C3_4
REMARK    3  A    between atoms: C4_5  and  C5_6
REMARK    4  A    between atoms: C7_9  and  C8_10
REMARK    5  A    between atoms: C8_10  and  C9_11
REMARK    6  A    between atoms: C9_11  and  O3_12
REMARK    7  A    between atoms: C9_11  and  C10_14
REMARK    8  A    between atoms: C16_21  and  O5_22
REMARK    9  A    between atoms: C21_28  and  O6_29
ROOT
HETATM    1  C5  UNL     1       7.312   5.878   3.702  1.00  0.00     0.035 C
HETATM    2  C6  UNL     1       7.089   4.903   4.592  1.00  0.00     0.076 C
HETATM    3  O2  UNL     1       8.022   3.933   4.857  1.00  0.00    -0.346 OA
HETATM    4  C7  UNL     1       7.629   2.629   5.188  1.00  0.00     0.142 C
HETATM    5  C14 UNL     1       6.575   2.562   6.241  1.00  0.00     0.015 C
HETATM    6  C15 UNL     1       5.558   1.514   5.849  1.00  0.00     0.021 C
HETATM    7  C16 UNL     1       7.163   2.158   7.565  1.00  0.00     0.129 C
HETATM    8  C17 UNL     1       7.077   3.352   8.474  1.00  0.00     0.037 C
HETATM    9  C18 UNL     1       6.468   4.481   7.709  1.00  0.00    -0.008 C
HETATM   10  C19 UNL     1       5.402   5.109   8.596  1.00  0.00     0.010 C
HETATM   11  C20 UNL     1       5.839   3.845   6.477  1.00  0.00     0.038 C
HETATM   12  C21 UNL     1       5.834   4.798   5.349  1.00  0.00     0.180 C
ENDROOT
BRANCH   4  13
HETATM   13  C8  UNL     1       7.224   1.952   3.894  1.00  0.00     0.070 C
BRANCH  13  14
HETATM   14  C9  UNL     1       8.424   1.590   3.053  1.00  0.00     0.155 C
BRANCH  14  15
HETATM   15  O3  UNL     1       9.616   2.047   3.596  1.00  0.00    -0.391 OA
ATOM     16  H3  UNL     1      10.376   1.760   3.105  1.00  0.00     0.210 HD
ENDBRANCH  14  15
BRANCH  14  17
HETATM   17  C10 UNL     1       8.539   0.113   2.933  1.00  0.00    -0.005 A
HETATM   18  C11 UNL     1       9.701  -0.585   3.213  1.00  0.00     0.036 A
HETATM   19  C12 UNL     1       9.406  -1.908   2.984  1.00  0.00     0.142 A
HETATM   20  O4  UNL     1       8.165  -1.999   2.596  1.00  0.00    -0.334 OA
HETATM   21  C13 UNL     1       7.597  -0.813   2.549  1.00  0.00     0.151 A
ENDBRANCH  14  17
ENDBRANCH  13  14
ENDBRANCH   4  13
BRANCH   7  22
HETATM   22  O5  UNL     1       8.489   1.771   7.497  1.00  0.00    -0.395 OA
ATOM     23  H5  UNL     1       8.851   1.483   8.327  1.00  0.00     0.210 HD
ENDBRANCH   7  22
BRANCH   1  24
HETATM   24  C4  UNL     1       6.352   6.902   3.408  1.00  0.00     0.001 C
HETATM   25  C3  UNL     1       5.843   7.060   2.203  1.00  0.00    -0.001 C
BRANCH  25  26
HETATM   26  C2  UNL     1       4.862   8.129   1.961  1.00  0.00     0.194 C
BRANCH  26  27
HETATM   27  O1  UNL     1       4.093   8.342   3.081  1.00  0.00    -0.392 OA
HETATM   28  C1  UNL     1       3.777   9.675   3.229  1.00  0.00     0.201 C
ENDBRANCH  26  27
ENDBRANCH  25  26
ENDBRANCH   1  24
BRANCH  12  29
HETATM   29  O6  UNL     1       4.719   4.585   4.501  1.00  0.00    -0.389 OA
ATOM     30  H6  UNL     1       4.402   5.395   4.119  1.00  0.00     0.210 HD
ENDBRANCH  12  29
TORSDOF 9
ENDMDL