MODEL 3
REMARK VINA RESULT: -7.487750423      0.777      1.012
REMARK  8 active torsions:
REMARK  status: ('A' for Active; 'I' for Inactive)
REMARK    1  A    between atoms: C2_2  and  C3_3
REMARK    2  A    between atoms: C3_3  and  N1_4
REMARK    3  A    between atoms: C12_16  and  O2_17
REMARK    4  A    between atoms: N3_19  and  C13_20
REMARK    5  A    between atoms: C13_20  and  C14_21
REMARK    6  A    between atoms: C14_21  and  C15_22
REMARK    7  A    between atoms: C15_22  and  C16_23
REMARK    8  A    between atoms: C18_26  and  O4_27
ROOT
HETATM    1  N1  UNL     1      11.854   1.519   0.909  1.00  0.00    -0.262 N
HETATM    2  C4  UNL     1      11.669   0.126   0.950  1.00  0.00     0.326 C
HETATM    3  O1  UNL     1      12.498  -0.562   0.291  1.00  0.00    -0.247 OA
HETATM    4  N2  UNL     1      10.651  -0.552   1.655  1.00  0.00    -0.329 N
ATOM      5  H2  UNL     1      10.741  -1.562   1.541  1.00  0.00     0.165 HD
HETATM    6  C5  UNL     1       9.541  -0.235   2.475  1.00  0.00     0.067 C
HETATM    7  C6  UNL     1       9.770  -0.943   3.817  1.00  0.00     0.036 C
HETATM    8  C7  UNL     1       9.572  -2.385   3.447  1.00  0.00     0.003 C
HETATM    9  C8  UNL     1       8.512  -2.381   2.378  1.00  0.00     0.003 C
HETATM   10  C9  UNL     1       8.353  -0.976   1.908  1.00  0.00     0.036 C
HETATM   11  C10 UNL     1       9.267   1.155   2.767  1.00  0.00     0.041 A
HETATM   12  C11 UNL     1       9.948   2.301   2.421  1.00  0.00     0.096 A
HETATM   13  C12 UNL     1       9.272   3.402   2.948  1.00  0.00     0.161 A
HETATM   14  N3  UNL     1       8.202   2.916   3.601  1.00  0.00    -0.307 N
HETATM   15  C18 UNL     1       8.189   1.565   3.497  1.00  0.00     0.154 A
HETATM   16  C19 UNL     1      11.168   2.517   1.651  1.00  0.00     0.267 C
HETATM   17  O5  UNL     1      11.677   3.666   1.621  1.00  0.00    -0.267 OA
ENDROOT
BRANCH  14  18
HETATM   18  C13 UNL     1       7.232   3.751   4.296  1.00  0.00     0.133 C
BRANCH  18  19
HETATM   19  C14 UNL     1       7.622   3.744   5.747  1.00  0.00     0.027 C
BRANCH  19  20
HETATM   20  C15 UNL     1       6.725   2.996   6.657  1.00  0.00     0.079 C
BRANCH  20  21
HETATM   21  C16 UNL     1       5.411   3.617   6.839  1.00  0.00     0.123 C
HETATM   22  C17 UNL     1       5.258   4.778   7.801  1.00  0.00     0.091 C
HETATM   23  O3  UNL     1       4.423   3.256   6.261  1.00  0.00    -0.298 OA
ENDBRANCH  20  21
ENDBRANCH  19  20
ENDBRANCH  18  19
ENDBRANCH  14  18
BRANCH  13  24
HETATM   24  O2  UNL     1       9.654   4.746   2.813  1.00  0.00    -0.345 OA
ATOM     25  H2  UNL     1       9.239   5.391   2.252  1.00  0.00     0.219 HD
ENDBRANCH  13  24
BRANCH  15  26
HETATM   26  O4  UNL     1       7.156   0.823   4.104  1.00  0.00    -0.345 OA
ATOM     27  H4  UNL     1       6.989   0.630   5.020  1.00  0.00     0.219 HD
ENDBRANCH  15  26
BRANCH   1  28
HETATM   28  C3  UNL     1      12.891   1.976  -0.025  1.00  0.00     0.163 C
BRANCH  28  29
HETATM   29  C2  UNL     1      12.363   2.234  -1.366  1.00  0.00    -0.017 C
HETATM   30  C1  UNL     1      12.859   1.578  -2.400  1.00  0.00     0.008 C
ENDBRANCH  28  29
ENDBRANCH   1  28
TORSDOF 8
ENDMDL