MODEL 4
REMARK VINA RESULT: -7.618177763      3.562      7.760
REMARK  7 active torsions:
REMARK  status: ('A' for Active; 'I' for Inactive)
REMARK       I    between atoms: C2_5  and  N3_6
REMARK       I    between atoms: C2_5  and  N5_23
REMARK    1  A    between atoms: N3_6  and  C3_8
REMARK    2  A    between atoms: C3_8  and  C4_9
REMARK    3  A    between atoms: C3_8  and  C5_14
REMARK    4  A    between atoms: N4_10  and  O1_12
REMARK    5  A    between atoms: C5_14  and  S1_15
REMARK    6  A    between atoms: S1_15  and  C6_18
REMARK    7  A    between atoms: N5_23  and  C10_25
ROOT
HETATM    1  N1  UNL     1       7.723   2.937   7.366  1.00  0.00    -0.171 NA
HETATM    2  C1  UNL     1       8.291   2.819   6.373  1.00  0.00     0.196 C
HETATM    3  N2  UNL     1       8.984   2.672   5.156  1.00  0.00    -0.126 N
ATOM      4  H2  UNL     1       9.965   2.394   5.140  1.00  0.00     0.197 HD
HETATM    5  C2  UNL     1       8.343   2.898   4.064  1.00  0.00     0.683 C
HETATM    6  N3  UNL     1       9.006   2.761   2.819  1.00  0.00    -0.216 N
ATOM      7  H3  UNL     1       8.911   3.476   2.099  1.00  0.00     0.178 HD
HETATM    8  N5  UNL     1       6.978   3.286   4.042  1.00  0.00    -0.221 N
ATOM      9  H5  UNL     1       6.275   2.632   4.385  1.00  0.00     0.178 HD
ENDROOT
BRANCH   6  10
HETATM   10  C3  UNL     1       9.818   1.591   2.590  1.00  0.00     0.154 C
BRANCH  10  11
HETATM   11  C4  UNL     1      11.018   1.907   1.803  1.00  0.00     0.113 C
HETATM   12  N4  UNL     1      11.918   2.667   2.286  1.00  0.00    -0.282 N
ATOM     13  H4  UNL     1      12.751   2.886   1.741  1.00  0.00     0.192 HD
BRANCH  12  14
HETATM   14  O1  UNL     1      11.762   3.186   3.539  1.00  0.00    -0.290 OA
ATOM     15  H1  UNL     1      11.559   4.107   3.644  1.00  0.00     0.244 HD
ENDBRANCH  12  14
ENDBRANCH  10  11
BRANCH  10  16
HETATM   16  C5  UNL     1       8.940   0.556   1.933  1.00  0.00     0.177 C
BRANCH  16  17
HETATM   17  S1  UNL     1       8.961  -0.977   2.826  1.00  0.00     0.184 S
HETATM   18  O2  UNL     1       9.557  -0.835   4.190  1.00  0.00    -0.222 OA
HETATM   19  O3  UNL     1       7.586  -1.577   2.855  1.00  0.00    -0.222 OA
BRANCH  17  20
HETATM   20  C6  UNL     1       9.987  -2.113   1.939  1.00  0.00     0.099 A
HETATM   21  C7  UNL     1       9.861  -3.476   1.868  1.00  0.00     0.031 A
HETATM   22  C8  UNL     1      10.758  -4.141   1.132  1.00  0.00     0.009 A
HETATM   23  C9  UNL     1      11.730  -3.401   0.509  1.00  0.00     0.051 A
HETATM   24  S2  UNL     1      11.357  -1.806   0.973  1.00  0.00    -0.090 SA
ENDBRANCH  17  20
ENDBRANCH  16  17
ENDBRANCH  10  16
ENDBRANCH   6  10
BRANCH   8  25
HETATM   25  C10 UNL     1       6.551   4.582   3.549  1.00  0.00     0.099 C
HETATM   26  C11 UNL     1       7.667   5.572   3.892  1.00  0.00     0.026 C
HETATM   27  C12 UNL     1       7.334   6.959   3.418  1.00  0.00     0.002 C
HETATM   28  C13 UNL     1       5.917   7.083   2.936  1.00  0.00     0.000 C
HETATM   29  C14 UNL     1       4.915   6.405   3.817  1.00  0.00     0.002 C
HETATM   30  C15 UNL     1       5.324   5.046   4.281  1.00  0.00     0.026 C
ENDBRANCH   8  25
TORSDOF 7
ENDMDL