MODEL 4
REMARK VINA RESULT: -7.445260467      2.532      7.743
REMARK  10 active torsions:
REMARK  status: ('A' for Active; 'I' for Inactive)
REMARK    1  A    between atoms: O1_2  and  C2_3
REMARK    2  A    between atoms: C6_7  and  C7_8
REMARK    3  A    between atoms: C8_9  and  O2_10
REMARK    4  A    between atoms: C9_13  and  C10_14
REMARK    5  A    between atoms: C10_14  and  O4_15
REMARK    6  A    between atoms: C10_14  and  C11_17
REMARK    7  A    between atoms: C11_17  and  C13_19
REMARK    8  A    between atoms: C14_20  and  O5_21
REMARK    9  A    between atoms: C17_25  and  O6_26
REMARK   10  A    between atoms: C19_28  and  O7_29
ROOT
HETATM    1  C7  UNL     1       9.754   2.088   2.137  1.00  0.00     0.087 C
HETATM    2  C8  UNL     1      10.295   3.304   2.841  1.00  0.00     0.272 C
HETATM    3  O3  UNL     1       9.265   3.738   3.686  1.00  0.00    -0.321 OA
HETATM    4  C9  UNL     1       9.052   2.530   4.340  1.00  0.00     0.084 C
HETATM    5  C15 UNL     1       8.826   1.543   3.268  1.00  0.00     0.054 C
HETATM    6  C16 UNL     1       7.454   1.323   2.724  1.00  0.00     0.018 C
ENDROOT
BRANCH   1   7
HETATM    7  C6  UNL     1      10.687   1.044   1.790  1.00  0.00    -0.012 A
HETATM    8  C5  UNL     1      10.632  -0.240   2.211  1.00  0.00     0.020 A
HETATM    9  C3  UNL     1      11.449  -1.243   1.653  1.00  0.00    -0.025 A
HETATM   10  C2  UNL     1      12.333  -0.912   0.655  1.00  0.00     0.110 A
HETATM   11  C4  UNL     1      11.269  -2.628   2.157  1.00  0.00     0.051 C
HETATM   12  C19 UNL     1      12.422   0.411   0.194  1.00  0.00     0.136 A
HETATM   13  C17 UNL     1      11.609   1.327   0.764  1.00  0.00     0.111 A
BRANCH  10  14
HETATM   14  O1  UNL     1      13.164  -1.847   0.078  1.00  0.00    -0.352 OA
HETATM   15  C1  UNL     1      12.749  -2.749  -0.939  1.00  0.00     0.210 C
ENDBRANCH  10  14
BRANCH  12  16
HETATM   16  O7  UNL     1      13.327   0.671  -0.807  1.00  0.00    -0.351 OA
HETATM   17  C20 UNL     1      12.941   0.815  -2.166  1.00  0.00     0.210 C
ENDBRANCH  12  16
BRANCH  13  18
HETATM   18  O6  UNL     1      11.695   2.668   0.301  1.00  0.00    -0.352 OA
HETATM   19  C18 UNL     1      12.949   3.338   0.546  1.00  0.00     0.210 C
ENDBRANCH  13  18
ENDBRANCH   1   7
BRANCH   2  20
HETATM   20  O2  UNL     1      11.460   3.182   3.515  1.00  0.00    -0.370 OA
ATOM     21  H2  UNL     1      12.177   2.728   3.088  1.00  0.00     0.212 HD
ENDBRANCH   2  20
BRANCH   4  22
HETATM   22  C10 UNL     1       8.286   2.555   5.581  1.00  0.00     0.080 C
BRANCH  22  23
HETATM   23  O4  UNL     1       8.573   1.448   6.355  1.00  0.00    -0.362 OA
ATOM     24  H4  UNL     1       8.000   1.409   7.111  1.00  0.00     0.217 HD
ENDBRANCH  22  23
BRANCH  22  25
HETATM   25  C11 UNL     1       6.851   2.982   5.561  1.00  0.00     0.065 C
HETATM   26  C12 UNL     1       6.067   2.220   6.653  1.00  0.00     0.021 C
BRANCH  25  27
HETATM   27  C13 UNL     1       6.667   4.423   5.940  1.00  0.00     0.008 C
HETATM   28  C14 UNL     1       6.437   5.293   5.017  1.00  0.00     0.128 C
BRANCH  28  29
HETATM   29  O5  UNL     1       6.248   6.668   5.342  1.00  0.00    -0.373 OA
ATOM     30  H5  UNL     1       6.885   7.321   5.079  1.00  0.00     0.216 HD
ENDBRANCH  28  29
ENDBRANCH  25  27
ENDBRANCH  22  25
ENDBRANCH   4  22
TORSDOF 10
ENDMDL