MODEL 4
REMARK VINA RESULT: -6.130357979      4.462      7.665
REMARK  9 active torsions:
REMARK  status: ('A' for Active; 'I' for Inactive)
REMARK    1  A    between atoms: C2_2  and  C3_3
REMARK    2  A    between atoms: C3_3  and  O1_4
REMARK    3  A    between atoms: C3_3  and  C17_27
REMARK    4  A    between atoms: O1_4  and  C4_5
REMARK    5  A    between atoms: C5_6  and  O2_7
REMARK    6  A    between atoms: C7_10  and  O3_11
REMARK    7  A    between atoms: C8_13  and  O4_14
REMARK    8  A    between atoms: O4_14  and  C9_15
REMARK    9  A    between atoms: C11_18  and  C12_19
ROOT
HETATM    1  C4  UNL     1       7.032   2.736   4.583  1.00  0.00     0.162 C
HETATM    2  C5  UNL     1       6.652   1.736   5.726  1.00  0.00     0.150 C
HETATM    3  C6  UNL     1       7.302   2.104   7.005  1.00  0.00     0.068 C
HETATM    4  C7  UNL     1       7.540   3.592   7.054  1.00  0.00     0.151 C
HETATM    5  C8  UNL     1       6.430   4.353   6.327  1.00  0.00     0.171 C
HETATM    6  C11 UNL     1       6.262   3.972   4.901  1.00  0.00     0.083 C
ENDROOT
BRANCH   1   7
HETATM    7  O1  UNL     1       8.373   2.791   4.430  1.00  0.00    -0.377 OA
BRANCH   7   8
HETATM    8  C3  UNL     1       8.770   2.248   3.212  1.00  0.00     0.126 C
BRANCH   8   9
HETATM    9  C2  UNL     1       9.049   0.761   3.515  1.00  0.00     0.028 C
HETATM   10  C1  UNL     1       8.268  -0.167   2.656  1.00  0.00     0.007 C
ENDBRANCH   8   9
BRANCH   8  11
HETATM   11  C17 UNL     1       9.992   2.891   2.685  1.00  0.00     0.015 C
HETATM   12  C18 UNL     1      10.804   2.177   1.660  1.00  0.00     0.007 C
HETATM   13  C19 UNL     1      12.053   2.758   2.337  1.00  0.00     0.001 C
HETATM   14  C20 UNL     1      11.212   2.832   3.595  1.00  0.00     0.007 C
ENDBRANCH   8  11
ENDBRANCH   7   8
ENDBRANCH   1   7
BRANCH   2  15
HETATM   15  O2  UNL     1       5.267   1.859   5.870  1.00  0.00    -0.393 OA
ATOM     16  H2  UNL     1       5.040   1.271   6.581  1.00  0.00     0.210 HD
ENDBRANCH   2  15
BRANCH   6  17
HETATM   17  C12 UNL     1       6.500   5.135   4.013  1.00  0.00    -0.032 A
HETATM   18  C13 UNL     1       7.786   5.675   3.872  1.00  0.00     0.095 A
HETATM   19  N1  UNL     1       8.062   6.712   3.070  1.00  0.00    -0.373 N
HETATM   20  C14 UNL     1       7.126   7.313   2.336  1.00  0.00     0.114 A
ATOM     21  H1  UNL     1       9.022   7.053   3.019  1.00  0.00     0.164 HD
HETATM   22  C15 UNL     1       5.836   6.803   2.451  1.00  0.00     0.062 A
HETATM   23  N2  UNL     1       4.843   7.465   1.652  1.00  0.00    -0.101 NA
HETATM   24  C16 UNL     1       5.536   5.743   3.268  1.00  0.00     0.037 A
ENDBRANCH   6  17
BRANCH   5  25
HETATM   25  O4  UNL     1       5.348   4.387   7.147  1.00  0.00    -0.313 OA
BRANCH  25  26
HETATM   26  C9  UNL     1       4.769   5.525   7.619  1.00  0.00     0.255 C
HETATM   27  C10 UNL     1       4.319   5.803   8.999  1.00  0.00     0.126 C
HETATM   28  O5  UNL     1       4.623   6.401   6.751  1.00  0.00    -0.266 OA
ENDBRANCH  25  26
ENDBRANCH   5  25
BRANCH   4  29
HETATM   29  O3  UNL     1       7.571   3.996   8.400  1.00  0.00    -0.393 OA
ATOM     30  H3  UNL     1       6.702   4.289   8.648  1.00  0.00     0.210 HD
ENDBRANCH   4  29
TORSDOF 9
ENDMDL