MODEL 4
REMARK VINA RESULT: -6.240959256      3.829      7.132
REMARK  11 active torsions:
REMARK  status: ('A' for Active; 'I' for Inactive)
REMARK    1  A    between atoms: C2_2  and  C4_4
REMARK    2  A    between atoms: C5_5  and  C6_6
REMARK    3  A    between atoms: C6_6  and  C9_9
REMARK    4  A    between atoms: C10_10  and  O1_11
REMARK    5  A    between atoms: C11_13  and  C12_14
REMARK    6  A    between atoms: C12_14  and  O2_15
REMARK    7  A    between atoms: C12_14  and  C15_19
REMARK    8  A    between atoms: O2_15  and  C13_16
REMARK    9  A    between atoms: C15_19  and  O4_21
REMARK   10  A    between atoms: C17_25  and  C18_26
REMARK   11  A    between atoms: C18_26  and  O7_29
ROOT
HETATM    1  C9  UNL     1       9.968  -0.155   1.600  1.00  0.00     0.064 C
HETATM    2  C10 UNL     1       8.984   0.959   2.030  1.00  0.00     0.160 C
HETATM    3  C11 UNL     1       8.510   0.766   3.446  1.00  0.00     0.221 C
HETATM    4  O5  UNL     1       9.413   0.215   4.304  1.00  0.00    -0.230 OA
HETATM    5  O6  UNL     1      10.126  -0.769   3.888  1.00  0.00    -0.231 OA
HETATM    6  C17 UNL     1       9.787  -1.203   2.603  1.00  0.00     0.201 C
ENDROOT
BRANCH   3   7
HETATM    7  C12 UNL     1       8.161   2.138   3.991  1.00  0.00     0.194 C
BRANCH   7   8
HETATM    8  O2  UNL     1       8.173   2.115   5.405  1.00  0.00    -0.311 OA
BRANCH   8   9
HETATM    9  C13 UNL     1       7.094   2.419   6.205  1.00  0.00     0.255 C
HETATM   10  C14 UNL     1       7.087   3.590   7.136  1.00  0.00     0.126 C
HETATM   11  O3  UNL     1       6.074   1.684   6.154  1.00  0.00    -0.266 OA
ENDBRANCH   8   9
ENDBRANCH   7   8
BRANCH   7  12
HETATM   12  C15 UNL     1       9.105   3.200   3.494  1.00  0.00     0.146 C
HETATM   13  C16 UNL     1       8.493   4.564   3.428  1.00  0.00     0.042 C
BRANCH  12  14
HETATM   14  O4  UNL     1      10.249   3.276   4.287  1.00  0.00    -0.393 OA
ATOM     15  H4  UNL     1      10.032   3.251   5.212  1.00  0.00     0.210 HD
ENDBRANCH  12  14
ENDBRANCH   7  12
ENDBRANCH   3   7
BRANCH   2  16
HETATM   16  O1  UNL     1       7.850   0.968   1.212  1.00  0.00    -0.392 OA
ATOM     17  H1  UNL     1       7.316   0.198   1.363  1.00  0.00     0.210 HD
ENDBRANCH   2  16
BRANCH   1  18
HETATM   18  C6  UNL     1      11.259   0.511   1.358  1.00  0.00    -0.021 C
HETATM   19  C7  UNL     1      11.200   1.819   0.629  1.00  0.00     0.019 C
HETATM   20  C8  UNL     1      12.093   0.743   2.627  1.00  0.00     0.019 C
BRANCH  18  21
HETATM   21  C5  UNL     1      12.099  -0.402   0.547  1.00  0.00    -0.017 C
HETATM   22  C4  UNL     1      13.058   0.049  -0.228  1.00  0.00     0.002 C
BRANCH  22  23
HETATM   23  C2  UNL     1      13.872  -0.854  -1.016  1.00  0.00    -0.072 C
HETATM   24  C1  UNL     1      13.556  -2.121  -1.110  1.00  0.00     0.018 C
HETATM   25  C3  UNL     1      15.068  -0.352  -1.721  1.00  0.00     0.047 C
ENDBRANCH  22  23
ENDBRANCH  18  21
ENDBRANCH   1  18
BRANCH   6  26
HETATM   26  C18 UNL     1      10.165  -2.609   2.337  1.00  0.00     0.080 C
HETATM   27  C19 UNL     1       9.130  -3.463   3.109  1.00  0.00     0.048 C
HETATM   28  C20 UNL     1       9.865  -2.941   0.869  1.00  0.00     0.048 C
BRANCH  26  29
HETATM   29  O7  UNL     1      11.364  -3.068   2.763  1.00  0.00    -0.388 OA
ATOM     30  H7  UNL     1      11.501  -4.003   2.855  1.00  0.00     0.210 HD
ENDBRANCH  26  29
ENDBRANCH   6  26
TORSDOF 11
ENDMDL