MODEL 1
REMARK VINA RESULT: -8.164894829      0.000      0.000
REMARK  9 active torsions:
REMARK  status: ('A' for Active; 'I' for Inactive)
REMARK    1  A    between atoms: O1_1  and  C1_3
REMARK    2  A    between atoms: N1_6  and  C4_7
REMARK    3  A    between atoms: C7_10  and  C8_11
REMARK    4  A    between atoms: C8_11  and  O2_12
REMARK    5  A    between atoms: C8_11  and  C9_14
REMARK    6  A    between atoms: C8_11  and  C14_24
REMARK    7  A    between atoms: C10_19  and  C11_20
REMARK    8  A    between atoms: C14_24  and  O4_25
REMARK    9  A    between atoms: C14_24  and  C15_27
ROOT
HETATM    1  C8  UNL     1       7.084   2.272   5.173  1.00  0.00     0.177 C
ENDROOT
BRANCH   1   2
HETATM    2  C7  UNL     1       6.852   3.681   4.802  1.00  0.00    -0.013 A
HETATM    3  C6  UNL     1       7.719   4.374   3.992  1.00  0.00     0.013 A
HETATM    4  C5  UNL     1       7.426   5.690   3.696  1.00  0.00     0.030 A
HETATM    5  C4  UNL     1       6.302   6.345   4.173  1.00  0.00     0.030 A
HETATM    6  C19 UNL     1       5.451   5.639   4.977  1.00  0.00     0.030 A
HETATM    7  C18 UNL     1       5.734   4.328   5.279  1.00  0.00     0.013 A
BRANCH   5   8
HETATM    8  N1  UNL     1       6.003   7.687   3.849  1.00  0.00    -0.381 N
HETATM    9  C3  UNL     1       6.979   8.592   3.287  1.00  0.00     0.125 C
HETATM   10  C2  UNL     1       6.483   9.243   2.013  1.00  0.00     0.051 C
HETATM   11  C1  UNL     1       5.048   9.643   2.047  1.00  0.00     0.121 C
HETATM   12  C21 UNL     1       4.145   8.600   2.699  1.00  0.00     0.051 C
HETATM   13  C20 UNL     1       4.689   8.251   4.077  1.00  0.00     0.125 C
BRANCH  11  14
HETATM   14  O1  UNL     1       4.605   9.756   0.713  1.00  0.00    -0.395 OA
ATOM     15  H1  UNL     1       3.889   9.142   0.595  1.00  0.00     0.210 HD
ENDBRANCH  11  14
ENDBRANCH   5   8
ENDBRANCH   1   2
BRANCH   1  16
HETATM   16  O2  UNL     1       5.851   1.658   5.352  1.00  0.00    -0.374 OA
ATOM     17  H2  UNL     1       5.386   1.672   4.524  1.00  0.00     0.211 HD
ENDBRANCH   1  16
BRANCH   1  18
HETATM   18  C9  UNL     1       7.723   1.526   4.022  1.00  0.00     0.182 A
HETATM   19  N2  UNL     1       7.303   1.416   2.755  1.00  0.00    -0.279 N
HETATM   20  N3  UNL     1       8.134   0.681   2.047  1.00  0.00    -0.281 N
ATOM     21  H2  UNL     1       6.453   1.844   2.389  1.00  0.00     0.189 HD
HETATM   22  C10 UNL     1       9.116   0.316   2.904  1.00  0.00     0.144 A
ATOM     23  H3  UNL     1       8.054   0.437   1.059  1.00  0.00     0.189 HD
HETATM   24  O3  UNL     1       8.849   0.829   4.065  1.00  0.00    -0.278 OA
BRANCH  22  25
HETATM   25  C11 UNL     1      10.266  -0.537   2.471  1.00  0.00     0.062 A
HETATM   26  C12 UNL     1      10.075  -1.511   1.354  1.00  0.00     0.013 A
HETATM   27  C13 UNL     1      10.168  -2.014   2.756  1.00  0.00     0.013 A
ENDBRANCH  22  25
ENDBRANCH   1  18
BRANCH   1  28
HETATM   28  C14 UNL     1       7.867   2.101   6.424  1.00  0.00     0.169 C
BRANCH  28  29
HETATM   29  O4  UNL     1       8.903   3.013   6.570  1.00  0.00    -0.391 OA
ATOM     30  H4  UNL     1       9.179   3.143   7.470  1.00  0.00     0.210 HD
ENDBRANCH  28  29
BRANCH  28  31
HETATM   31  C15 UNL     1       7.002   2.098   7.652  1.00  0.00     0.018 A
HETATM   32  C16 UNL     1       7.634   1.788   8.962  1.00  0.00     0.008 A
HETATM   33  C17 UNL     1       7.045   3.130   8.689  1.00  0.00     0.008 A
ENDBRANCH  28  31
ENDBRANCH   1  28
TORSDOF 9
ENDMDL