MODEL 3
REMARK VINA RESULT: -7.508884115      0.914      1.221
REMARK  10 active torsions:
REMARK  status: ('A' for Active; 'I' for Inactive)
REMARK    1  A    between atoms: N1_1  and  C1_4
REMARK    2  A    between atoms: C1_4  and  N2_5
REMARK    3  A    between atoms: C1_4  and  O1_12
REMARK    4  A    between atoms: N2_5  and  C2_7
REMARK    5  A    between atoms: O1_12  and  C7_13
REMARK    6  A    between atoms: N3_15  and  C9_16
REMARK    7  A    between atoms: C11_22  and  N6_23
REMARK    8  A    between atoms: C12_26  and  O2_27
REMARK    9  A    between atoms: O2_27  and  C13_28
REMARK   10  A    between atoms: C13_28  and  C14_29
ROOT
HETATM    1  C9  UNL     1       7.606   2.667   5.726  1.00  0.00     0.142 A
HETATM    2  N4  UNL     1       8.173   2.070   6.834  1.00  0.00    -0.336 N
ATOM      3  H4  UNL     1       8.913   1.384   6.689  1.00  0.00     0.168 HD
HETATM    4  C10 UNL     1       7.802   2.344   8.078  1.00  0.00     0.183 A
HETATM    5  N5  UNL     1       6.836   3.241   8.253  1.00  0.00    -0.337 N
ATOM      6  H5  UNL     1       6.554   3.451   9.211  1.00  0.00     0.168 HD
HETATM    7  C11 UNL     1       6.203   3.891   7.260  1.00  0.00     0.137 A
HETATM    8  C12 UNL     1       6.616   3.577   5.940  1.00  0.00     0.157 A
ENDROOT
BRANCH   1   9
HETATM    9  N3  UNL     1       8.147   2.370   4.461  1.00  0.00    -0.360 N
HETATM   10  C8  UNL     1       9.372   3.023   3.879  1.00  0.00     0.159 C
HETATM   11  C7  UNL     1       9.616   1.639   3.250  1.00  0.00     0.168 C
HETATM   12  C18 UNL     1       8.119   1.617   3.246  1.00  0.00     0.159 C
BRANCH  11  13
HETATM   13  O1  UNL     1      10.290   1.766   2.038  1.00  0.00    -0.314 OA
BRANCH  13  14
HETATM   14  C1  UNL     1      11.469   1.026   1.880  1.00  0.00     0.213 C
BRANCH  14  15
HETATM   15  N1  UNL     1      12.510   1.468   2.492  1.00  0.00    -0.365 N
ATOM     16  H12 UNL     1      12.937   0.842   3.174  1.00  0.00     0.159 HD
ATOM     17  H11 UNL     1      12.854   2.402   2.272  1.00  0.00     0.159 HD
ENDBRANCH  14  15
BRANCH  14  18
HETATM   18  N2  UNL     1      11.577  -0.147   1.108  1.00  0.00    -0.352 N
ATOM     19  H2  UNL     1      11.785  -0.034   0.116  1.00  0.00     0.163 HD
BRANCH  18  20
HETATM   20  C2  UNL     1      11.418  -1.488   1.597  1.00  0.00     0.085 C
HETATM   21  C3  UNL     1      10.093  -1.753   2.245  1.00  0.00     0.025 C
HETATM   22  C4  UNL     1       9.982  -3.257   2.240  1.00  0.00     0.002 C
HETATM   23  C5  UNL     1      10.949  -3.777   1.230  1.00  0.00     0.002 C
HETATM   24  C6  UNL     1      11.615  -2.566   0.583  1.00  0.00     0.025 C
ENDBRANCH  18  20
ENDBRANCH  14  18
ENDBRANCH  13  14
ENDBRANCH  11  13
ENDBRANCH   1   9
BRANCH   8  25
HETATM   25  O2  UNL     1       5.958   4.225   4.955  1.00  0.00    -0.342 OA
BRANCH  25  26
HETATM   26  C13 UNL     1       6.303   5.165   4.018  1.00  0.00     0.207 C
BRANCH  26  27
HETATM   27  C14 UNL     1       6.175   6.631   4.316  1.00  0.00     0.145 C
HETATM   28  C15 UNL     1       6.191   7.526   3.135  1.00  0.00     0.036 C
HETATM   29  C16 UNL     1       4.733   7.934   2.940  1.00  0.00     0.029 C
HETATM   30  C17 UNL     1       4.261   7.835   4.375  1.00  0.00     0.168 C
HETATM   31  O3  UNL     1       4.926   6.787   4.940  1.00  0.00    -0.384 OA
ENDBRANCH  26  27
ENDBRANCH  25  26
ENDBRANCH   8  25
BRANCH   7  32
HETATM   32  N6  UNL     1       5.290   4.760   7.496  1.00  0.00    -0.383 N
ATOM     33  H62 UNL     1       5.508   5.747   7.630  1.00  0.00     0.157 HD
ATOM     34  H61 UNL     1       4.307   4.498   7.575  1.00  0.00     0.157 HD
ENDBRANCH   7  32
TORSDOF 10
ENDMDL