MODEL 4
REMARK VINA RESULT: -8.363045047      2.115      3.498
REMARK  9 active torsions:
REMARK  status: ('A' for Active; 'I' for Inactive)
REMARK    1  A    between atoms: C11_11  and  O1_12
REMARK    2  A    between atoms: C11_11  and  C12_14
REMARK    3  A    between atoms: C12_14  and  N1_15
REMARK    4  A    between atoms: N1_15  and  C13_16
REMARK    5  A    between atoms: N1_15  and  S1_20
REMARK    6  A    between atoms: C13_16  and  C14_17
REMARK    7  A    between atoms: C14_17  and  O2_18
REMARK    8  A    between atoms: S1_20  and  C15_21
REMARK    9  A    between atoms: C15_21  and  C16_22
ROOT
HETATM    1  C1  UNL     1       9.464  -3.911   2.370  1.00  0.00     0.014 C
HETATM    2  C2  UNL     1      10.094  -3.061   1.585  1.00  0.00    -0.085 C
HETATM    3  C3  UNL     1      10.893  -3.546   0.431  1.00  0.00     0.034 C
HETATM    4  C4  UNL     1      12.168  -2.804   0.213  1.00  0.00     0.005 C
HETATM    5  C5  UNL     1      12.059  -1.318   0.441  1.00  0.00     0.009 C
HETATM    6  C6  UNL     1      11.467  -1.091   1.780  1.00  0.00     0.032 C
HETATM    7  C7  UNL     1      10.026  -1.628   1.823  1.00  0.00     0.022 C
HETATM    8  C8  UNL     1       9.647  -1.207   3.210  1.00  0.00     0.024 C
HETATM    9  C9  UNL     1      10.253   0.200   3.303  1.00  0.00     0.086 C
HETATM   10  C10 UNL     1       9.227   1.229   3.028  1.00  0.00     0.122 C
HETATM   11  C11 UNL     1       8.470   1.837   3.920  1.00  0.00     0.094 C
HETATM   12  O4  UNL     1       9.261   1.388   1.649  1.00  0.00    -0.198 OA
HETATM   13  O5  UNL     1      10.337   0.857   1.112  1.00  0.00    -0.223 OA
HETATM   14  C17 UNL     1      11.157   0.357   2.098  1.00  0.00     0.107 C
HETATM   15  C18 UNL     1      12.370   1.174   2.367  1.00  0.00     0.050 C
ENDROOT
BRANCH  11  16
HETATM   16  O1  UNL     1       8.630   1.498   5.249  1.00  0.00    -0.361 OA
ATOM     17  H1  UNL     1       7.861   1.497   5.806  1.00  0.00     0.217 HD
ENDBRANCH  11  16
BRANCH  11  18
HETATM   18  C12 UNL     1       7.473   2.849   3.554  1.00  0.00     0.197 C
BRANCH  18  19
HETATM   19  N1  UNL     1       7.674   4.156   4.068  1.00  0.00    -0.348 N
BRANCH  19  20
HETATM   20  C13 UNL     1       8.425   5.062   3.271  1.00  0.00     0.157 C
BRANCH  20  21
HETATM   21  C14 UNL     1       7.887   6.470   3.568  1.00  0.00     0.184 C
BRANCH  21  22
HETATM   22  O2  UNL     1       8.912   7.415   3.516  1.00  0.00    -0.399 OA
ATOM     23  H2  UNL     1       8.593   8.274   3.766  1.00  0.00     0.209 HD
ENDBRANCH  21  22
ENDBRANCH  20  21
ENDBRANCH  19  20
BRANCH  19  24
HETATM   24  S1  UNL     1       6.302   4.851   4.890  1.00  0.00    -0.049 SA
BRANCH  24  25
HETATM   25  C15 UNL     1       6.140   4.138   6.548  1.00  0.00     0.196 C
BRANCH  25  26
HETATM   26  C16 UNL     1       5.431   2.852   6.538  1.00  0.00     0.242 C
HETATM   27  N2  UNL     1       6.120   1.655   6.851  1.00  0.00    -0.061 NA
HETATM   28  O3  UNL     1       4.213   2.784   6.258  1.00  0.00    -0.276 OA
ENDBRANCH  25  26
ENDBRANCH  24  25
ENDBRANCH  19  24
ENDBRANCH  18  19
ENDBRANCH  11  18
TORSDOF 9
ENDMDL