MODEL 3
REMARK VINA RESULT: -4.762439998      2.115      2.531
REMARK  2 active torsions:
REMARK  status: ('A' for Active; 'I' for Inactive)
REMARK    1  A    between atoms: N1_1  and  C1_4
REMARK    2  A    between atoms: C2_7  and  N3_8
ROOT
HETATM    1  C1  UNL     1     -22.091 -37.559  25.158  1.00  0.00     0.694 A
HETATM    2  N2  UNL     1     -21.007 -38.313  24.872  1.00  0.00    -0.021 N
ATOM      3  H2  UNL     1     -20.650 -38.312  23.917  1.00  0.00     0.203 HD
HETATM    4  C2  UNL     1     -20.379 -39.066  25.793  1.00  0.00     0.715 A
HETATM    5  N6  UNL     1     -20.896 -39.031  27.045  1.00  0.00    -0.139 N
ATOM      6  H6  UNL     1     -20.454 -39.586  27.777  1.00  0.00     0.189 HD
HETATM    7  C5  UNL     1     -21.978 -38.284  27.353  1.00  0.00     0.352 A
HETATM    8  O1  UNL     1     -22.454 -38.256  28.520  1.00  0.00    -0.246 OA
HETATM    9  N7  UNL     1     -22.584 -37.543  26.410  1.00  0.00    -0.141 N
ATOM     10  H7  UNL     1     -23.401 -36.978  26.638  1.00  0.00     0.189 HD
ENDROOT
BRANCH   4  11
HETATM   11  N3  UNL     1     -19.240 -39.853  25.470  1.00  0.00    -0.109 N
HETATM   12  C3  UNL     1     -18.853 -41.082  26.133  1.00  0.00     0.182 C
HETATM   13  C4  UNL     1     -17.437 -41.268  25.633  1.00  0.00     0.154 C
HETATM   14  N4  UNL     1     -17.457 -40.605  24.364  1.00  0.00    -0.124 NA
HETATM   15  N5  UNL     1     -18.336 -39.550  24.471  1.00  0.00    -0.014 NA
ENDBRANCH   4  11
BRANCH   1  16
HETATM   16  N1  UNL     1     -22.670 -36.848  24.249  1.00  0.00    -0.234 N
ATOM     17  H12 UNL     1     -23.523 -37.200  23.815  1.00  0.00     0.174 HD
ATOM     18  H11 UNL     1     -22.288 -35.946  23.962  1.00  0.00     0.174 HD
ENDBRANCH   1  16
TORSDOF 2
ENDMDL