MODEL 1
REMARK VINA RESULT: -5.090115316      0.000      0.000
REMARK  2 active torsions:
REMARK  status: ('A' for Active; 'I' for Inactive)
REMARK    1  A    between atoms: C4_6  and  N3_7
REMARK    2  A    between atoms: C5_12  and  N5_13
REMARK       I    between atoms: N5_13  and  C6_15
REMARK       I    between atoms: C6_15  and  N6_16
REMARK       I    between atoms: C6_15  and  N7_20
ROOT
HETATM    1  C1  UNL     1     -18.912 -40.756  26.156  1.00  0.00     0.175 C
HETATM    2  N1  UNL     1     -19.887 -39.798  25.649  1.00  0.00    -0.196 N
HETATM    3  C2  UNL     1     -20.532 -40.135  24.509  1.00  0.00     0.139 A
HETATM    4  C3  UNL     1     -21.470 -39.264  23.980  1.00  0.00     0.106 A
HETATM    5  N2  UNL     1     -22.149 -39.611  22.788  1.00  0.00    -0.097 NA
HETATM    6  C4  UNL     1     -21.726 -38.091  24.612  1.00  0.00     0.140 A
HETATM    7  N4  UNL     1     -21.046 -37.809  25.753  1.00  0.00    -0.175 N
ATOM      8  H4  UNL     1     -21.235 -36.928  26.232  1.00  0.00     0.186 HD
HETATM    9  C5  UNL     1     -20.138 -38.641  26.273  1.00  0.00     0.684 A
ENDROOT
BRANCH   9  10
HETATM   10  N5  UNL     1     -19.521 -38.354  27.333  1.00  0.00    -0.173 N
HETATM   11  C6  UNL     1     -19.957 -38.626  28.675  1.00  0.00     0.494 C
HETATM   12  N6  UNL     1     -21.123 -37.823  29.037  1.00  0.00    -0.032 N
HETATM   13  N7  UNL     1     -18.881 -38.144  29.559  1.00  0.00    -0.032 N
ATOM     14  H63 UNL     1     -20.947 -36.828  28.897  1.00  0.00     0.278 HD
ATOM     15  H62 UNL     1     -21.882 -37.946  28.366  1.00  0.00     0.278 HD
ATOM     16  H61 UNL     1     -21.432 -38.016  29.989  1.00  0.00     0.278 HD
ATOM     17  H73 UNL     1     -17.967 -38.540  29.340  1.00  0.00     0.278 HD
ATOM     18  H72 UNL     1     -18.634 -37.167  29.402  1.00  0.00     0.278 HD
ATOM     19  H71 UNL     1     -19.191 -38.337  30.511  1.00  0.00     0.278 HD
ATOM     20  H5  UNL     1     -18.623 -37.881  27.229  1.00  0.00     0.181 HD
ENDBRANCH   9  10
BRANCH   6  21
HETATM   21  N3  UNL     1     -22.603 -37.288  24.107  1.00  0.00    -0.383 N
ATOM     22  H32 UNL     1     -22.750 -37.196  23.103  1.00  0.00     0.157 HD
ATOM     23  H31 UNL     1     -23.173 -36.722  24.736  1.00  0.00     0.157 HD
ENDBRANCH   6  21
TORSDOF 2
ENDMDL