MODEL 2
REMARK VINA RESULT: -4.611269146      2.190      2.778
REMARK  4 active torsions:
REMARK  status: ('A' for Active; 'I' for Inactive)
REMARK    1  A    between atoms: N1_1  and  C1_4
REMARK    2  A    between atoms: C2_7  and  O1_8
REMARK    3  A    between atoms: O1_8  and  C3_9
REMARK       I    between atoms: C3_9  and  N3_11
REMARK    4  A    between atoms: N3_11  and  N4_13
ROOT
HETATM    1  C1  UNL     1     -24.474 -38.806  27.036  1.00  0.00     0.683 A
HETATM    2  N2  UNL     1     -23.543 -39.044  27.976  1.00  0.00    -0.154 N
ATOM      3  H2  UNL     1     -23.781 -39.654  28.758  1.00  0.00     0.188 HD
HETATM    4  C2  UNL     1     -22.307 -38.508  27.923  1.00  0.00     0.251 A
HETATM    5  N5  UNL     1     -22.050 -37.712  26.867  1.00  0.00    -0.273 N
ATOM      6  H5  UNL     1     -21.127 -37.283  26.781  1.00  0.00     0.174 HD
HETATM    7  C4  UNL     1     -22.980 -37.467  25.918  1.00  0.00     0.341 A
HETATM    8  O3  UNL     1     -22.709 -36.707  24.926  1.00  0.00    -0.246 OA
HETATM    9  N6  UNL     1     -24.208 -38.009  25.986  1.00  0.00    -0.141 N
ATOM     10  H6  UNL     1     -24.910 -37.823  25.269  1.00  0.00     0.189 HD
ENDROOT
BRANCH   4  11
HETATM   11  O1  UNL     1     -21.349 -38.760  28.898  1.00  0.00    -0.226 OA
BRANCH  11  12
HETATM   12  C3  UNL     1     -20.691 -37.790  29.603  1.00  0.00     0.386 C
HETATM   13  O2  UNL     1     -21.305 -37.187  30.517  1.00  0.00    -0.236 OA
HETATM   14  N3  UNL     1     -19.337 -37.494  29.283  1.00  0.00    -0.252 N
ATOM     15  H3  UNL     1     -18.852 -37.994  28.538  1.00  0.00     0.191 HD
BRANCH  14  16
HETATM   16  N4  UNL     1     -18.689 -36.495  30.022  1.00  0.00    -0.341 N
ATOM     17  H42 UNL     1     -18.572 -36.600  31.030  1.00  0.00     0.177 HD
ATOM     18  H41 UNL     1     -18.345 -35.676  29.522  1.00  0.00     0.177 HD
ENDBRANCH  14  16
ENDBRANCH  11  12
ENDBRANCH   4  11
BRANCH   1  19
HETATM   19  N1  UNL     1     -25.671 -39.326  27.090  1.00  0.00    -0.234 N
ATOM     20  H12 UNL     1     -25.814 -40.205  26.592  1.00  0.00     0.174 HD
ATOM     21  H11 UNL     1     -26.436 -38.884  27.602  1.00  0.00     0.174 HD
ENDBRANCH   1  19
TORSDOF 4
ENDMDL