MODEL 2
REMARK VINA RESULT: -4.891643379      2.353      3.065
REMARK  3 active torsions:
REMARK  status: ('A' for Active; 'I' for Inactive)
REMARK       I    between atoms: C1_4  and  N2_5
REMARK       I    between atoms: C1_4  and  N6_16
REMARK    1  A    between atoms: N2_5  and  C2_7
REMARK    2  A    between atoms: N4_11  and  O1_12
REMARK    3  A    between atoms: N6_16  and  N7_18
ROOT
HETATM    1  N1  UNL     1     -19.909 -38.435  28.058  1.00  0.00    -0.233 N
ATOM      2  H11 UNL     1     -18.982 -38.140  28.365  1.00  0.00     0.174 HD
ATOM      3  H12 UNL     1     -19.991 -39.002  27.215  1.00  0.00     0.174 HD
HETATM    4  C1  UNL     1     -20.911 -38.060  28.775  1.00  0.00     0.698 C
HETATM    5  N2  UNL     1     -22.200 -38.471  28.348  1.00  0.00    -0.159 N
ATOM      6  H2  UNL     1     -22.894 -38.851  28.993  1.00  0.00     0.187 HD
HETATM    7  N6  UNL     1     -20.797 -37.271  29.949  1.00  0.00    -0.072 N
ATOM      8  H6  UNL     1     -20.530 -36.288  29.889  1.00  0.00     0.212 HD
ENDROOT
BRANCH   5   9
HETATM    9  C2  UNL     1     -22.461 -38.311  26.928  1.00  0.00     0.207 C
HETATM   10  N3  UNL     1     -22.667 -39.258  26.113  1.00  0.00    -0.345 N
HETATM   11  C3  UNL     1     -22.887 -38.734  24.803  1.00  0.00     0.269 C
ATOM     12  H3  UNL     1     -22.675 -40.248  26.356  1.00  0.00     0.164 HD
HETATM   13  N4  UNL     1     -23.220 -37.356  25.031  1.00  0.00    -0.087 NA
HETATM   14  N5  UNL     1     -22.527 -37.078  26.240  1.00  0.00    -0.265 N
ATOM     15  H5  UNL     1     -22.156 -36.178  26.548  1.00  0.00     0.186 HD
BRANCH  13  16
HETATM   16  O1  UNL     1     -22.687 -36.585  24.037  1.00  0.00    -0.292 OA
ATOM     17  H1  UNL     1     -22.093 -37.108  23.513  1.00  0.00     0.239 HD
ENDBRANCH  13  16
ENDBRANCH   5   9
BRANCH   7  18
HETATM   18  N7  UNL     1     -21.054 -37.857  31.177  1.00  0.00    -0.024 N
HETATM   19  O2  UNL     1     -21.939 -37.348  31.905  1.00  0.00    -0.516 OA
HETATM   20  O3  UNL     1     -20.373 -38.956  31.601  1.00  0.00    -0.516 OA
ENDBRANCH   7  18
TORSDOF 3
ENDMDL