MODEL 2
REMARK VINA RESULT: -4.570838139      3.657      7.619
REMARK  3 active torsions:
REMARK  status: ('A' for Active; 'I' for Inactive)
REMARK    1  A    between atoms: C3_5  and  N2_6
REMARK    2  A    between atoms: C4_11  and  N4_12
REMARK       I    between atoms: N4_12  and  C5_14
REMARK       I    between atoms: C5_14  and  N5_15
REMARK       I    between atoms: C5_14  and  N6_19
REMARK    3  A    between atoms: N7_23  and  N8_24
ROOT
HETATM    1  C1  UNL     1     -20.396 -34.387  33.160  1.00  0.00     0.092 C
HETATM    2  C2  UNL     1     -19.495 -35.446  32.606  1.00  0.00     0.133 A
HETATM    3  N1  UNL     1     -18.499 -35.979  33.328  1.00  0.00    -0.178 N
ATOM      4  H1  UNL     1     -18.332 -35.670  34.286  1.00  0.00     0.185 HD
HETATM    5  C3  UNL     1     -17.722 -36.927  32.774  1.00  0.00     0.691 A
HETATM    6  N3  UNL     1     -17.938 -37.338  31.514  1.00  0.00    -0.021 N
ATOM      7  H3  UNL     1     -17.337 -38.059  31.114  1.00  0.00     0.203 HD
HETATM    8  C4  UNL     1     -18.951 -36.809  30.752  1.00  0.00     0.718 A
HETATM    9  N7  UNL     1     -19.688 -35.886  31.325  1.00  0.00    -0.080 N
ENDROOT
BRANCH   8  10
HETATM   10  N4  UNL     1     -19.076 -37.244  29.608  1.00  0.00    -0.171 N
HETATM   11  C5  UNL     1     -19.329 -38.457  28.966  1.00  0.00     0.494 C
HETATM   12  N5  UNL     1     -18.057 -39.196  28.868  1.00  0.00    -0.032 N
HETATM   13  N6  UNL     1     -19.711 -38.268  27.544  1.00  0.00    -0.032 N
ATOM     14  H53 UNL     1     -17.321 -38.655  28.414  1.00  0.00     0.278 HD
ATOM     15  H52 UNL     1     -17.601 -39.316  29.772  1.00  0.00     0.278 HD
ATOM     16  H51 UNL     1     -18.242 -40.082  28.399  1.00  0.00     0.278 HD
ATOM     17  H63 UNL     1     -20.503 -37.631  27.455  1.00  0.00     0.278 HD
ATOM     18  H62 UNL     1     -19.009 -37.724  27.042  1.00  0.00     0.278 HD
ATOM     19  H61 UNL     1     -19.895 -39.154  27.075  1.00  0.00     0.278 HD
ATOM     20  H4  UNL     1     -18.961 -36.495  28.926  1.00  0.00     0.181 HD
ENDBRANCH   8  10
BRANCH   9  21
HETATM   21  N8  UNL     1     -20.736 -35.302  30.612  1.00  0.00    -0.323 N
ATOM     22  H82 UNL     1     -21.564 -34.978  31.111  1.00  0.00     0.178 HD
ATOM     23  H81 UNL     1     -20.618 -35.228  29.602  1.00  0.00     0.178 HD
ENDBRANCH   9  21
BRANCH   5  24
HETATM   24  N2  UNL     1     -16.778 -37.405  33.516  1.00  0.00    -0.234 N
ATOM     25  H22 UNL     1     -16.909 -38.208  34.131  1.00  0.00     0.174 HD
ATOM     26  H21 UNL     1     -15.874 -36.935  33.460  1.00  0.00     0.174 HD
ENDBRANCH   5  24
TORSDOF 3
ENDMDL