MODEL 3
REMARK VINA RESULT: -4.806102854      1.617      5.190
REMARK  4 active torsions:
REMARK  status: ('A' for Active; 'I' for Inactive)
REMARK    1  A    between atoms: N1_1  and  N2_4
REMARK       I    between atoms: N2_4  and  C1_5
REMARK    2  A    between atoms: C1_5  and  C2_7
REMARK    3  A    between atoms: C5_13  and  N4_14
REMARK    4  A    between atoms: N4_14  and  N5_16
ROOT
HETATM    1  C2  UNL     1     -20.514 -38.575  26.936  1.00  0.00     0.134 A
HETATM    2  C3  UNL     1     -21.724 -38.746  27.552  1.00  0.00     0.128 A
HETATM    3  N3  UNL     1     -21.832 -38.780  28.909  1.00  0.00    -0.328 N
ATOM      4  H3  UNL     1     -22.743 -38.907  29.353  1.00  0.00     0.168 HD
HETATM    5  C4  UNL     1     -20.727 -38.642  29.655  1.00  0.00     0.290 A
HETATM    6  O2  UNL     1     -20.793 -38.670  30.938  1.00  0.00    -0.264 OA
HETATM    7  C5  UNL     1     -19.510 -38.470  29.060  1.00  0.00     0.189 A
HETATM    8  N6  UNL     1     -19.428 -38.440  27.713  1.00  0.00    -0.330 N
ATOM      9  H6  UNL     1     -18.517 -38.311  27.273  1.00  0.00     0.168 HD
ENDROOT
BRANCH   1  10
HETATM   10  C1  UNL     1     -20.394 -38.549  25.428  1.00  0.00     0.362 C
HETATM   11  N2  UNL     1     -21.346 -38.034  24.663  1.00  0.00    -0.287 NA
HETATM   12  O1  UNL     1     -19.289 -39.074  25.017  1.00  0.00    -0.247 OA
BRANCH  11  13
HETATM   13  N1  UNL     1     -22.314 -37.512  23.883  1.00  0.00    -0.276 N
ATOM     14  H12 UNL     1     -21.550 -37.869  24.458  1.00  0.00     0.191 HD
ATOM     15  H11 UNL     1     -23.048 -37.117  23.294  1.00  0.00     0.191 HD
ENDBRANCH  11  13
ENDBRANCH   1  10
BRANCH   7  16
HETATM   16  N4  UNL     1     -18.341 -38.324  29.873  1.00  0.00    -0.287 N
ATOM     17  H4  UNL     1     -17.703 -39.117  29.951  1.00  0.00     0.188 HD
BRANCH  16  18
HETATM   18  N5  UNL     1     -18.030 -37.152  30.565  1.00  0.00    -0.343 N
ATOM     19  H52 UNL     1     -18.477 -36.291  30.250  1.00  0.00     0.176 HD
ATOM     20  H51 UNL     1     -17.386 -37.122  31.356  1.00  0.00     0.176 HD
ENDBRANCH  16  18
ENDBRANCH   7  16
TORSDOF 4
ENDMDL