MODEL 3
REMARK VINA RESULT: -3.800513950      3.665      6.619
REMARK  5 active torsions:
REMARK  status: ('A' for Active; 'I' for Inactive)
REMARK    1  A    between atoms: C3_4  and  C4_5
REMARK    2  A    between atoms: C4_5  and  N2_6
REMARK    3  A    between atoms: C4_5  and  N3_10
REMARK    4  A    between atoms: N3_10  and  N4_11
REMARK    5  A    between atoms: C5_14  and  N5_15
ROOT
HETATM    1  N5  UNL     1     -19.448 -36.323  30.361  1.00  0.00    -0.278 N
ATOM      2  H5  UNL     1     -18.747 -35.585  30.303  1.00  0.00     0.179 HD
HETATM    3  C6  UNL     1     -20.679 -36.022  30.946  1.00  0.00     0.183 C
HETATM    4  N6  UNL     1     -21.716 -35.766  31.431  1.00  0.00    -0.172 NA
ENDROOT
BRANCH   1   5
HETATM    5  C5  UNL     1     -19.151 -37.483  29.890  1.00  0.00     0.140 A
HETATM    6  C3  UNL     1     -18.557 -38.484  30.624  1.00  0.00     0.052 A
HETATM    7  C2  UNL     1     -18.375 -39.594  29.826  1.00  0.00     0.124 A
HETATM    8  N1  UNL     1     -18.861 -39.256  28.620  1.00  0.00    -0.305 N
HETATM    9  C1  UNL     1     -18.867 -40.142  27.481  1.00  0.00     0.177 C
HETATM   10  N7  UNL     1     -19.322 -37.998  28.661  1.00  0.00    -0.283 N
ATOM     11  H7  UNL     1     -19.742 -37.504  27.874  1.00  0.00     0.189 HD
BRANCH   6  12
HETATM   12  C4  UNL     1     -18.145 -38.448  32.053  1.00  0.00     0.333 C
BRANCH  12  13
HETATM   13  N2  UNL     1     -17.541 -39.733  32.350  1.00  0.00    -0.055 N
ATOM     14  H23 UNL     1     -16.908 -39.704  33.148  1.00  0.00     0.276 HD
ATOM     15  H22 UNL     1     -18.202 -40.409  32.734  1.00  0.00     0.276 HD
ATOM     16  H21 UNL     1     -17.092 -40.054  31.492  1.00  0.00     0.276 HD
ENDBRANCH  12  13
BRANCH  12  17
HETATM   17  N3  UNL     1     -17.168 -37.372  32.180  1.00  0.00    -0.110 NA
BRANCH  17  18
HETATM   18  N4  UNL     1     -15.857 -37.878  32.020  1.00  0.00    -0.346 N
ATOM     19  H42 UNL     1     -15.589 -38.552  31.303  1.00  0.00     0.172 HD
ATOM     20  H41 UNL     1     -15.233 -37.472  32.718  1.00  0.00     0.172 HD
ENDBRANCH  17  18
ENDBRANCH  12  17
ENDBRANCH   6  12
ENDBRANCH   1   5
TORSDOF 5
ENDMDL