MODEL 1
REMARK VINA RESULT: -4.901741357      0.000      0.000
REMARK  4 active torsions:
REMARK  status: ('A' for Active; 'I' for Inactive)
REMARK    1  A    between atoms: N1_1  and  N2_4
REMARK    2  A    between atoms: N2_4  and  C1_6
REMARK    3  A    between atoms: C2_9  and  C3_10
REMARK       I    between atoms: C3_10  and  N4_12
REMARK    4  A    between atoms: N4_12  and  N5_14
ROOT
HETATM    1  C1  UNL     1     -22.020 -37.784  25.338  1.00  0.00     0.192 A
HETATM    2  N3  UNL     1     -20.771 -38.245  25.671  1.00  0.00    -0.317 N
ATOM      3  H3  UNL     1     -20.032 -38.307  24.971  1.00  0.00     0.169 HD
HETATM    4  C2  UNL     1     -20.549 -38.612  26.935  1.00  0.00     0.192 A
HETATM    5  N6  UNL     1     -21.572 -38.509  27.835  1.00  0.00    -0.278 N
ATOM      6  H6  UNL     1     -21.391 -38.790  28.799  1.00  0.00     0.189 HD
HETATM    7  N7  UNL     1     -22.770 -38.070  27.535  1.00  0.00    -0.262 N
ATOM      8  H7  UNL     1     -23.499 -38.014  28.247  1.00  0.00     0.190 HD
HETATM    9  C4  UNL     1     -23.016 -37.696  26.268  1.00  0.00     0.305 A
HETATM   10  O2  UNL     1     -24.148 -37.269  25.935  1.00  0.00    -0.263 OA
ENDROOT
BRANCH   4  11
HETATM   11  C3  UNL     1     -19.246 -39.110  27.354  1.00  0.00     0.304 C
HETATM   12  O1  UNL     1     -18.561 -39.839  26.573  1.00  0.00    -0.263 OA
HETATM   13  N4  UNL     1     -18.734 -38.789  28.622  1.00  0.00    -0.270 N
ATOM     14  H4  UNL     1     -19.263 -38.204  29.270  1.00  0.00     0.189 HD
BRANCH  13  15
HETATM   15  N5  UNL     1     -17.465 -39.299  28.976  1.00  0.00    -0.342 N
ATOM     16  H52 UNL     1     -16.987 -39.950  28.354  1.00  0.00     0.176 HD
ATOM     17  H51 UNL     1     -17.055 -38.997  29.859  1.00  0.00     0.176 HD
ENDBRANCH  13  15
ENDBRANCH   4  11
BRANCH   1  18
HETATM   18  N2  UNL     1     -22.208 -37.439  24.117  1.00  0.00    -0.287 N
ATOM     19  H2  UNL     1     -22.365 -36.454  23.908  1.00  0.00     0.188 HD
BRANCH  18  20
HETATM   20  N1  UNL     1     -22.206 -38.341  23.073  1.00  0.00    -0.343 N
ATOM     21  H12 UNL     1     -22.289 -39.331  23.306  1.00  0.00     0.176 HD
ATOM     22  H11 UNL     1     -22.128 -38.060  22.096  1.00  0.00     0.176 HD
ENDBRANCH  18  20
ENDBRANCH   1  18
TORSDOF 4
ENDMDL