MODEL 5
REMARK VINA RESULT: -4.371350389      1.950      4.153
REMARK  3 active torsions:
REMARK  status: ('A' for Active; 'I' for Inactive)
REMARK    1  A    between atoms: N1_1  and  C1_4
REMARK    2  A    between atoms: C2_7  and  C3_8
REMARK       I    between atoms: C3_8  and  N3_10
REMARK    3  A    between atoms: N3_10  and  N4_12
ROOT
HETATM    1  C1  UNL     1     -20.251 -38.537  26.185  1.00  0.00     0.681 A
HETATM    2  N2  UNL     1     -20.030 -39.496  25.267  1.00  0.00    -0.171 N
ATOM      3  H2  UNL     1     -19.312 -40.194  25.460  1.00  0.00     0.186 HD
HETATM    4  C2  UNL     1     -20.710 -39.580  24.104  1.00  0.00     0.195 A
HETATM    5  N5  UNL     1     -21.666 -38.656  23.836  1.00  0.00    -0.289 N
ATOM      6  H5  UNL     1     -22.197 -38.692  22.966  1.00  0.00     0.172 HD
HETATM    7  C4  UNL     1     -21.896 -37.693  24.746  1.00  0.00     0.340 A
HETATM    8  O2  UNL     1     -22.781 -36.837  24.499  1.00  0.00    -0.246 OA
HETATM    9  N6  UNL     1     -21.203 -37.629  25.903  1.00  0.00    -0.141 N
ATOM     10  H6  UNL     1     -21.404 -36.885  26.572  1.00  0.00     0.189 HD
ENDROOT
BRANCH   4  11
HETATM   11  C3  UNL     1     -20.415 -40.649  23.158  1.00  0.00     0.304 C
HETATM   12  O1  UNL     1     -21.268 -41.011  22.335  1.00  0.00    -0.263 OA
HETATM   13  N3  UNL     1     -19.145 -41.276  23.181  1.00  0.00    -0.270 N
ATOM     14  H3  UNL     1     -18.462 -40.957  23.869  1.00  0.00     0.189 HD
BRANCH  13  15
HETATM   15  N4  UNL     1     -18.778 -42.302  22.318  1.00  0.00    -0.342 N
ATOM     16  H42 UNL     1     -19.524 -42.903  21.965  1.00  0.00     0.176 HD
ATOM     17  H41 UNL     1     -17.816 -42.478  22.026  1.00  0.00     0.176 HD
ENDBRANCH  13  15
ENDBRANCH   4  11
BRANCH   1  18
HETATM   18  N1  UNL     1     -19.581 -38.475  27.303  1.00  0.00    -0.234 N
ATOM     19  H12 UNL     1     -18.571 -38.336  27.298  1.00  0.00     0.174 HD
ATOM     20  H11 UNL     1     -20.031 -38.561  28.215  1.00  0.00     0.174 HD
ENDBRANCH   1  18
TORSDOF 3
ENDMDL