MODEL 1
REMARK VINA RESULT: -4.757649286      0.000      0.000
REMARK  3 active torsions:
REMARK  status: ('A' for Active; 'I' for Inactive)
REMARK    1  A    between atoms: N1_1  and  C1_4
REMARK    2  A    between atoms: C2_7  and  O1_8
REMARK    3  A    between atoms: C3_10  and  C4_11
ROOT
HETATM    1  C1  UNL     1     -23.776 -38.737  23.978  1.00  0.00     0.679 A
HETATM    2  N2  UNL     1     -23.028 -37.635  24.161  1.00  0.00    -0.170 N
ATOM      3  H2  UNL     1     -23.366 -36.725  23.845  1.00  0.00     0.186 HD
HETATM    4  C2  UNL     1     -21.814 -37.743  24.773  1.00  0.00     0.174 A
HETATM    5  C3  UNL     1     -21.331 -38.954  25.212  1.00  0.00     0.122 A
HETATM    6  C5  UNL     1     -22.118 -40.069  25.013  1.00  0.00     0.151 A
HETATM    7  N4  UNL     1     -21.657 -41.327  25.448  1.00  0.00    -0.081 NA
HETATM    8  N5  UNL     1     -23.313 -39.926  24.404  1.00  0.00    -0.178 N
ATOM      9  H5  UNL     1     -23.891 -40.755  24.260  1.00  0.00     0.185 HD
ENDROOT
BRANCH   1  10
HETATM   10  N1  UNL     1     -24.937 -38.665  23.398  1.00  0.00    -0.234 N
ATOM     11  H12 UNL     1     -25.045 -38.116  22.545  1.00  0.00     0.174 HD
ATOM     12  H11 UNL     1     -25.746 -39.153  23.784  1.00  0.00     0.174 HD
ENDBRANCH   1  10
BRANCH   4  13
HETATM   13  O1  UNL     1     -21.015 -36.620  24.977  1.00  0.00    -0.345 OA
ATOM     14  H1  UNL     1     -20.205 -36.504  24.493  1.00  0.00     0.219 HD
ENDBRANCH   4  13
BRANCH   5  15
HETATM   15  C4  UNL     1     -20.028 -39.028  25.861  1.00  0.00     0.272 C
HETATM   16  N3  UNL     1     -18.866 -39.280  25.081  1.00  0.00    -0.057 NA
HETATM   17  O2  UNL     1     -19.865 -38.881  27.090  1.00  0.00    -0.271 OA
ENDBRANCH   5  15
TORSDOF 3
ENDMDL