MODEL 1
REMARK VINA RESULT: -5.928319964      0.000      0.000
REMARK  7 active torsions:
REMARK  status: ('A' for Active; 'I' for Inactive)
REMARK    1  A    between atoms: C4_5  and  C5_6
REMARK    2  A    between atoms: C5_6  and  N1_7
REMARK    3  A    between atoms: C8_11  and  C9_12
REMARK    4  A    between atoms: C9_12  and  O1_13
REMARK    5  A    between atoms: C9_12  and  N2_15
REMARK    6  A    between atoms: C14_20  and  C15_21
REMARK    7  A    between atoms: C15_21  and  C16_22
ROOT
HETATM    1  N1  UNL     1     -14.013   2.655  -6.986  1.00  0.00    -0.306 N
HETATM    2  S2  UNL     1     -14.659   4.137  -7.289  1.00  0.00    -0.014 SA
HETATM    3  C6  UNL     1     -15.112   3.783  -5.674  1.00  0.00     0.027 A
HETATM    4  C7  UNL     1     -15.943   4.637  -4.772  1.00  0.00     0.060 C
HETATM    5  C8  UNL     1     -14.483   2.575  -5.686  1.00  0.00     0.106 A
ENDROOT
BRANCH   5   6
HETATM    6  C9  UNL     1     -14.319   1.448  -4.804  1.00  0.00     0.167 C
BRANCH   6   7
HETATM    7  O1  UNL     1     -15.409   0.803  -4.416  1.00  0.00    -0.344 OA
ATOM      8  H1  UNL     1     -15.767   1.011  -3.562  1.00  0.00     0.219 HD
ENDBRANCH   6   7
BRANCH   6   9
HETATM    9  N2  UNL     1     -13.182   0.853  -4.232  1.00  0.00    -0.355 N
HETATM   10  C10 UNL     1     -11.909   1.489  -4.162  1.00  0.00     0.125 C
HETATM   11  C11 UNL     1     -10.783   0.468  -3.919  1.00  0.00     0.020 C
HETATM   12  C12 UNL     1     -11.132  -0.784  -4.733  1.00  0.00     0.004 C
HETATM   13  C13 UNL     1     -12.231  -1.440  -3.931  1.00  0.00     0.026 C
HETATM   14  C14 UNL     1     -13.314  -0.480  -3.634  1.00  0.00     0.096 C
BRANCH  14  15
HETATM   15  C15 UNL     1     -13.540  -0.366  -2.141  1.00  0.00     0.138 C
BRANCH  15  16
HETATM   16  C16 UNL     1     -14.580  -1.317  -1.699  1.00  0.00     0.174 C
HETATM   17  O2  UNL     1     -14.557  -1.815  -0.545  1.00  0.00    -0.648 OA
HETATM   18  O3  UNL     1     -15.629  -1.692  -2.558  1.00  0.00    -0.648 OA
ENDBRANCH  15  16
ENDBRANCH  14  15
ENDBRANCH   6   9
ENDBRANCH   5   6
BRANCH   1  19
HETATM   19  C5  UNL     1     -13.209   1.806  -7.888  1.00  0.00     0.202 C
BRANCH  19  20
HETATM   20  C4  UNL     1     -14.116   0.677  -8.325  1.00  0.00     0.070 A
HETATM   21  S1  UNL     1     -15.814   0.672  -8.593  1.00  0.00    -0.085 SA
HETATM   22  C3  UNL     1     -15.994  -0.966  -9.053  1.00  0.00     0.076 A
HETATM   23  C2  UNL     1     -14.701  -1.416  -8.967  1.00  0.00     0.012 A
HETATM   24  C1  UNL     1     -14.384  -2.864  -9.297  1.00  0.00     0.068 C
HETATM   25  N3  UNL     1     -13.792  -0.572  -8.603  1.00  0.00    -0.356 N
ATOM     26  H3  UNL     1     -12.821  -0.873  -8.530  1.00  0.00     0.166 HD
ENDBRANCH  19  20
ENDBRANCH   1  19
TORSDOF 7
ENDMDL