MODEL 5
REMARK VINA RESULT: -4.361934196      5.161      7.080
REMARK  9 active torsions:
REMARK  status: ('A' for Active; 'I' for Inactive)
REMARK    1  A    between atoms: C2_2  and  O1_3
REMARK    2  A    between atoms: O1_3  and  C3_4
REMARK    3  A    between atoms: C3_4  and  C4_6
REMARK    4  A    between atoms: C5_7  and  C6_8
REMARK    5  A    between atoms: C6_8  and  O4_10
REMARK    6  A    between atoms: C9_14  and  N1_15
REMARK       I    between atoms: N1_15  and  C10_17
REMARK    7  A    between atoms: C10_17  and  C11_19
REMARK    8  A    between atoms: C11_19  and  S2_20
REMARK    9  A    between atoms: S2_20  and  C12_21
ROOT
HETATM    1  C4  UNL     1     -17.254   0.662  -8.282  1.00  0.00     0.090 A
HETATM    2  C5  UNL     1     -18.617   0.685  -8.416  1.00  0.00     0.065 A
HETATM    3  C8  UNL     1     -19.259   1.766  -7.832  1.00  0.00     0.070 A
HETATM    4  S1  UNL     1     -18.036   2.676  -7.141  1.00  0.00    -0.082 SA
HETATM    5  C9  UNL     1     -16.669   1.676  -7.587  1.00  0.00     0.093 A
ENDROOT
BRANCH   5   6
HETATM    6  N1  UNL     1     -15.399   1.906  -6.984  1.00  0.00    -0.320 N
HETATM    7  C10 UNL     1     -14.949   1.547  -5.756  1.00  0.00     0.231 C
HETATM    8  O5  UNL     1     -15.607   0.957  -4.875  1.00  0.00    -0.272 OA
ATOM      9  H1  UNL     1     -14.729   2.415  -7.560  1.00  0.00     0.169 HD
BRANCH   7  10
HETATM   10  C11 UNL     1     -13.522   1.857  -5.342  1.00  0.00     0.177 C
BRANCH  10  11
HETATM   11  S2  UNL     1     -13.283   1.291  -3.661  1.00  0.00    -0.151 SA
BRANCH  11  12
HETATM   12  C12 UNL     1     -12.017   0.034  -3.506  1.00  0.00    -0.003 C
HETATM   13  C13 UNL     1     -10.666   0.701  -3.676  1.00  0.00     0.026 C
HETATM   14  C14 UNL     1     -12.158  -1.081  -4.518  1.00  0.00     0.026 C
HETATM   15  C15 UNL     1     -12.133  -0.583  -2.118  1.00  0.00     0.026 C
ENDBRANCH  11  12
ENDBRANCH  10  11
ENDBRANCH   7  10
ENDBRANCH   5   6
BRANCH   1  16
HETATM   16  C3  UNL     1     -16.358  -0.216  -9.120  1.00  0.00     0.297 C
HETATM   17  O2  UNL     1     -16.098  -0.058 -10.313  1.00  0.00    -0.259 OA
BRANCH  16  18
HETATM   18  O1  UNL     1     -15.699  -1.332  -8.567  1.00  0.00    -0.318 OA
BRANCH  18  19
HETATM   19  C2  UNL     1     -14.418  -1.732  -8.950  1.00  0.00     0.174 C
HETATM   20  C1  UNL     1     -13.408  -1.059  -8.025  1.00  0.00     0.034 C
ENDBRANCH  18  19
ENDBRANCH  16  18
ENDBRANCH   1  16
BRANCH   2  21
HETATM   21  C6  UNL     1     -19.461  -0.359  -9.067  1.00  0.00     0.294 C
HETATM   22  O3  UNL     1     -20.186  -1.194  -8.534  1.00  0.00    -0.259 OA
BRANCH  21  23
HETATM   23  O4  UNL     1     -19.479  -0.462 -10.481  1.00  0.00    -0.322 OA
HETATM   24  C7  UNL     1     -19.515   0.684 -11.308  1.00  0.00     0.213 C
ENDBRANCH  21  23
ENDBRANCH   2  21
TORSDOF 9
ENDMDL