MODEL 5
REMARK VINA RESULT: -6.684421374      1.840      3.715
REMARK  7 active torsions:
REMARK  status: ('A' for Active; 'I' for Inactive)
REMARK    1  A    between atoms: C2_2  and  C3_3
REMARK    2  A    between atoms: C3_3  and  N1_5
REMARK       I    between atoms: N1_5  and  C5_6
REMARK    3  A    between atoms: C5_6  and  O2_8
REMARK    4  A    between atoms: O2_8  and  C6_9
REMARK    5  A    between atoms: C6_9  and  S1_10
REMARK    6  A    between atoms: S1_10  and  C7_11
REMARK    7  A    between atoms: N3_18  and  C11_19
ROOT
HETATM    1  C7  UNL     1     -12.611   0.192  -4.897  1.00  0.00     0.151 A
HETATM    2  N2  UNL     1     -11.794  -0.245  -5.871  1.00  0.00    -0.339 N
ATOM      3  H2  UNL     1     -10.946  -0.737  -5.588  1.00  0.00     0.168 HD
HETATM    4  C8  UNL     1     -12.007  -0.084  -7.199  1.00  0.00     0.034 A
HETATM    5  C9  UNL     1     -13.155   0.579  -7.536  1.00  0.00     0.091 A
HETATM    6  C10 UNL     1     -14.010   1.039  -6.582  1.00  0.00     0.268 A
HETATM    7  O3  UNL     1     -15.070   1.652  -6.863  1.00  0.00    -0.266 OA
HETATM    8  N3  UNL     1     -13.730   0.842  -5.248  1.00  0.00    -0.294 N
HETATM    9  S2  UNL     1     -13.206   0.600  -9.318  1.00  0.00    -0.118 SA
HETATM   10  C13 UNL     1     -12.063  -0.856  -9.509  1.00  0.00     0.054 C
HETATM   11  C14 UNL     1     -11.365  -0.765 -10.814  1.00  0.00     0.022 C
HETATM   12  C15 UNL     1     -11.169  -0.497  -8.336  1.00  0.00     0.073 C
ENDROOT
BRANCH   1  13
HETATM   13  S1  UNL     1     -12.169  -0.138  -3.184  1.00  0.00    -0.067 SA
BRANCH  13  14
HETATM   14  C6  UNL     1     -13.209  -1.437  -2.535  1.00  0.00     0.264 C
BRANCH  14  15
HETATM   15  O2  UNL     1     -14.118  -0.978  -1.528  1.00  0.00    -0.282 OA
BRANCH  15  16
HETATM   16  C5  UNL     1     -15.349  -1.711  -1.368  1.00  0.00     0.435 C
HETATM   17  N1  UNL     1     -15.814  -2.083  -0.154  1.00  0.00    -0.385 NA
HETATM   18  O1  UNL     1     -15.868  -1.925  -2.530  1.00  0.00    -0.221 OA
BRANCH  17  19
HETATM   19  C3  UNL     1     -16.288  -2.461   1.085  1.00  0.00     0.165 C
HETATM   20  C4  UNL     1     -17.517  -1.623   1.519  1.00  0.00     0.048 C
BRANCH  19  21
HETATM   21  C2  UNL     1     -15.198  -2.285   2.149  1.00  0.00     0.035 C
HETATM   22  C1  UNL     1     -15.615  -2.808   3.478  1.00  0.00     0.008 C
ENDBRANCH  19  21
ENDBRANCH  17  19
ENDBRANCH  15  16
ENDBRANCH  14  15
ENDBRANCH  13  14
ENDBRANCH   1  13
BRANCH   8  23
HETATM   23  C11 UNL     1     -14.641   1.358  -4.245  1.00  0.00     0.130 C
HETATM   24  C12 UNL     1     -14.285   2.778  -3.851  1.00  0.00     0.027 C
ENDBRANCH   8  23
TORSDOF 7
ENDMDL