MODEL 4
REMARK VINA RESULT: -5.414302868      1.019      1.494
REMARK  10 active torsions:
REMARK  status: ('A' for Active; 'I' for Inactive)
REMARK    1  A    between atoms: C2_2  and  C3_3
REMARK    2  A    between atoms: C3_3  and  O2_5
REMARK    3  A    between atoms: O2_5  and  C4_6
REMARK    4  A    between atoms: C4_6  and  C5_7
REMARK    5  A    between atoms: C6_8  and  C7_9
REMARK    6  A    between atoms: C7_9  and  O4_11
REMARK    7  A    between atoms: C9_14  and  N1_15
REMARK       I    between atoms: N1_15  and  C10_17
REMARK    8  A    between atoms: C10_17  and  O6_19
REMARK    9  A    between atoms: O6_19  and  C11_20
REMARK   10  A    between atoms: C11_20  and  C12_21
ROOT
HETATM    1  C5  UNL     1     -12.007  -0.095  -5.519  1.00  0.00    -0.002 A
HETATM    2  C6  UNL     1     -12.388  -0.043  -6.839  1.00  0.00     0.091 A
HETATM    3  S1  UNL     1     -11.526   1.290  -7.446  1.00  0.00    -0.065 SA
HETATM    4  C9  UNL     1     -10.702   1.754  -6.019  1.00  0.00     0.085 A
HETATM    5  C16 UNL     1     -11.138   0.835  -5.106  1.00  0.00    -0.018 A
HETATM    6  C17 UNL     1     -10.633   0.897  -3.678  1.00  0.00     0.052 C
ENDROOT
BRANCH   4   7
HETATM    7  N1  UNL     1      -9.796   2.838  -5.867  1.00  0.00    -0.296 N
HETATM    8  C10 UNL     1     -10.353   4.133  -5.522  1.00  0.00     0.365 C
HETATM    9  O5  UNL     1     -11.586   4.268  -5.369  1.00  0.00    -0.238 OA
ATOM     10  H1  UNL     1      -8.792   2.710  -5.995  1.00  0.00     0.171 HD
BRANCH   8  11
HETATM   11  O6  UNL     1      -9.557   5.203  -5.362  1.00  0.00    -0.303 OA
BRANCH  11  12
HETATM   12  C11 UNL     1      -8.394   5.495  -4.726  1.00  0.00     0.189 C
BRANCH  12  13
HETATM   13  C12 UNL     1      -8.257   5.362  -3.256  1.00  0.00    -0.029 C
HETATM   14  C13 UNL     1      -6.983   6.094  -2.779  1.00  0.00     0.016 C
HETATM   15  C14 UNL     1      -8.164   3.887  -2.909  1.00  0.00     0.016 C
HETATM   16  C15 UNL     1      -9.378   5.957  -2.464  1.00  0.00     0.016 C
ENDBRANCH  12  13
ENDBRANCH  11  12
ENDBRANCH   8  11
ENDBRANCH   4   7
BRANCH   2  17
HETATM   17  C7  UNL     1     -13.304  -0.886  -7.605  1.00  0.00     0.300 C
HETATM   18  O3  UNL     1     -12.881  -1.899  -8.175  1.00  0.00    -0.259 OA
BRANCH  17  19
HETATM   19  O4  UNL     1     -14.654  -0.601  -7.730  1.00  0.00    -0.322 OA
HETATM   20  C8  UNL     1     -15.437  -0.907  -8.843  1.00  0.00     0.213 C
ENDBRANCH  17  19
ENDBRANCH   2  17
BRANCH   1  21
HETATM   21  C4  UNL     1     -12.610  -1.205  -4.674  1.00  0.00     0.220 C
BRANCH  21  22
HETATM   22  O2  UNL     1     -13.815  -0.858  -4.088  1.00  0.00    -0.314 OA
BRANCH  22  23
HETATM   23  C3  UNL     1     -14.071  -1.247  -2.784  1.00  0.00     0.282 C
HETATM   24  O1  UNL     1     -15.217  -1.708  -2.550  1.00  0.00    -0.260 OA
BRANCH  23  25
HETATM   25  C2  UNL     1     -13.111  -1.149  -1.715  1.00  0.00     0.072 C
HETATM   26  C1  UNL     1     -13.526  -1.200  -0.462  1.00  0.00     0.017 C
ENDBRANCH  23  25
ENDBRANCH  22  23
ENDBRANCH  21  22
ENDBRANCH   1  21
TORSDOF 10
ENDMDL