MODEL 5
REMARK VINA RESULT: -6.127569123      3.160      5.999
REMARK  6 active torsions:
REMARK  status: ('A' for Active; 'I' for Inactive)
REMARK    1  A    between atoms: C3_4  and  S1_5
REMARK    2  A    between atoms: S1_5  and  C4_6
REMARK    3  A    between atoms: C4_6  and  C5_7
REMARK       I    between atoms: C5_7  and  N2_9
REMARK    4  A    between atoms: N2_9  and  N3_11
REMARK    5  A    between atoms: C6_13  and  C7_14
REMARK    6  A    between atoms: C10_17  and  C11_18
ROOT
HETATM    1  N1  UNL     1     -16.525   0.979  -6.668  1.00  0.00    -0.191 NA
HETATM    2  C1  UNL     1     -16.624   2.134  -6.450  1.00  0.00     0.102 C
HETATM    3  C2  UNL     1     -16.791   3.584  -6.153  1.00  0.00     0.075 A
HETATM    4  C3  UNL     1     -15.723   4.313  -5.757  1.00  0.00     0.063 A
HETATM    5  S2  UNL     1     -16.420   5.883  -5.471  1.00  0.00    -0.086 SA
HETATM    6  C12 UNL     1     -18.015   5.547  -5.863  1.00  0.00    -0.008 A
HETATM    7  C13 UNL     1     -17.998   4.214  -6.215  1.00  0.00    -0.022 A
HETATM    8  C14 UNL     1     -19.331   3.602  -6.640  1.00  0.00     0.041 C
HETATM    9  C15 UNL     1     -20.422   4.106  -5.796  1.00  0.00     0.005 C
HETATM   10  C16 UNL     1     -20.234   5.386  -5.062  1.00  0.00     0.005 C
HETATM   11  C17 UNL     1     -19.354   6.281  -5.909  1.00  0.00     0.046 C
ENDROOT
BRANCH   4  12
HETATM   12  S1  UNL     1     -13.988   4.016  -5.564  1.00  0.00    -0.112 SA
BRANCH  12  13
HETATM   13  C4  UNL     1     -13.441   3.120  -4.160  1.00  0.00     0.184 C
BRANCH  13  14
HETATM   14  C5  UNL     1     -13.284   1.644  -4.409  1.00  0.00     0.245 C
HETATM   15  O1  UNL     1     -12.787   1.290  -5.496  1.00  0.00    -0.271 OA
HETATM   16  N2  UNL     1     -13.684   0.676  -3.452  1.00  0.00    -0.270 N
ATOM     17  H2  UNL     1     -14.092   0.975  -2.567  1.00  0.00     0.190 HD
BRANCH  16  18
HETATM   18  N3  UNL     1     -13.526  -0.643  -3.710  1.00  0.00    -0.307 N
HETATM   19  C6  UNL     1     -13.673  -1.613  -2.925  1.00  0.00     0.144 C
ATOM     20  H3  UNL     1     -13.253  -0.881  -4.664  1.00  0.00     0.186 HD
BRANCH  19  21
HETATM   21  C7  UNL     1     -14.056  -1.488  -1.536  1.00  0.00     0.093 A
HETATM   22  C8  UNL     1     -13.401  -1.069  -0.427  1.00  0.00     0.041 A
HETATM   23  C9  UNL     1     -14.279  -1.165   0.638  1.00  0.00     0.043 A
HETATM   24  C10 UNL     1     -15.443  -1.643   0.131  1.00  0.00     0.113 A
HETATM   25  O3  UNL     1     -15.286  -1.821  -1.132  1.00  0.00    -0.306 OA
BRANCH  24  26
HETATM   26  C11 UNL     1     -16.670  -1.915   0.876  1.00  0.00     0.295 C
HETATM   27  O2  UNL     1     -16.714  -2.807   1.757  1.00  0.00    -0.299 OA
ENDBRANCH  24  26
ENDBRANCH  19  21
ENDBRANCH  16  18
ENDBRANCH  13  14
ENDBRANCH  12  13
ENDBRANCH   4  12
TORSDOF 6
ENDMDL