MODEL 3
REMARK VINA RESULT: -4.300213200      3.673      6.152
REMARK  6 active torsions:
REMARK  status: ('A' for Active; 'I' for Inactive)
REMARK    1  A    between atoms: C2_2  and  S1_3
REMARK    2  A    between atoms: S1_3  and  C3_4
REMARK    3  A    between atoms: N1_8  and  C5_9
REMARK    4  A    between atoms: C5_9  and  N2_10
REMARK    5  A    between atoms: C10_15  and  C11_16
REMARK    6  A    between atoms: C12_17  and  C14_20
ROOT
HETATM    1  C11 UNL     1     -13.567   0.628  -6.228  1.00  0.00     0.059 C
HETATM    2  C12 UNL     1     -13.398   0.051  -7.402  1.00  0.00     0.111 C
HETATM    3  C13 UNL     1     -12.134  -0.138  -8.052  1.00  0.00     0.104 C
HETATM    4  N3  UNL     1     -11.106  -0.276  -8.612  1.00  0.00    -0.191 NA
ENDROOT
BRANCH   2   5
HETATM    5  C14 UNL     1     -14.570  -0.443  -8.112  1.00  0.00     0.275 C
HETATM    6  N4  UNL     1     -15.804   0.247  -8.034  1.00  0.00    -0.057 NA
HETATM    7  O1  UNL     1     -14.514  -1.482  -8.802  1.00  0.00    -0.270 OA
ENDBRANCH   2   5
BRANCH   1   8
HETATM    8  C10 UNL     1     -12.431   1.162  -5.415  1.00  0.00     0.063 A
HETATM    9  C3  UNL     1     -11.715   0.280  -4.653  1.00  0.00     0.071 A
HETATM   10  S2  UNL     1     -10.476   1.250  -4.015  1.00  0.00    -0.051 SA
HETATM   11  C4  UNL     1     -10.915   2.723  -4.734  1.00  0.00     0.148 A
HETATM   12  S3  UNL     1     -10.201   4.216  -4.619  1.00  0.00    -0.052 SA
HETATM   13  N1  UNL     1     -12.012   2.408  -5.446  1.00  0.00    -0.303 N
BRANCH   9  14
HETATM   14  S1  UNL     1     -11.973  -1.464  -4.309  1.00  0.00    -0.121 SA
BRANCH  14  15
HETATM   15  C2  UNL     1     -13.126  -1.651  -2.907  1.00  0.00     0.075 C
HETATM   16  C1  UNL     1     -12.662  -0.936  -1.681  1.00  0.00     0.016 C
ENDBRANCH  14  15
ENDBRANCH   9  14
BRANCH  13  17
HETATM   17  C5  UNL     1     -12.675   3.453  -6.271  1.00  0.00     0.404 C
BRANCH  17  18
HETATM   18  N2  UNL     1     -13.501   4.305  -5.526  1.00  0.00     0.106 N
HETATM   19  C6  UNL     1     -13.958   3.955  -4.241  1.00  0.00     0.274 C
HETATM   20  C7  UNL     1     -15.317   3.302  -4.409  1.00  0.00     0.032 C
HETATM   21  C8  UNL     1     -15.778   3.646  -5.784  1.00  0.00     0.032 C
HETATM   22  C9  UNL     1     -14.735   4.576  -6.308  1.00  0.00     0.274 C
ENDBRANCH  17  18
ENDBRANCH  13  17
ENDBRANCH   1   8
TORSDOF 6
ENDMDL