MODEL 4
REMARK VINA RESULT: -5.902013227      3.099      6.398
REMARK  8 active torsions:
REMARK  status: ('A' for Active; 'I' for Inactive)
REMARK    1  A    between atoms: C2_2  and  O1_3
REMARK    2  A    between atoms: O1_3  and  C3_4
REMARK    3  A    between atoms: C3_4  and  C4_6
REMARK    4  A    between atoms: N1_9  and  N2_11
REMARK    5  A    between atoms: C7_13  and  C8_14
REMARK    6  A    between atoms: C8_14  and  C9_15
REMARK    7  A    between atoms: C9_15  and  O3_16
REMARK    8  A    between atoms: C11_20  and  C12_21
ROOT
HETATM    1  C4  UNL     1     -11.844   0.122  -3.405  1.00  0.00     0.132 C
HETATM    2  C5  UNL     1     -11.024  -0.463  -4.499  1.00  0.00     0.086 C
HETATM    3  C6  UNL     1     -10.695   0.525  -5.532  1.00  0.00     0.067 C
HETATM    4  N1  UNL     1      -9.953   0.365  -6.548  1.00  0.00    -0.299 N
ATOM      5  H1  UNL     1      -9.512  -0.541  -6.702  1.00  0.00     0.187 HD
HETATM    6  S1  UNL     1     -11.599   2.024  -5.040  1.00  0.00    -0.079 SA
HETATM    7  C10 UNL     1     -12.816   1.097  -4.037  1.00  0.00    -0.000 C
HETATM    8  C11 UNL     1     -14.076   1.189  -3.915  1.00  0.00     0.034 C
ENDROOT
BRANCH   4   9
HETATM    9  N2  UNL     1      -9.726   1.377  -7.445  1.00  0.00    -0.315 N
HETATM   10  C7  UNL     1      -8.605   1.769  -7.885  1.00  0.00     0.082 C
ATOM     11  H2  UNL     1     -10.549   1.867  -7.796  1.00  0.00     0.185 HD
BRANCH  10  12
HETATM   12  C8  UNL     1      -7.276   1.232  -7.535  1.00  0.00     0.072 C
BRANCH  12  13
HETATM   13  C9  UNL     1      -6.707   1.996  -6.349  1.00  0.00     0.169 C
BRANCH  13  14
HETATM   14  O3  UNL     1      -7.670   2.328  -5.421  1.00  0.00    -0.401 OA
ATOM     15  H3  UNL     1      -7.444   3.103  -4.921  1.00  0.00     0.209 HD
ENDBRANCH  13  14
ENDBRANCH  12  13
ENDBRANCH  10  12
ENDBRANCH   4   9
BRANCH   1  16
HETATM   16  C3  UNL     1     -12.505  -0.922  -2.633  1.00  0.00     0.268 C
HETATM   17  O2  UNL     1     -12.766  -2.026  -3.231  1.00  0.00    -0.264 OA
BRANCH  16  18
HETATM   18  O1  UNL     1     -12.886  -0.855  -1.322  1.00  0.00    -0.321 OA
BRANCH  18  19
HETATM   19  C2  UNL     1     -14.209  -1.259  -0.933  1.00  0.00     0.174 C
HETATM   20  C1  UNL     1     -14.251  -1.248   0.570  1.00  0.00     0.034 C
ENDBRANCH  18  19
ENDBRANCH  16  18
ENDBRANCH   1  16
BRANCH   8  21
HETATM   21  C12 UNL     1     -14.928   2.175  -4.575  1.00  0.00     0.006 A
HETATM   22  C13 UNL     1     -15.802   2.059  -5.621  1.00  0.00     0.026 A
HETATM   23  C14 UNL     1     -16.485   3.164  -5.998  1.00  0.00    -0.048 A
HETATM   24  C15 UNL     1     -17.476   3.169  -7.166  1.00  0.00     0.049 C
HETATM   25  C16 UNL     1     -16.245   4.317  -5.294  1.00  0.00    -0.015 A
HETATM   26  C17 UNL     1     -16.893   5.668  -5.510  1.00  0.00     0.057 C
HETATM   27  S2  UNL     1     -15.088   3.838  -4.146  1.00  0.00    -0.095 SA
ENDBRANCH   8  21
TORSDOF 8
ENDMDL