MODEL 3
REMARK VINA RESULT: -5.757835680      1.567      2.667
REMARK  7 active torsions:
REMARK  status: ('A' for Active; 'I' for Inactive)
REMARK    1  A    between atoms: C2_2  and  O1_3
REMARK    2  A    between atoms: O1_3  and  C3_4
REMARK    3  A    between atoms: C3_4  and  C4_6
REMARK    4  A    between atoms: C5_7  and  N1_8
REMARK       I    between atoms: N1_8  and  C6_10
REMARK    5  A    between atoms: C6_10  and  C7_12
REMARK    6  A    between atoms: C8_13  and  C9_14
REMARK    7  A    between atoms: C9_14  and  C10_16
ROOT
HETATM    1  N1  UNL     1     -13.627   2.108  -3.689  1.00  0.00    -0.303 N
ATOM      2  H1  UNL     1     -14.368   1.922  -3.013  1.00  0.00     0.171 HD
HETATM    3  C6  UNL     1     -12.490   1.254  -3.767  1.00  0.00     0.247 C
HETATM    4  O3  UNL     1     -11.578   1.499  -4.616  1.00  0.00    -0.268 OA
ENDROOT
BRANCH   1   5
HETATM    5  C5  UNL     1     -13.717   3.229  -4.570  1.00  0.00     0.167 A
HETATM    6  C4  UNL     1     -14.484   3.300  -5.707  1.00  0.00     0.099 A
HETATM    7  C16 UNL     1     -14.225   4.586  -6.205  1.00  0.00    -0.012 A
HETATM    8  C14 UNL     1     -13.338   5.214  -5.373  1.00  0.00     0.058 A
HETATM    9  C17 UNL     1     -14.823   5.147  -7.430  1.00  0.00     0.052 C
HETATM   10  O5  UNL     1     -13.061   4.371  -4.412  1.00  0.00    -0.297 OA
HETATM   11  C15 UNL     1     -12.764   6.602  -5.495  1.00  0.00     0.077 C
BRANCH   6  12
HETATM   12  C3  UNL     1     -15.378   2.332  -6.319  1.00  0.00     0.298 C
HETATM   13  O2  UNL     1     -16.558   2.633  -6.602  1.00  0.00    -0.259 OA
BRANCH  12  14
HETATM   14  O1  UNL     1     -14.989   1.038  -6.623  1.00  0.00    -0.318 OA
BRANCH  14  15
HETATM   15  C2  UNL     1     -13.919   0.732  -7.493  1.00  0.00     0.174 C
HETATM   16  C1  UNL     1     -13.114  -0.449  -7.071  1.00  0.00     0.034 C
ENDBRANCH  14  15
ENDBRANCH  12  14
ENDBRANCH   6  12
ENDBRANCH   1   5
BRANCH   3  17
HETATM   17  C7  UNL     1     -12.399   0.119  -2.875  1.00  0.00     0.078 C
HETATM   18  C8  UNL     1     -13.396  -0.126  -2.049  1.00  0.00     0.061 C
BRANCH  18  19
HETATM   19  C9  UNL     1     -13.317  -1.264  -1.147  1.00  0.00     0.191 C
HETATM   20  O4  UNL     1     -12.317  -1.984  -1.134  1.00  0.00    -0.287 OA
BRANCH  19  21
HETATM   21  C10 UNL     1     -14.426  -1.579  -0.233  1.00  0.00     0.078 A
HETATM   22  S1  UNL     1     -14.498  -1.512   1.475  1.00  0.00    -0.079 SA
HETATM   23  C11 UNL     1     -16.111  -2.031   1.684  1.00  0.00     0.139 A
HETATM   24  N2  UNL     1     -16.505  -2.226   0.434  1.00  0.00    -0.362 N
HETATM   25  C12 UNL     1     -15.690  -2.011  -0.545  1.00  0.00     0.026 A
ATOM     26  H2  UNL     1     -17.454  -2.547   0.245  1.00  0.00     0.165 HD
HETATM   27  C13 UNL     1     -16.086  -2.218  -1.997  1.00  0.00     0.070 C
ENDBRANCH  19  21
ENDBRANCH  18  19
ENDBRANCH   3  17
TORSDOF 7
ENDMDL