MODEL 3
REMARK VINA RESULT: -5.201724589      4.458      6.712
REMARK  7 active torsions:
REMARK  status: ('A' for Active; 'I' for Inactive)
REMARK    1  A    between atoms: C2_2  and  C3_3
REMARK    2  A    between atoms: C5_8  and  C6_9
REMARK    3  A    between atoms: C6_9  and  C8_12
REMARK    4  A    between atoms: C6_9  and  N3_14
REMARK    5  A    between atoms: N3_14  and  C10_16
REMARK    6  A    between atoms: C14_23  and  C15_24
REMARK    7  A    between atoms: C15_24  and  C16_26
ROOT
HETATM    1  C6  UNL     1     -12.942   1.340  -4.031  1.00  0.00     0.167 C
HETATM    2  C7  UNL     1     -13.315   0.540  -5.205  1.00  0.00     0.098 C
HETATM    3  N2  UNL     1     -13.590  -0.084  -6.144  1.00  0.00    -0.194 NA
ENDROOT
BRANCH   1   4
HETATM    4  C5  UNL     1     -11.584   1.922  -4.320  1.00  0.00     0.113 A
HETATM    5  S1  UNL     1     -10.164   1.062  -4.750  1.00  0.00    -0.034 SA
HETATM    6  C4  UNL     1      -9.096   2.411  -4.877  1.00  0.00     0.173 A
HETATM    7  N1  UNL     1      -7.845   2.863  -5.129  1.00  0.00    -0.336 N
HETATM    8  N5  UNL     1      -9.920   3.418  -4.578  1.00  0.00    -0.227 N
HETATM    9  C3  UNL     1      -7.859   4.199  -4.990  1.00  0.00     0.043 A
ATOM     10  H1  UNL     1      -7.037   2.292  -5.378  1.00  0.00     0.168 HD
HETATM   11  C14 UNL     1      -9.140   4.557  -4.649  1.00  0.00     0.127 A
HETATM   12  N4  UNL     1     -11.134   3.146  -4.309  1.00  0.00    -0.285 N
ATOM     13  H4  UNL     1     -11.773   3.907  -4.078  1.00  0.00     0.188 HD
BRANCH   9  14
HETATM   14  C2  UNL     1      -6.651   5.037  -5.184  1.00  0.00     0.055 C
HETATM   15  C1  UNL     1      -5.839   5.223  -3.927  1.00  0.00     0.011 C
ENDBRANCH   9  14
BRANCH  11  16
HETATM   16  C15 UNL     1      -9.563   5.920  -4.414  1.00  0.00     0.184 C
HETATM   17  O1  UNL     1     -10.229   6.500  -5.345  1.00  0.00    -0.290 OA
BRANCH  16  18
HETATM   18  C16 UNL     1      -9.300   6.714  -3.197  1.00  0.00     0.062 A
HETATM   19  C17 UNL     1     -10.421   6.699  -2.182  1.00  0.00     0.013 A
HETATM   20  C18 UNL     1      -9.156   5.943  -1.933  1.00  0.00     0.013 A
ENDBRANCH  16  18
ENDBRANCH  11  16
ENDBRANCH   1   4
BRANCH   1  21
HETATM   21  C8  UNL     1     -13.873   2.542  -4.048  1.00  0.00     0.049 C
HETATM   22  C9  UNL     1     -15.265   2.100  -4.545  1.00  0.00     0.009 C
ENDBRANCH   1  21
BRANCH   1  23
HETATM   23  N3  UNL     1     -12.858   0.629  -2.844  1.00  0.00    -0.388 N
ATOM     24  H3  UNL     1     -12.529   1.129  -2.017  1.00  0.00     0.156 HD
BRANCH  23  25
HETATM   25  C10 UNL     1     -13.187  -0.712  -2.693  1.00  0.00     0.016 C
HETATM   26  C11 UNL     1     -14.676  -1.052  -2.801  1.00  0.00     0.037 C
HETATM   27  C12 UNL     1     -12.489  -1.676  -3.638  1.00  0.00     0.037 C
HETATM   28  C13 UNL     1     -12.780  -1.155  -1.288  1.00  0.00     0.037 C
ENDBRANCH  23  25
ENDBRANCH   1  23
TORSDOF 7
ENDMDL