MODEL 3
REMARK VINA RESULT: -5.241349671      2.422      5.029
REMARK  8 active torsions:
REMARK  status: ('A' for Active; 'I' for Inactive)
REMARK    1  A    between atoms: C2_2  and  C3_3
REMARK    2  A    between atoms: C3_3  and  C4_4
REMARK    3  A    between atoms: C5_5  and  C6_6
REMARK    4  A    between atoms: C10_11  and  C11_12
REMARK    5  A    between atoms: C11_12  and  O2_14
REMARK    6  A    between atoms: O2_14  and  C12_15
REMARK    7  A    between atoms: C15_22  and  O4_24
REMARK    8  A    between atoms: O4_24  and  C17_25
ROOT
HETATM    1  C4  UNL     1     -12.090   0.816  -5.774  1.00  0.00     0.062 C
HETATM    2  C5  UNL     1     -12.126   2.343  -5.678  1.00  0.00     0.057 C
HETATM    3  C10 UNL     1     -11.020   2.926  -4.922  1.00  0.00     0.169 C
HETATM    4  C14 UNL     1     -10.082   2.035  -4.251  1.00  0.00     0.129 C
HETATM    5  N1  UNL     1      -9.066   2.520  -3.637  1.00  0.00    -0.383 N
ATOM      6  H11 UNL     1      -8.409   1.896  -3.167  1.00  0.00     0.158 HD
ATOM      7  H12 UNL     1      -8.918   3.529  -3.621  1.00  0.00     0.158 HD
HETATM    8  O3  UNL     1     -10.285   0.658  -4.272  1.00  0.00    -0.301 OA
HETATM    9  C15 UNL     1     -11.615   0.233  -4.475  1.00  0.00     0.181 C
HETATM   10  C16 UNL     1     -11.718  -1.240  -4.398  1.00  0.00     0.080 C
ENDROOT
BRANCH   2  11
HETATM   11  C6  UNL     1     -13.475   2.824  -5.290  1.00  0.00    -0.012 A
HETATM   12  C7  UNL     1     -13.872   3.574  -4.220  1.00  0.00     0.015 A
HETATM   13  C8  UNL     1     -15.182   3.861  -4.101  1.00  0.00     0.008 A
HETATM   14  C9  UNL     1     -16.026   3.383  -5.060  1.00  0.00     0.050 A
HETATM   15  S1  UNL     1     -14.978   2.545  -6.105  1.00  0.00    -0.106 SA
ENDBRANCH   2  11
BRANCH   1  16
HETATM   16  C3  UNL     1     -11.205   0.470  -6.938  1.00  0.00     0.037 C
BRANCH  16  17
HETATM   17  C2  UNL     1     -11.714  -0.380  -7.988  1.00  0.00    -0.036 C
HETATM   18  C1  UNL     1     -12.901  -0.992  -7.923  1.00  0.00     0.007 C
ENDBRANCH  16  17
ENDBRANCH   1  16
BRANCH   3  19
HETATM   19  C11 UNL     1     -10.194   3.860  -5.784  1.00  0.00     0.271 C
HETATM   20  O1  UNL     1      -9.691   3.536  -6.865  1.00  0.00    -0.264 OA
BRANCH  19  21
HETATM   21  O2  UNL     1     -10.019   5.140  -5.301  1.00  0.00    -0.321 OA
BRANCH  21  22
HETATM   22  C12 UNL     1     -11.168   5.952  -5.081  1.00  0.00     0.174 C
HETATM   23  C13 UNL     1     -11.237   6.309  -3.628  1.00  0.00     0.034 C
ENDBRANCH  21  22
ENDBRANCH  19  21
ENDBRANCH   3  19
BRANCH   9  24
HETATM   24  O4  UNL     1     -12.366   0.774  -3.388  1.00  0.00    -0.283 OA
BRANCH  24  25
HETATM   25  C17 UNL     1     -13.477   0.091  -2.931  1.00  0.00     0.257 C
HETATM   26  C18 UNL     1     -13.350  -0.594  -1.600  1.00  0.00     0.126 C
HETATM   27  O5  UNL     1     -14.562  -0.010  -3.514  1.00  0.00    -0.266 OA
ENDBRANCH  24  25
ENDBRANCH   9  24
TORSDOF 8
ENDMDL