MODEL 3
REMARK VINA RESULT: -6.830438847      2.359      3.486
REMARK  14 active torsions:
REMARK  status: ('A' for Active; 'I' for Inactive)
REMARK    1  A    between atoms: O1_2  and  C2_3
REMARK    2  A    between atoms: C2_3  and  C3_5
REMARK    3  A    between atoms: C3_5  and  C4_6
REMARK    4  A    between atoms: C5_7  and  C6_8
REMARK    5  A    between atoms: C7_9  and  C8_10
REMARK       I    between atoms: C8_10  and  N1_12
REMARK    6  A    between atoms: N1_12  and  N2_14
REMARK    7  A    between atoms: N2_14  and  C9_15
REMARK    8  A    between atoms: C9_15  and  C10_16
REMARK    9  A    between atoms: C9_15  and  C12_19
REMARK   10  A    between atoms: C13_23  and  C14_24
REMARK   11  A    between atoms: C15_30  and  N6_31
REMARK   12  A    between atoms: N8_36  and  N9_38
REMARK   13  A    between atoms: N9_38  and  C16_40
REMARK   14  A    between atoms: C19_43  and  O7_44
ROOT
HETATM    1  C8  UNL     1      37.828  63.904  19.810  1.00  0.00     0.270 C
HETATM    2  O3  UNL     1      37.738  62.774  20.293  1.00  0.00    -0.266 OA
HETATM    3  N1  UNL     1      36.701  64.397  19.054  1.00  0.00    -0.199 N
ATOM      4  H1  UNL     1      36.788  65.335  18.660  1.00  0.00     0.205 HD
ENDROOT
BRANCH   3   5
HETATM    5  N2  UNL     1      35.603  63.775  18.829  1.00  0.00    -0.315 NA
BRANCH   5   6
HETATM    6  C9  UNL     1      34.596  63.183  18.604  1.00  0.00     0.222 C
BRANCH   6   7
HETATM    7  C10 UNL     1      33.771  62.772  19.795  1.00  0.00     0.192 C
HETATM    8  C11 UNL     1      32.309  62.731  19.664  1.00  0.00     0.100 C
HETATM    9  O4  UNL     1      34.307  62.472  20.876  1.00  0.00    -0.290 OA
ENDBRANCH   6   7
BRANCH   6  10
HETATM   10  C12 UNL     1      34.105  62.786  17.274  1.00  0.00     0.175 A
HETATM   11  N3  UNL     1      33.711  63.727  16.361  1.00  0.00    -0.240 N
HETATM   12  O5  UNL     1      33.307  63.098  15.325  1.00  0.00    -0.215 OA
ATOM     13  H3  UNL     1      33.735  64.739  16.484  1.00  0.00     0.196 HD
HETATM   14  C13 UNL     1      33.403  61.802  15.484  1.00  0.00     0.204 A
HETATM   15  N7  UNL     1      33.905  61.602  16.705  1.00  0.00    -0.315 N
ATOM     16  H7  UNL     1      34.101  60.695  17.128  1.00  0.00     0.169 HD
BRANCH  14  17
HETATM   17  C14 UNL     1      33.021  60.815  14.500  1.00  0.00     0.155 A
HETATM   18  N4  UNL     1      33.694  59.715  14.098  1.00  0.00    -0.234 N
HETATM   19  O6  UNL     1      33.019  59.072  13.193  1.00  0.00    -0.155 OA
ATOM     20  H4  UNL     1      34.605  59.429  14.455  1.00  0.00     0.197 HD
HETATM   21  N5  UNL     1      31.907  59.697  12.967  1.00  0.00    -0.224 N
HETATM   22  C15 UNL     1      31.843  60.817  13.764  1.00  0.00     0.154 A
ATOM     23  H5  UNL     1      31.191  59.403  12.302  1.00  0.00     0.198 HD
BRANCH  22  24
HETATM   24  N6  UNL     1      30.890  61.667  13.794  1.00  0.00    -0.382 N
ATOM     25  H62 UNL     1      30.961  62.640  14.090  1.00  0.00     0.157 HD
ATOM     26  H61 UNL     1      29.912  61.531  13.541  1.00  0.00     0.157 HD
ENDBRANCH  22  24
ENDBRANCH  14  17
ENDBRANCH   6  10
ENDBRANCH   5   6
ENDBRANCH   3   5
BRANCH   1  27
HETATM   27  C7  UNL     1      39.020  64.713  19.993  1.00  0.00     0.085 C
HETATM   28  C6  UNL     1      39.229  65.831  19.353  1.00  0.00     0.070 C
BRANCH  28  29
HETATM   29  C5  UNL     1      40.409  66.656  19.515  1.00  0.00    -0.071 C
HETATM   30  C4  UNL     1      41.387  67.341  19.696  1.00  0.00    -0.036 C
BRANCH  30  31
HETATM   31  C3  UNL     1      42.531  68.169  19.975  1.00  0.00     0.177 C
HETATM   32  N8  UNL     1      42.481  69.032  20.972  1.00  0.00    -0.286 N
ATOM     33  H8  UNL     1      43.273  69.642  21.170  1.00  0.00     0.188 HD
BRANCH  31  34
HETATM   34  C2  UNL     1      43.726  68.110  19.194  1.00  0.00     0.320 C
HETATM   35  O2  UNL     1      44.609  67.264  19.555  1.00  0.00    -0.257 OA
BRANCH  34  36
HETATM   36  O1  UNL     1      44.050  68.859  18.099  1.00  0.00    -0.321 OA
HETATM   37  C1  UNL     1      45.000  69.890  18.053  1.00  0.00     0.213 C
ENDBRANCH  34  36
ENDBRANCH  31  34
BRANCH  32  38
HETATM   38  N9  UNL     1      41.319  69.097  21.753  1.00  0.00    -0.284 N
ATOM     39  H9  UNL     1      41.131  68.371  22.445  1.00  0.00     0.188 HD
BRANCH  38  40
HETATM   40  C16 UNL     1      40.410  70.162  21.587  1.00  0.00     0.121 A
HETATM   41  C17 UNL     1      40.696  71.526  21.659  1.00  0.00     0.054 A
HETATM   42  C18 UNL     1      39.528  72.234  21.439  1.00  0.00     0.059 A
HETATM   43  C19 UNL     1      38.540  71.293  21.238  1.00  0.00     0.141 A
HETATM   44  N10 UNL     1      39.099  70.081  21.333  1.00  0.00    -0.322 N
ATOM     45  H10 UNL     1      38.589  69.204  21.224  1.00  0.00     0.169 HD
BRANCH  43  46
HETATM   46  O7  UNL     1      37.211  71.601  20.987  1.00  0.00    -0.346 OA
ATOM     47  H7  UNL     1      36.829  71.649  20.119  1.00  0.00     0.219 HD
ENDBRANCH  43  46
ENDBRANCH  38  40
ENDBRANCH  32  38
ENDBRANCH  30  31
ENDBRANCH  28  29
ENDBRANCH   1  27
TORSDOF 14
ENDMDL