MODEL 5
REMARK VINA RESULT: -6.017590639      5.690      9.212
REMARK  11 active torsions:
REMARK  status: ('A' for Active; 'I' for Inactive)
REMARK    1  A    between atoms: C5_6  and  C6_7
REMARK    2  A    between atoms: C6_7  and  N2_8
REMARK    3  A    between atoms: C6_7  and  C9_14
REMARK    4  A    between atoms: N2_8  and  C7_10
REMARK    5  A    between atoms: C7_10  and  C8_11
REMARK    6  A    between atoms: C8_11  and  O1_12
REMARK    7  A    between atoms: N5_18  and  C10_19
REMARK    8  A    between atoms: C11_25  and  N8_26
REMARK    9  A    between atoms: C12_29  and  C13_30
REMARK   10  A    between atoms: C19_39  and  C20_40
REMARK   11  A    between atoms: C21_43  and  N12_44
ROOT
HETATM    1  C9  UNL     1      27.420  65.439  15.389  1.00  0.00     0.101 A
HETATM    2  N3  UNL     1      26.118  65.227  15.294  1.00  0.00    -0.279 N
ATOM      3  H3  UNL     1      25.437  65.934  15.016  1.00  0.00     0.184 HD
HETATM    4  N4  UNL     1      25.812  63.973  15.610  1.00  0.00    -0.013 NA
HETATM    5  N5  UNL     1      26.967  63.369  15.916  1.00  0.00    -0.214 N
HETATM    6  C12 UNL     1      27.987  64.269  15.783  1.00  0.00     0.115 A
ENDROOT
BRANCH   6   7
HETATM    7  C13 UNL     1      29.400  64.053  16.024  1.00  0.00     0.097 A
HETATM    8  N9  UNL     1      30.328  63.680  15.134  1.00  0.00    -0.338 N
HETATM    9  C14 UNL     1      31.530  63.595  15.733  1.00  0.00     0.112 A
ATOM     10  H9  UNL     1      30.150  63.488  14.148  1.00  0.00     0.167 HD
HETATM   11  C15 UNL     1      32.789  63.246  15.226  1.00  0.00     0.049 A
HETATM   12  N10 UNL     1      31.402  63.912  17.023  1.00  0.00    -0.302 N
HETATM   13  C16 UNL     1      33.868  63.236  16.054  1.00  0.00     0.005 A
HETATM   14  C17 UNL     1      33.712  63.567  17.380  1.00  0.00     0.018 A
HETATM   15  C18 UNL     1      32.462  63.911  17.876  1.00  0.00     0.099 A
HETATM   16  C19 UNL     1      30.076  64.199  17.210  1.00  0.00     0.124 A
BRANCH  16  17
HETATM   17  C20 UNL     1      29.529  64.584  18.511  1.00  0.00     0.215 A
HETATM   18  N11 UNL     1      29.423  65.856  18.928  1.00  0.00    -0.165 N
HETATM   19  C21 UNL     1      28.875  65.822  20.172  1.00  0.00     0.698 A
ATOM     20  H11 UNL     1      29.700  66.690  18.411  1.00  0.00     0.186 HD
HETATM   21  N13 UNL     1      28.666  64.529  20.471  1.00  0.00    -0.089 N
HETATM   22  O3  UNL     1      29.068  63.832  19.458  1.00  0.00    -0.202 OA
ATOM     23  H13 UNL     1      28.265  64.165  21.336  1.00  0.00     0.213 HD
BRANCH  19  24
HETATM   24  N12 UNL     1      28.631  66.863  20.867  1.00  0.00    -0.233 N
ATOM     25 2H12 UNL     1      28.954  67.822  20.733  1.00  0.00     0.174 HD
ATOM     26 1H12 UNL     1      28.043  66.863  21.700  1.00  0.00     0.174 HD
ENDBRANCH  19  24
ENDBRANCH  16  17
ENDBRANCH   6   7
BRANCH   1  27
HETATM   27  C6  UNL     1      28.096  66.752  15.120  1.00  0.00     0.069 C
BRANCH  27  28
HETATM   28  C5  UNL     1      27.218  67.850  15.548  1.00  0.00     0.279 C
HETATM   29  C2  UNL     1      27.706  69.044  16.265  1.00  0.00     0.049 C
HETATM   30  C1  UNL     1      27.589  68.995  17.782  1.00  0.00     0.014 C
HETATM   31  C3  UNL     1      26.449  69.679  15.619  1.00  0.00     0.279 C
HETATM   32  N1  UNL     1      26.757  68.758  14.499  1.00  0.00     0.095 N
HETATM   33  C4  UNL     1      25.523  68.439  13.855  1.00  0.00     0.310 C
ENDBRANCH  27  28
BRANCH  27  34
HETATM   34  N2  UNL     1      28.825  66.775  13.945  1.00  0.00    -0.387 N
ATOM     35  H2  UNL     1      28.331  66.608  13.069  1.00  0.00     0.159 HD
BRANCH  34  36
HETATM   36  C7  UNL     1      30.212  67.014  13.892  1.00  0.00     0.145 C
BRANCH  36  37
HETATM   37  C8  UNL     1      30.458  68.535  13.897  1.00  0.00     0.183 C
BRANCH  37  38
HETATM   38  O1  UNL     1      31.655  68.719  14.590  1.00  0.00    -0.399 OA
ATOM     39  H1  UNL     1      31.607  69.595  14.955  1.00  0.00     0.209 HD
ENDBRANCH  37  38
ENDBRANCH  36  37
ENDBRANCH  34  36
ENDBRANCH  27  34
ENDBRANCH   1  27
BRANCH   5  40
HETATM   40  C10 UNL     1      27.161  62.024  16.326  1.00  0.00     0.194 A
HETATM   41  N6  UNL     1      27.322  61.551  17.574  1.00  0.00    -0.221 N
HETATM   42  O2  UNL     1      27.472  60.242  17.524  1.00  0.00    -0.153 OA
ATOM     43  H6  UNL     1      27.327  62.115  18.424  1.00  0.00     0.198 HD
HETATM   44  N7  UNL     1      27.418  59.829  16.299  1.00  0.00    -0.222 N
HETATM   45  C11 UNL     1      27.224  60.912  15.511  1.00  0.00     0.169 A
ATOM     46  H7  UNL     1      27.506  58.863  15.984  1.00  0.00     0.198 HD
BRANCH  45  47
HETATM   47  N8  UNL     1      27.122  60.865  14.238  1.00  0.00    -0.381 N
ATOM     48  H82 UNL     1      26.243  60.737  13.738  1.00  0.00     0.157 HD
ATOM     49  H81 UNL     1      27.869  60.942  13.547  1.00  0.00     0.157 HD
ENDBRANCH  45  47
ENDBRANCH   5  40
TORSDOF 11
ENDMDL