MODEL 4
REMARK VINA RESULT: -7.189835088      5.042      8.851
REMARK  11 active torsions:
REMARK  status: ('A' for Active; 'I' for Inactive)
REMARK    1  A    between atoms: C2_3  and  C3_4
REMARK    2  A    between atoms: C6_9  and  C7_10
REMARK    3  A    between atoms: C7_10  and  O2_12
REMARK    4  A    between atoms: O2_12  and  N3_13
REMARK       I    between atoms: C8_15  and  N5_17
REMARK    5  A    between atoms: N5_17  and  N6_19
REMARK    6  A    between atoms: C9_21  and  C10_22
REMARK    7  A    between atoms: C12_24  and  N7_25
REMARK    8  A    between atoms: C13_28  and  N8_29
REMARK    9  A    between atoms: N8_29  and  C14_31
REMARK   10  A    between atoms: C15_34  and  N10_35
REMARK   11  A    between atoms: N10_35  and  N11_36
ROOT
HETATM    1  N1  UNL     1      34.581  60.662  15.471  1.00  0.00    -0.197 NA
HETATM    2  C1  UNL     1      34.665  59.512  15.296  1.00  0.00     0.063 C
HETATM    3  C2  UNL     1      34.761  58.059  15.052  1.00  0.00     0.163 C
ENDROOT
BRANCH   3   4
HETATM    4  C3  UNL     1      36.029  57.540  15.598  1.00  0.00    -0.029 A
HETATM    5  C4  UNL     1      36.127  56.213  15.932  1.00  0.00     0.095 A
HETATM    6  N2  UNL     1      37.266  55.735  16.427  1.00  0.00    -0.374 N
HETATM    7  C5  UNL     1      38.371  56.483  16.632  1.00  0.00     0.105 A
ATOM      8  H2  UNL     1      37.306  54.743  16.665  1.00  0.00     0.164 HD
HETATM    9  C6  UNL     1      38.279  57.814  16.298  1.00  0.00     0.057 A
HETATM   10  C18 UNL     1      37.123  58.349  15.786  1.00  0.00     0.028 A
BRANCH   9  11
HETATM   11  C7  UNL     1      39.446  58.658  16.505  1.00  0.00     0.316 C
HETATM   12  O1  UNL     1      40.226  58.487  17.493  1.00  0.00    -0.257 OA
BRANCH  11  13
HETATM   13  O2  UNL     1      39.781  59.695  15.646  1.00  0.00    -0.192 OA
BRANCH  13  14
HETATM   14  N3  UNL     1      39.300  60.975  15.771  1.00  0.00    -0.228 N
HETATM   15  C8  UNL     1      40.039  61.903  16.266  1.00  0.00     0.227 C
HETATM   16  N4  UNL     1      41.352  61.603  16.682  1.00  0.00    -0.060 NA
HETATM   17  N5  UNL     1      39.515  63.220  16.389  1.00  0.00    -0.272 N
ATOM     18  H5  UNL     1      39.011  63.599  15.588  1.00  0.00     0.189 HD
ATOM     19  H3  UNL     1      38.350  61.190  15.468  1.00  0.00     0.198 HD
BRANCH  17  20
HETATM   20  N6  UNL     1      39.630  64.012  17.482  1.00  0.00    -0.308 N
HETATM   21  C9  UNL     1      38.924  64.341  18.428  1.00  0.00     0.126 C
ATOM     22  H6  UNL     1      40.549  64.453  17.529  1.00  0.00     0.186 HD
BRANCH  21  23
HETATM   23  C10 UNL     1      37.548  63.893  18.669  1.00  0.00     0.026 A
HETATM   24  C11 UNL     1      36.800  63.923  19.807  1.00  0.00     0.059 A
HETATM   25  C12 UNL     1      35.543  63.439  19.757  1.00  0.00     0.138 A
HETATM   26  C13 UNL     1      35.104  62.947  18.569  1.00  0.00     0.110 A
HETATM   27  S1  UNL     1      36.474  63.178  17.535  1.00  0.00    -0.069 SA
BRANCH  25  28
HETATM   28  N7  UNL     1      34.676  63.426  20.926  1.00  0.00    -0.113 N
HETATM   29  O3  UNL     1      34.058  62.380  21.170  1.00  0.00    -0.532 OA
HETATM   30  O4  UNL     1      34.531  64.512  21.727  1.00  0.00    -0.532 OA
ENDBRANCH  25  28
BRANCH  26  31
HETATM   31  N8  UNL     1      33.846  62.353  18.184  1.00  0.00    -0.330 N
ATOM     32  H8  UNL     1      33.624  61.392  18.443  1.00  0.00     0.168 HD
BRANCH  31  33
HETATM   33  C14 UNL     1      32.917  63.138  17.432  1.00  0.00     0.172 C
HETATM   34  N9  UNL     1      32.980  63.130  16.167  1.00  0.00    -0.350 N
HETATM   35  C15 UNL     1      32.081  63.894  15.353  1.00  0.00     0.215 C
ATOM     36  H9  UNL     1      33.693  62.560  15.713  1.00  0.00     0.163 HD
HETATM   37  C16 UNL     1      30.781  64.112  16.047  1.00  0.00     0.167 C
HETATM   38  N12 UNL     1      31.008  64.647  17.362  1.00  0.00    -0.351 N
HETATM   39  C17 UNL     1      31.926  63.898  18.184  1.00  0.00     0.285 C
ATOM     40  H12 UNL     1      30.551  65.497  17.690  1.00  0.00     0.162 HD
HETATM   41  O5  UNL     1      31.844  63.926  19.431  1.00  0.00    -0.264 OA
BRANCH  35  42
HETATM   42  N10 UNL     1      31.864  63.288  14.051  1.00  0.00    -0.121 NA
BRANCH  42  43
HETATM   43  N11 UNL     1      31.971  61.917  14.153  1.00  0.00    -0.346 N
ATOM     44 2H11 UNL     1      32.820  61.388  13.951  1.00  0.00     0.172 HD
ATOM     45 1H11 UNL     1      31.079  61.526  14.458  1.00  0.00     0.172 HD
ENDBRANCH  42  43
ENDBRANCH  35  42
ENDBRANCH  31  33
ENDBRANCH  26  31
ENDBRANCH  21  23
ENDBRANCH  17  20
ENDBRANCH  13  14
ENDBRANCH  11  13
ENDBRANCH   9  11
ENDBRANCH   3   4
TORSDOF 11
ENDMDL