MODEL 3
REMARK VINA RESULT: -6.915833049      1.300      1.657
REMARK  12 active torsions:
REMARK  status: ('A' for Active; 'I' for Inactive)
REMARK    1  A    between atoms: C2_2  and  N1_3
REMARK    2  A    between atoms: N1_3  and  N2_5
REMARK    3  A    between atoms: N2_5  and  C4_7
REMARK    4  A    between atoms: C6_9  and  N3_10
REMARK    5  A    between atoms: C8_12  and  C9_13
REMARK       I    between atoms: C9_13  and  N4_15
REMARK    6  A    between atoms: N4_15  and  C10_17
REMARK    7  A    between atoms: C12_21  and  C13_22
REMARK    8  A    between atoms: C13_22  and  N6_23
REMARK    9  A    between atoms: C13_22  and  O2_27
REMARK   10  A    between atoms: C16_37  and  O3_38
REMARK   11  A    between atoms: O3_38  and  C17_39
REMARK   12  A    between atoms: C19_46  and  C20_47
ROOT
HETATM    1  C4  UNL     1      40.748  68.330  18.715  1.00  0.00     0.079 A
HETATM    2  C5  UNL     1      39.996  67.181  18.827  1.00  0.00     0.065 A
HETATM    3  C6  UNL     1      40.436  65.930  18.424  1.00  0.00     0.059 A
HETATM    4  C14 UNL     1      41.691  65.873  17.892  1.00  0.00     0.034 A
HETATM    5  C15 UNL     1      42.468  67.010  17.768  1.00  0.00     0.042 A
HETATM    6  C16 UNL     1      42.055  68.248  18.158  1.00  0.00     0.105 A
ENDROOT
BRANCH   3   7
HETATM    7  N3  UNL     1      39.599  64.794  18.572  1.00  0.00    -0.251 N
HETATM    8  C7  UNL     1      38.454  64.632  19.260  1.00  0.00     0.154 A
HETATM    9  C8  UNL     1      38.013  63.341  19.071  1.00  0.00     0.135 A
HETATM   10  N8  UNL     1      38.910  62.751  18.270  1.00  0.00    -0.279 N
HETATM   11  N9  UNL     1      39.841  63.622  17.983  1.00  0.00    -0.235 N
ATOM     12  H8  UNL     1      38.873  61.786  17.941  1.00  0.00     0.189 HD
ATOM     13  H9  UNL     1      40.647  63.431  17.387  1.00  0.00     0.209 HD
BRANCH   9  14
HETATM   14  C9  UNL     1      36.782  62.734  19.626  1.00  0.00     0.289 C
HETATM   15  O1  UNL     1      36.652  62.476  20.842  1.00  0.00    -0.265 OA
HETATM   16  N4  UNL     1      35.725  62.443  18.739  1.00  0.00    -0.154 N
ATOM     17  H4  UNL     1      35.939  61.941  17.877  1.00  0.00     0.187 HD
BRANCH  16  18
HETATM   18  C10 UNL     1      34.514  62.779  18.963  1.00  0.00     0.685 A
HETATM   19  N5  UNL     1      33.660  62.125  19.758  1.00  0.00    -0.200 N
HETATM   20  C11 UNL     1      32.454  62.775  19.758  1.00  0.00     0.136 A
ATOM     21  H5  UNL     1      33.873  61.276  20.281  1.00  0.00     0.183 HD
HETATM   22  C12 UNL     1      32.643  63.848  18.917  1.00  0.00     0.098 A
HETATM   23  N7  UNL     1      33.899  63.846  18.435  1.00  0.00    -0.190 N
ATOM     24  H7  UNL     1      34.305  64.526  17.792  1.00  0.00     0.184 HD
BRANCH  22  25
HETATM   25  C13 UNL     1      31.561  64.849  18.620  1.00  0.00     0.369 C
BRANCH  25  26
HETATM   26  N6  UNL     1      31.161  64.683  17.236  1.00  0.00    -0.047 N
ATOM     27  H63 UNL     1      31.015  65.572  16.758  1.00  0.00     0.277 HD
ATOM     28  H62 UNL     1      31.917  64.334  16.647  1.00  0.00     0.277 HD
ATOM     29  H61 UNL     1      30.336  64.084  17.214  1.00  0.00     0.277 HD
ENDBRANCH  25  26
BRANCH  25  30
HETATM   30  O2  UNL     1      30.460  64.541  19.439  1.00  0.00    -0.365 OA
ATOM     31  H2  UNL     1      30.718  64.701  20.339  1.00  0.00     0.212 HD
ENDBRANCH  25  30
ENDBRANCH  22  25
ENDBRANCH  16  18
ENDBRANCH   9  14
ENDBRANCH   3   7
BRANCH   1  32
HETATM   32  N2  UNL     1      40.276  69.602  19.111  1.00  0.00    -0.317 N
ATOM     33  H2  UNL     1      40.202  70.322  18.392  1.00  0.00     0.181 HD
BRANCH  32  34
HETATM   34  N1  UNL     1      39.911  69.940  20.378  1.00  0.00    -0.235 NA
HETATM   35  C3  UNL     1      39.185  71.193  20.512  1.00  0.00     0.136 C
BRANCH  34  36
HETATM   36  C2  UNL     1      40.904  69.910  21.398  1.00  0.00     0.108 C
HETATM   37  C1  UNL     1      40.573  68.879  22.445  1.00  0.00     0.022 C
ENDBRANCH  34  36
ENDBRANCH  32  34
ENDBRANCH   1  32
BRANCH   6  38
HETATM   38  O3  UNL     1      42.795  69.398  18.051  1.00  0.00    -0.288 OA
BRANCH  38  39
HETATM   39  C17 UNL     1      44.132  69.576  18.207  1.00  0.00     0.196 A
HETATM   40  N10 UNL     1      45.004  69.111  19.110  1.00  0.00    -0.263 N
HETATM   41  N11 UNL     1      46.193  69.570  18.825  1.00  0.00    -0.238 N
ATOM     42  H10 UNL     1      44.778  68.499  19.893  1.00  0.00     0.190 HD
HETATM   43  N12 UNL     1      46.170  70.333  17.759  1.00  0.00    -0.275 N
ATOM     44  H11 UNL     1      47.034  69.363  19.365  1.00  0.00     0.208 HD
HETATM   45  C18 UNL     1      47.300  71.018  17.138  1.00  0.00     0.179 C
HETATM   46  C19 UNL     1      44.901  70.368  17.337  1.00  0.00     0.145 A
BRANCH  46  47
HETATM   47  C20 UNL     1      44.421  71.136  16.189  1.00  0.00     0.143 C
HETATM   48  N13 UNL     1      44.318  70.582  15.035  1.00  0.00    -0.386 N
ATOM     49 2H13 UNL     1      44.563  69.596  14.956  1.00  0.00     0.157 HD
ATOM     50 1H13 UNL     1      43.983  71.118  14.234  1.00  0.00     0.157 HD
HETATM   51  N14 UNL     1      44.079  72.515  16.298  1.00  0.00    -0.081 NA
ENDBRANCH  46  47
ENDBRANCH  38  39
ENDBRANCH   6  38
TORSDOF 12
ENDMDL