MODEL 2
REMARK VINA RESULT: -7.543964204      3.117      7.756
REMARK  10 active torsions:
REMARK  status: ('A' for Active; 'I' for Inactive)
REMARK    1  A    between atoms: N1_1  and  C1_4
REMARK    2  A    between atoms: C2_9  and  S1_10
REMARK    3  A    between atoms: S1_10  and  C3_11
REMARK    4  A    between atoms: C3_11  and  C4_12
REMARK    5  A    between atoms: C4_12  and  N4_13
REMARK    6  A    between atoms: C4_12  and  C9_35
REMARK       I    between atoms: N4_13  and  C5_15
REMARK    7  A    between atoms: C5_15  and  C6_17
REMARK    8  A    between atoms: N7_22  and  C7_23
REMARK    9  A    between atoms: C8_29  and  N10_30
REMARK       I    between atoms: C9_35  and  N12_37
REMARK   10  A    between atoms: N12_37  and  C10_39
ROOT
HETATM    1  C4  UNL     1      39.495  62.935  17.469  1.00  0.00     0.187 C
ENDROOT
BRANCH   1   2
HETATM    2  C3  UNL     1      38.139  62.552  17.925  1.00  0.00     0.117 C
BRANCH   2   3
HETATM    3  S1  UNL     1      36.945  63.853  18.130  1.00  0.00    -0.089 SA
BRANCH   3   4
HETATM    4  C2  UNL     1      35.593  63.479  19.209  1.00  0.00     0.174 A
HETATM    5  N3  UNL     1      35.294  64.008  20.407  1.00  0.00    -0.265 N
HETATM    6  N2  UNL     1      34.198  63.486  20.908  1.00  0.00    -0.130 N
ATOM      7  H3  UNL     1      35.850  64.726  20.871  1.00  0.00     0.189 HD
HETATM    8  C1  UNL     1      33.753  62.582  20.019  1.00  0.00     0.692 A
ATOM      9  H2  UNL     1      33.767  63.722  21.801  1.00  0.00     0.205 HD
HETATM   10  N13 UNL     1      34.589  62.570  18.987  1.00  0.00    -0.168 N
ATOM     11  H13 UNL     1      34.500  61.979  18.161  1.00  0.00     0.186 HD
BRANCH   8  12
HETATM   12  N1  UNL     1      32.692  61.874  20.183  1.00  0.00    -0.233 N
ATOM     13  H12 UNL     1      31.899  61.779  19.548  1.00  0.00     0.174 HD
ATOM     14  H11 UNL     1      32.511  61.299  21.005  1.00  0.00     0.174 HD
ENDBRANCH   8  12
ENDBRANCH   3   4
ENDBRANCH   2   3
ENDBRANCH   1   2
BRANCH   1  15
HETATM   15  N4  UNL     1      40.048  63.981  18.313  1.00  0.00    -0.340 N
HETATM   16  C5  UNL     1      40.820  65.025  17.753  1.00  0.00     0.289 C
HETATM   17  O1  UNL     1      41.019  65.034  16.520  1.00  0.00    -0.264 OA
ATOM     18  H4  UNL     1      39.878  63.962  19.319  1.00  0.00     0.163 HD
BRANCH  16  19
HETATM   19  C6  UNL     1      41.387  66.085  18.562  1.00  0.00     0.206 A
HETATM   20  N5  UNL     1      42.679  66.423  18.718  1.00  0.00    -0.264 N
HETATM   21  N6  UNL     1      42.778  67.437  19.541  1.00  0.00    -0.218 N
ATOM     22  H5  UNL     1      43.465  65.958  18.263  1.00  0.00     0.190 HD
HETATM   23  N7  UNL     1      41.551  67.784  19.940  1.00  0.00    -0.158 N
ATOM     24  H6  UNL     1      43.647  67.887  19.829  1.00  0.00     0.210 HD
HETATM   25  N11 UNL     1      40.724  66.953  19.337  1.00  0.00    -0.255 N
ATOM     26  H11 UNL     1      39.710  66.969  19.446  1.00  0.00     0.191 HD
BRANCH  23  27
HETATM   27  C7  UNL     1      41.200  68.823  20.829  1.00  0.00     0.214 A
HETATM   28  N8  UNL     1      41.537  70.130  20.649  1.00  0.00    -0.219 N
HETATM   29  O2  UNL     1      41.061  70.821  21.649  1.00  0.00    -0.153 OA
ATOM     30  H8  UNL     1      42.070  70.505  19.865  1.00  0.00     0.198 HD
HETATM   31  N9  UNL     1      40.431  70.037  22.473  1.00  0.00    -0.222 N
HETATM   32  C8  UNL     1      40.498  68.776  21.988  1.00  0.00     0.171 A
ATOM     33  H9  UNL     1      39.967  70.323  23.335  1.00  0.00     0.198 HD
BRANCH  32  34
HETATM   34  N10 UNL     1      39.982  67.753  22.550  1.00  0.00    -0.381 N
ATOM     35 2H10 UNL     1      40.302  66.794  22.417  1.00  0.00     0.157 HD
ATOM     36 1H10 UNL     1      39.195  67.725  23.199  1.00  0.00     0.157 HD
ENDBRANCH  32  34
ENDBRANCH  23  27
ENDBRANCH  16  19
ENDBRANCH   1  15
BRANCH   1  37
HETATM   37  C9  UNL     1      40.423  61.795  17.274  1.00  0.00     0.245 C
HETATM   38  O3  UNL     1      40.297  60.813  18.034  1.00  0.00    -0.271 OA
HETATM   39  N12 UNL     1      41.396  61.830  16.276  1.00  0.00    -0.325 N
ATOM     40  H12 UNL     1      41.435  62.675  15.706  1.00  0.00     0.169 HD
BRANCH  39  41
HETATM   41  C10 UNL     1      42.333  60.817  15.972  1.00  0.00     0.037 A
HETATM   42  C11 UNL     1      43.565  61.230  15.480  1.00  0.00     0.032 A
HETATM   43  C12 UNL     1      44.507  60.297  15.147  1.00  0.00     0.042 A
HETATM   44  C13 UNL     1      44.272  58.944  15.285  1.00  0.00     0.102 A
HETATM   45  C14 UNL     1      43.065  58.495  15.768  1.00  0.00     0.104 A
HETATM   46  O5  UNL     1      45.210  57.972  14.956  1.00  0.00    -0.346 OA
HETATM   47  C15 UNL     1      42.116  59.473  16.102  1.00  0.00     0.069 A
HETATM   48  O4  UNL     1      42.773  57.143  15.928  1.00  0.00    -0.346 OA
HETATM   49  C16 UNL     1      43.833  56.223  15.871  1.00  0.00     0.202 C
HETATM   50  C17 UNL     1      44.781  56.634  14.781  1.00  0.00     0.202 C
ENDBRANCH  39  41
ENDBRANCH   1  37
TORSDOF 10
ENDMDL