MODEL 2
REMARK VINA RESULT: -6.686956980      0.998      1.447
REMARK  11 active torsions:
REMARK  status: ('A' for Active; 'I' for Inactive)
REMARK    1  A    between atoms: C2_2  and  N1_3
REMARK    2  A    between atoms: N1_3  and  C3_4
REMARK    3  A    between atoms: N1_3  and  C5_10
REMARK    4  A    between atoms: C3_4  and  C4_5
REMARK    5  A    between atoms: C4_5  and  S1_6
REMARK    6  A    between atoms: C6_11  and  C7_12
REMARK    7  A    between atoms: C8_14  and  N2_15
REMARK    8  A    between atoms: C9_20  and  N4_21
REMARK    9  A    between atoms: C11_29  and  N7_30
REMARK   10  A    between atoms: N7_30  and  N8_32
REMARK   11  A    between atoms: C14_42  and  N11_43
ROOT
HETATM    1  C5  UNL     1      36.500  62.632  16.573  1.00  0.00     0.093 A
HETATM    2  C6  UNL     1      37.634  62.739  17.300  1.00  0.00     0.084 A
HETATM    3  N5  UNL     1      38.451  61.637  17.375  1.00  0.00    -0.338 N
ATOM      4  H5  UNL     1      39.306  61.718  17.925  1.00  0.00     0.167 HD
HETATM    5  C10 UNL     1      38.211  60.486  16.790  1.00  0.00     0.138 A
HETATM    6  N6  UNL     1      39.096  59.494  16.947  1.00  0.00    -0.174 N
ATOM      7  H6  UNL     1      39.931  59.643  17.513  1.00  0.00     0.186 HD
HETATM    8  C11 UNL     1      38.888  58.302  16.360  1.00  0.00     0.699 A
HETATM    9  N9  UNL     1      37.785  58.156  15.630  1.00  0.00    -0.175 N
ATOM     10  H9  UNL     1      37.624  57.254  15.181  1.00  0.00     0.186 HD
HETATM   11  C12 UNL     1      36.859  59.138  15.447  1.00  0.00     0.131 A
HETATM   12  N10 UNL     1      35.832  58.932  14.724  1.00  0.00    -0.384 N
ATOM     13 1H10 UNL     1      35.138  59.667  14.586  1.00  0.00     0.157 HD
ATOM     14 2H10 UNL     1      35.696  58.020  14.288  1.00  0.00     0.157 HD
HETATM   15  C13 UNL     1      37.044  60.372  16.038  1.00  0.00     0.088 A
HETATM   16  C14 UNL     1      36.171  61.435  15.914  1.00  0.00     0.149 A
ENDROOT
BRANCH   2  17
HETATM   17  C7  UNL     1      38.150  63.923  17.991  1.00  0.00     0.087 A
HETATM   18  S2  UNL     1      39.047  65.243  17.408  1.00  0.00    -0.048 SA
HETATM   19  C8  UNL     1      39.181  66.128  18.855  1.00  0.00     0.144 A
HETATM   20  N3  UNL     1      38.525  65.366  19.734  1.00  0.00    -0.317 N
HETATM   21  C9  UNL     1      37.996  64.250  19.321  1.00  0.00     0.195 A
ATOM     22  H3  UNL     1      38.440  65.652  20.709  1.00  0.00     0.169 HD
BRANCH  19  23
HETATM   23  N2  UNL     1      39.774  67.282  19.091  1.00  0.00    -0.380 N
ATOM     24  H22 UNL     1      40.547  67.694  18.568  1.00  0.00     0.158 HD
ATOM     25  H21 UNL     1      39.593  67.976  19.816  1.00  0.00     0.158 HD
ENDBRANCH  19  23
BRANCH  21  26
HETATM   26  N4  UNL     1      37.221  63.372  20.191  1.00  0.00    -0.096 N
HETATM   27  O4  UNL     1      37.529  62.204  20.406  1.00  0.00    -0.530 OA
HETATM   28  O5  UNL     1      36.077  63.829  20.811  1.00  0.00    -0.530 OA
ENDBRANCH  21  26
ENDBRANCH   2  17
BRANCH   1  29
HETATM   29  N1  UNL     1      35.532  63.680  16.539  1.00  0.00    -0.376 N
BRANCH  29  30
HETATM   30  C2  UNL     1      35.413  64.560  15.422  1.00  0.00     0.118 C
HETATM   31  C1  UNL     1      34.049  64.828  14.900  1.00  0.00     0.026 C
ENDBRANCH  29  30
BRANCH  29  32
HETATM   32  C3  UNL     1      34.562  63.836  17.630  1.00  0.00     0.140 C
BRANCH  32  33
HETATM   33  C4  UNL     1      34.130  62.559  18.266  1.00  0.00     0.185 C
BRANCH  33  34
HETATM   34  S1  UNL     1      32.971  62.944  19.597  1.00  0.00     0.103 S
HETATM   35  O1  UNL     1      33.393  62.133  20.773  1.00  0.00    -0.595 OA
HETATM   36  O2  UNL     1      31.568  62.659  19.152  1.00  0.00    -0.595 OA
HETATM   37  O3  UNL     1      33.096  64.587  19.899  1.00  0.00    -0.595 OA
ENDBRANCH  33  34
ENDBRANCH  32  33
ENDBRANCH  29  32
ENDBRANCH   1  29
BRANCH  16  38
HETATM   38  N11 UNL     1      34.989  61.263  15.177  1.00  0.00    -0.112 N
HETATM   39  O6  UNL     1      33.887  60.879  15.599  1.00  0.00    -0.532 OA
HETATM   40  O7  UNL     1      35.013  61.574  13.815  1.00  0.00    -0.532 OA
ENDBRANCH  16  38
BRANCH   8  41
HETATM   41  N7  UNL     1      39.772  57.387  16.550  1.00  0.00    -0.138 N
ATOM     42  H7  UNL     1      39.466  56.415  16.496  1.00  0.00     0.205 HD
BRANCH  41  43
HETATM   43  N8  UNL     1      41.115  57.624  16.821  1.00  0.00    -0.331 N
ATOM     44  H82 UNL     1      41.336  58.502  17.291  1.00  0.00     0.177 HD
ATOM     45  H81 UNL     1      41.878  56.989  16.586  1.00  0.00     0.177 HD
ENDBRANCH  41  43
ENDBRANCH   8  41
TORSDOF 11
ENDMDL