MODEL 4
REMARK VINA RESULT: -6.829723532      3.815      9.010
REMARK  13 active torsions:
REMARK  status: ('A' for Active; 'I' for Inactive)
REMARK    1  A    between atoms: O1_2  and  C2_3
REMARK    2  A    between atoms: C2_3  and  C3_5
REMARK    3  A    between atoms: C5_7  and  N1_8
REMARK    4  A    between atoms: N1_8  and  S1_10
REMARK    5  A    between atoms: S1_10  and  C6_13
REMARK    6  A    between atoms: C6_13  and  C10_30
REMARK    7  A    between atoms: N2_14  and  N3_16
REMARK       I    between atoms: N3_16  and  C7_18
REMARK    8  A    between atoms: C7_18  and  C8_20
REMARK    9  A    between atoms: C9_26  and  N6_27
REMARK   10  A    between atoms: C10_30  and  C12_32
REMARK   11  A    between atoms: C12_32  and  O7_33
REMARK   12  A    between atoms: C12_32  and  C13_35
REMARK   13  A    between atoms: C15_37  and  N7_38
ROOT
HETATM    1  C6  UNL     1      37.688  62.602  17.868  1.00  0.00     0.148 C
HETATM    2  N2  UNL     1      36.582  62.033  17.429  1.00  0.00    -0.289 N
ATOM      3  H2  UNL     1      36.564  61.556  16.528  1.00  0.00     0.187 HD
ENDROOT
BRANCH   1   4
HETATM    4  S1  UNL     1      37.712  63.409  19.401  1.00  0.00     0.276 S
HETATM    5  O3  UNL     1      36.502  64.353  19.421  1.00  0.00    -0.199 OA
HETATM    6  O4  UNL     1      37.463  62.376  20.501  1.00  0.00    -0.199 OA
BRANCH   4   7
HETATM    7  N1  UNL     1      39.134  64.264  19.661  1.00  0.00    -0.279 N
ATOM      8  H1  UNL     1      39.593  64.095  20.555  1.00  0.00     0.179 HD
BRANCH   7   9
HETATM    9  C5  UNL     1      39.792  65.208  18.788  1.00  0.00     0.050 A
HETATM   10  C4  UNL     1      41.039  65.010  18.305  1.00  0.00     0.055 A
HETATM   11  C3  UNL     1      41.554  65.952  17.470  1.00  0.00     0.082 A
HETATM   12  S2  UNL     1      40.301  67.099  17.367  1.00  0.00    -0.094 SA
HETATM   13  C16 UNL     1      39.156  66.350  18.387  1.00  0.00     0.080 A
BRANCH  11  14
HETATM   14  C2  UNL     1      42.875  65.946  16.834  1.00  0.00     0.299 C
HETATM   15  O2  UNL     1      43.633  66.923  16.963  1.00  0.00    -0.259 OA
BRANCH  14  16
HETATM   16  O1  UNL     1      43.272  64.864  16.099  1.00  0.00    -0.322 OA
HETATM   17  C1  UNL     1      44.400  64.835  15.260  1.00  0.00     0.213 C
ENDBRANCH  14  16
ENDBRANCH  11  14
ENDBRANCH   7   9
ENDBRANCH   4   7
ENDBRANCH   1   4
BRANCH   1  18
HETATM   18  C10 UNL     1      38.850  62.499  16.991  1.00  0.00     0.082 C
HETATM   19  C11 UNL     1      38.485  62.841  15.549  1.00  0.00     0.020 C
BRANCH  18  20
HETATM   20  C12 UNL     1      39.419  61.091  17.048  1.00  0.00     0.187 C
BRANCH  20  21
HETATM   21  O7  UNL     1      39.279  60.682  18.377  1.00  0.00    -0.388 OA
ATOM     22  H7  UNL     1      40.079  60.952  18.814  1.00  0.00     0.210 HD
ENDBRANCH  20  21
BRANCH  20  23
HETATM   23  C13 UNL     1      40.830  61.039  16.587  1.00  0.00     0.109 A
HETATM   24  C14 UNL     1      41.526  59.892  16.239  1.00  0.00     0.087 A
HETATM   25  C15 UNL     1      42.812  60.263  15.865  1.00  0.00     0.121 A
HETATM   26  N8  UNL     1      42.831  61.598  16.004  1.00  0.00    -0.245 N
HETATM   27  O8  UNL     1      41.677  62.027  16.422  1.00  0.00    -0.238 OA
ATOM     28  H8  UNL     1      43.637  62.192  15.808  1.00  0.00     0.196 HD
BRANCH  25  29
HETATM   29  N7  UNL     1      43.773  59.503  15.473  1.00  0.00    -0.384 N
ATOM     30  H72 UNL     1      44.753  59.545  15.757  1.00  0.00     0.157 HD
ATOM     31  H71 UNL     1      43.732  58.728  14.811  1.00  0.00     0.157 HD
ENDBRANCH  25  29
ENDBRANCH  20  23
ENDBRANCH  18  20
ENDBRANCH   1  18
BRANCH   2  32
HETATM   32  N3  UNL     1      35.429  62.098  18.232  1.00  0.00    -0.264 N
HETATM   33  C7  UNL     1      34.306  62.807  17.797  1.00  0.00     0.292 C
HETATM   34  O5  UNL     1      34.380  63.385  16.648  1.00  0.00    -0.264 OA
ATOM     35  H3  UNL     1      35.411  61.624  19.136  1.00  0.00     0.190 HD
BRANCH  33  36
HETATM   36  C8  UNL     1      33.065  62.943  18.533  1.00  0.00     0.171 A
HETATM   37  N4  UNL     1      32.685  62.141  19.577  1.00  0.00    -0.232 N
HETATM   38  O6  UNL     1      31.530  62.517  20.018  1.00  0.00    -0.155 OA
ATOM     39  H4  UNL     1      33.232  61.365  19.950  1.00  0.00     0.197 HD
HETATM   40  N5  UNL     1      31.109  63.529  19.330  1.00  0.00    -0.224 N
HETATM   41  C9  UNL     1      32.043  63.833  18.381  1.00  0.00     0.155 A
ATOM     42  H5  UNL     1      30.226  64.019  19.472  1.00  0.00     0.198 HD
BRANCH  41  43
HETATM   43  N6  UNL     1      31.961  64.781  17.517  1.00  0.00    -0.382 N
ATOM     44  H62 UNL     1      32.551  65.612  17.481  1.00  0.00     0.157 HD
ATOM     45  H61 UNL     1      31.304  64.852  16.741  1.00  0.00     0.157 HD
ENDBRANCH  41  43
ENDBRANCH  33  36
ENDBRANCH   2  32
TORSDOF 13
ENDMDL