MODEL 5
REMARK VINA RESULT: -6.276250853      3.024      8.826
REMARK  12 active torsions:
REMARK  status: ('A' for Active; 'I' for Inactive)
REMARK    1  A    between atoms: C2_2  and  N1_3
REMARK    2  A    between atoms: C2_2  and  C10_23
REMARK       I    between atoms: N1_3  and  C3_5
REMARK    3  A    between atoms: C3_5  and  C4_7
REMARK    4  A    between atoms: C4_7  and  S1_8
REMARK    5  A    between atoms: S1_8  and  C5_9
REMARK    6  A    between atoms: C9_17  and  N5_18
REMARK    7  A    between atoms: C10_23  and  N7_24
REMARK    8  A    between atoms: C10_23  and  C15_38
REMARK    9  A    between atoms: C11_26  and  C12_27
REMARK   10  A    between atoms: C11_26  and  C13_30
REMARK   11  A    between atoms: C15_38  and  O4_40
REMARK   12  A    between atoms: O4_40  and  N11_41
ROOT
HETATM    1  C5  UNL     1      36.966  63.355  18.736  1.00  0.00     0.147 A
HETATM    2  N2  UNL     1      36.478  63.981  19.827  1.00  0.00    -0.324 N
ATOM      3  H2  UNL     1      37.075  64.563  20.416  1.00  0.00     0.169 HD
HETATM    4  C6  UNL     1      35.173  63.809  20.109  1.00  0.00     0.142 A
HETATM    5  N3  UNL     1      34.580  64.447  21.241  1.00  0.00    -0.081 NA
HETATM    6  C7  UNL     1      34.343  63.014  19.310  1.00  0.00     0.129 A
HETATM    7  C8  UNL     1      32.966  62.846  19.608  1.00  0.00     0.106 C
HETATM    8  N4  UNL     1      31.818  62.721  19.839  1.00  0.00    -0.191 NA
HETATM    9  C9  UNL     1      34.892  62.393  18.202  1.00  0.00     0.125 A
HETATM   10  N6  UNL     1      36.189  62.576  17.940  1.00  0.00    -0.322 N
ATOM     11  H6  UNL     1      36.603  62.121  17.126  1.00  0.00     0.169 HD
ENDROOT
BRANCH   9  12
HETATM   12  N5  UNL     1      34.146  61.642  17.437  1.00  0.00    -0.384 N
ATOM     13  H52 UNL     1      34.504  61.259  16.563  1.00  0.00     0.157 HD
ATOM     14  H51 UNL     1      33.187  61.427  17.711  1.00  0.00     0.157 HD
ENDBRANCH   9  12
BRANCH   1  15
HETATM   15  S1  UNL     1      38.680  63.579  18.287  1.00  0.00    -0.085 SA
BRANCH  15  16
HETATM   16  C4  UNL     1      38.894  65.143  17.357  1.00  0.00     0.185 C
BRANCH  16  17
HETATM   17  C3  UNL     1      39.080  66.277  18.316  1.00  0.00     0.227 C
HETATM   18  N1  UNL     1      39.236  67.620  17.784  1.00  0.00    -0.351 N
ATOM     19  H1  UNL     1      39.210  67.758  16.773  1.00  0.00     0.163 HD
HETATM   20  O1  UNL     1      39.096  66.029  19.532  1.00  0.00    -0.273 OA
BRANCH  18  21
HETATM   21  C2  UNL     1      39.429  68.763  18.641  1.00  0.00     0.136 C
HETATM   22  C1  UNL     1      38.584  69.920  18.170  1.00  0.00     0.039 C
BRANCH  21  23
HETATM   23  C10 UNL     1      40.830  69.083  19.008  1.00  0.00     0.110 C
BRANCH  23  24
HETATM   24  N7  UNL     1      41.803  68.466  18.247  1.00  0.00    -0.346 N
HETATM   25  C11 UNL     1      42.991  68.190  18.132  1.00  0.00     0.134 C
ATOM     26  H7  UNL     1      41.332  68.071  17.433  1.00  0.00     0.166 HD
BRANCH  25  27
HETATM   27  C12 UNL     1      44.138  68.481  18.968  1.00  0.00     0.284 C
HETATM   28  N8  UNL     1      44.392  67.718  20.137  1.00  0.00    -0.056 NA
HETATM   29  O2  UNL     1      44.968  69.396  18.739  1.00  0.00    -0.269 OA
ENDBRANCH  25  27
BRANCH  25  30
HETATM   30  C13 UNL     1      43.330  67.389  16.901  1.00  0.00     0.123 A
HETATM   31  N9  UNL     1      44.351  67.586  16.071  1.00  0.00    -0.290 N
HETATM   32  N10 UNL     1      44.515  66.817  15.079  1.00  0.00    -0.283 N
ATOM     33  H9  UNL     1      45.002  68.354  16.235  1.00  0.00     0.187 HD
HETATM   34  C14 UNL     1      43.645  65.817  14.890  1.00  0.00     0.159 A
ATOM     35  H10 UNL     1      45.295  66.957  14.436  1.00  0.00     0.188 HD
HETATM   36  S2  UNL     1      43.631  64.686  13.689  1.00  0.00    -0.051 SA
HETATM   37  S3  UNL     1      42.579  66.034  16.209  1.00  0.00    -0.038 SA
ENDBRANCH  25  30
ENDBRANCH  23  24
BRANCH  23  38
HETATM   38  C15 UNL     1      41.122  69.146  20.464  1.00  0.00     0.329 C
HETATM   39  O3  UNL     1      41.440  70.112  21.136  1.00  0.00    -0.256 OA
BRANCH  38  40
HETATM   40  O4  UNL     1      41.018  67.910  21.156  1.00  0.00    -0.201 OA
BRANCH  40  41
HETATM   41  N11 UNL     1      40.038  67.769  22.120  1.00  0.00    -0.302 N
ATOM     42 2H11 UNL     1      39.717  66.837  22.381  1.00  0.00     0.184 HD
ATOM     43 1H11 UNL     1      39.651  68.607  22.555  1.00  0.00     0.184 HD
ENDBRANCH  40  41
ENDBRANCH  38  40
ENDBRANCH  23  38
ENDBRANCH  21  23
ENDBRANCH  18  21
ENDBRANCH  16  17
ENDBRANCH  15  16
ENDBRANCH   1  15
TORSDOF 12
ENDMDL