MODEL 4
REMARK VINA RESULT: -7.170855367      3.225      5.136
REMARK  11 active torsions:
REMARK  status: ('A' for Active; 'I' for Inactive)
REMARK    1  A    between atoms: N1_2  and  C2_4
REMARK    2  A    between atoms: C3_5  and  N2_6
REMARK    3  A    between atoms: N2_6  and  C4_8
REMARK    4  A    between atoms: C7_14  and  S1_15
REMARK    5  A    between atoms: S1_15  and  C8_16
REMARK    6  A    between atoms: C8_16  and  C9_17
REMARK    7  A    between atoms: C9_17  and  C10_19
REMARK    8  A    between atoms: C11_20  and  O3_21
REMARK    9  A    between atoms: N4_23  and  C12_24
REMARK   10  A    between atoms: N5_29  and  O5_30
REMARK   11  A    between atoms: C17_38  and  N8_39
ROOT
HETATM    1  C4  UNL     1      40.132  68.602  18.682  1.00  0.00     0.114 A
HETATM    2  C5  UNL     1      41.451  68.313  18.837  1.00  0.00     0.123 A
HETATM    3  C6  UNL     1      41.870  66.967  18.826  1.00  0.00     0.250 A
HETATM    4  O1  UNL     1      43.099  66.760  18.972  1.00  0.00    -0.268 OA
HETATM    5  N3  UNL     1      40.974  65.993  18.668  1.00  0.00    -0.304 N
ATOM      6  H3  UNL     1      41.289  65.023  18.662  1.00  0.00     0.171 HD
HETATM    7  C7  UNL     1      39.667  66.256  18.515  1.00  0.00     0.148 A
HETATM    8  N6  UNL     1      39.269  67.525  18.524  1.00  0.00    -0.323 N
ATOM      9  H6  UNL     1      38.274  67.718  18.408  1.00  0.00     0.169 HD
ENDROOT
BRANCH   7  10
HETATM   10  S1  UNL     1      38.465  64.919  18.298  1.00  0.00    -0.086 SA
BRANCH  10  11
HETATM   11  C8  UNL     1      37.869  64.480  19.993  1.00  0.00     0.166 C
BRANCH  11  12
HETATM   12  C9  UNL     1      37.054  63.255  19.927  1.00  0.00     0.179 C
HETATM   13  O2  UNL     1      37.495  62.189  20.449  1.00  0.00    -0.291 OA
BRANCH  12  14
HETATM   14  C10 UNL     1      35.767  63.233  19.286  1.00  0.00     0.132 A
HETATM   15  C11 UNL     1      35.554  62.582  18.092  1.00  0.00     0.166 A
HETATM   16  N4  UNL     1      34.306  62.626  17.561  1.00  0.00    -0.272 N
HETATM   17  C15 UNL     1      33.300  63.265  18.145  1.00  0.00     0.358 A
HETATM   18  O4  UNL     1      32.165  63.264  17.588  1.00  0.00    -0.244 OA
HETATM   19  N5  UNL     1      33.522  63.892  19.301  1.00  0.00    -0.133 N
HETATM   20  C16 UNL     1      34.700  63.906  19.893  1.00  0.00     0.294 A
HETATM   21  O6  UNL     1      34.910  64.505  21.000  1.00  0.00    -0.264 OA
BRANCH  15  22
HETATM   22  O3  UNL     1      36.563  61.894  17.431  1.00  0.00    -0.345 OA
ATOM     23  H3  UNL     1      36.393  61.351  16.670  1.00  0.00     0.219 HD
ENDBRANCH  15  22
BRANCH  16  24
HETATM   24  C12 UNL     1      34.126  61.922  16.289  1.00  0.00     0.097 A
HETATM   25  C13 UNL     1      33.849  62.818  15.120  1.00  0.00     0.028 A
HETATM   26  C14 UNL     1      35.120  62.037  15.209  1.00  0.00     0.028 A
ENDBRANCH  16  24
BRANCH  19  27
HETATM   27  O5  UNL     1      32.463  64.549  19.885  1.00  0.00    -0.276 OA
ATOM     28  H5  UNL     1      31.635  64.087  19.942  1.00  0.00     0.245 HD
ENDBRANCH  19  27
ENDBRANCH  12  14
ENDBRANCH  11  12
ENDBRANCH  10  11
ENDBRANCH   7  10
BRANCH   1  29
HETATM   29  N2  UNL     1      39.574  69.884  18.671  1.00  0.00    -0.326 N
ATOM     30  H2  UNL     1      40.290  70.609  18.613  1.00  0.00     0.169 HD
BRANCH  29  31
HETATM   31  C3  UNL     1      38.297  70.425  18.718  1.00  0.00     0.154 A
HETATM   32  C2  UNL     1      37.832  70.933  19.966  1.00  0.00     0.142 A
HETATM   33  C18 UNL     1      36.587  71.490  20.110  1.00  0.00     0.289 A
HETATM   34  N9  UNL     1      35.776  71.564  19.057  1.00  0.00    -0.154 N
HETATM   35  O7  UNL     1      36.256  71.918  21.262  1.00  0.00    -0.265 OA
HETATM   36  C17 UNL     1      36.203  71.093  17.892  1.00  0.00     0.680 A
ATOM     37  H9  UNL     1      34.846  71.973  19.142  1.00  0.00     0.187 HD
HETATM   38  N7  UNL     1      37.442  70.528  17.707  1.00  0.00    -0.174 N
ATOM     39  H7  UNL     1      37.707  70.185  16.784  1.00  0.00     0.186 HD
BRANCH  32  40
HETATM   40  N1  UNL     1      38.725  70.833  21.070  1.00  0.00    -0.387 N
HETATM   41  C1  UNL     1      39.582  71.973  21.359  1.00  0.00     0.146 C
ATOM     42  H1  UNL     1      38.763  69.988  21.640  1.00  0.00     0.159 HD
ENDBRANCH  32  40
BRANCH  36  43
HETATM   43  N8  UNL     1      35.420  71.167  16.887  1.00  0.00    -0.234 N
ATOM     44  H82 UNL     1      34.505  70.720  16.953  1.00  0.00     0.174 HD
ATOM     45  H81 UNL     1      35.744  71.671  16.061  1.00  0.00     0.174 HD
ENDBRANCH  36  43
ENDBRANCH  29  31
ENDBRANCH   1  29
TORSDOF 11
ENDMDL