MODEL 4
REMARK VINA RESULT: -6.885741015      2.984      6.213
REMARK  13 active torsions:
REMARK  status: ('A' for Active; 'I' for Inactive)
REMARK    1  A    between atoms: O1_2  and  N1_3
REMARK    2  A    between atoms: N1_3  and  C2_4
REMARK    3  A    between atoms: C2_4  and  C3_5
REMARK    4  A    between atoms: C2_4  and  C14_38
REMARK       I    between atoms: C3_5  and  N2_7
REMARK    5  A    between atoms: N2_7  and  C4_9
REMARK    6  A    between atoms: C4_9  and  C7_20
REMARK    7  A    between atoms: N3_10  and  N4_12
REMARK    8  A    between atoms: N4_12  and  C5_14
REMARK       I    between atoms: C7_20  and  N7_22
REMARK    9  A    between atoms: N7_22  and  C8_24
REMARK   10  A    between atoms: C10_26  and  O4_27
REMARK   11  A    between atoms: C11_29  and  N8_30
REMARK   12  A    between atoms: C13_34  and  N9_35
REMARK   13  A    between atoms: C16_41  and  N10_42
ROOT
HETATM    1  C4  UNL     1      38.100  62.781  17.815  1.00  0.00     0.192 C
HETATM    2  N3  UNL     1      39.010  63.369  18.442  1.00  0.00    -0.278 N
ATOM      3  H3  UNL     1      39.828  62.790  18.254  1.00  0.00     0.189 HD
ENDROOT
BRANCH   1   4
HETATM    4  N2  UNL     1      38.494  61.617  17.127  1.00  0.00    -0.301 N
HETATM    5  C3  UNL     1      39.660  60.840  17.184  1.00  0.00     0.293 C
HETATM    6  O2  UNL     1      40.642  61.031  17.894  1.00  0.00    -0.264 OA
ATOM      7  H2  UNL     1      37.800  61.275  16.461  1.00  0.00     0.171 HD
BRANCH   5   8
HETATM    8  C2  UNL     1      39.697  59.662  16.279  1.00  0.00     0.234 C
BRANCH   8   9
HETATM    9  N1  UNL     1      38.682  59.324  15.686  1.00  0.00    -0.274 NA
BRANCH   9  10
HETATM   10  O1  UNL     1      37.496  59.207  15.311  1.00  0.00    -0.214 OA
HETATM   11  C1  UNL     1      36.635  58.110  15.535  1.00  0.00     0.255 C
ENDBRANCH   9  10
ENDBRANCH   8   9
BRANCH   8  12
HETATM   12  C14 UNL     1      40.999  58.912  16.108  1.00  0.00     0.090 A
HETATM   13  C15 UNL     1      41.142  57.573  16.268  1.00  0.00     0.086 A
HETATM   14  S1  UNL     1      42.832  57.340  15.955  1.00  0.00    -0.064 SA
HETATM   15  C16 UNL     1      43.225  58.958  15.644  1.00  0.00     0.142 A
HETATM   16  N11 UNL     1      42.077  59.602  15.788  1.00  0.00    -0.334 N
ATOM     17  H11 UNL     1      42.028  60.612  15.654  1.00  0.00     0.168 HD
BRANCH  15  18
HETATM   18  N10 UNL     1      44.402  59.471  15.330  1.00  0.00    -0.380 N
ATOM     19 2H10 UNL     1      44.999  60.056  15.914  1.00  0.00     0.158 HD
ATOM     20 1H10 UNL     1      44.921  59.378  14.459  1.00  0.00     0.158 HD
ENDBRANCH  15  18
ENDBRANCH   8  12
ENDBRANCH   5   8
ENDBRANCH   1   4
BRANCH   1  21
HETATM   21  C7  UNL     1      36.760  63.354  17.862  1.00  0.00     0.291 C
HETATM   22  O3  UNL     1      36.673  64.572  17.596  1.00  0.00    -0.264 OA
HETATM   23  N7  UNL     1      35.614  62.598  18.185  1.00  0.00    -0.318 N
ATOM     24  H7  UNL     1      35.748  61.610  18.400  1.00  0.00     0.169 HD
BRANCH  23  25
HETATM   25  C8  UNL     1      34.300  63.100  18.234  1.00  0.00     0.071 A
HETATM   26  C9  UNL     1      33.437  63.102  17.156  1.00  0.00     0.071 A
HETATM   27  C10 UNL     1      32.113  63.542  17.257  1.00  0.00     0.101 A
HETATM   28  C11 UNL     1      31.597  63.997  18.442  1.00  0.00     0.138 A
HETATM   29  C12 UNL     1      32.461  63.992  19.510  1.00  0.00     0.077 A
HETATM   30  C13 UNL     1      33.773  63.568  19.448  1.00  0.00     0.132 A
BRANCH  27  31
HETATM   31  O4  UNL     1      31.261  63.532  16.138  1.00  0.00    -0.358 OA
ATOM     32  H4  UNL     1      30.377  63.877  16.195  1.00  0.00     0.217 HD
ENDBRANCH  27  31
BRANCH  28  33
HETATM   33  N8  UNL     1      30.255  64.446  18.557  1.00  0.00    -0.113 N
HETATM   34  O5  UNL     1      29.511  63.959  19.405  1.00  0.00    -0.532 OA
HETATM   35  O6  UNL     1      29.770  65.425  17.728  1.00  0.00    -0.532 OA
ENDBRANCH  28  33
BRANCH  30  36
HETATM   36  N9  UNL     1      34.533  63.627  20.624  1.00  0.00    -0.113 N
HETATM   37  O7  UNL     1      35.366  62.809  20.973  1.00  0.00    -0.532 OA
HETATM   38  O8  UNL     1      34.358  64.738  21.440  1.00  0.00    -0.532 OA
ENDBRANCH  30  36
ENDBRANCH  23  25
ENDBRANCH   1  21
BRANCH   2  39
HETATM   39  N4  UNL     1      39.487  64.311  19.198  1.00  0.00    -0.270 N
ATOM     40  H4  UNL     1      39.870  64.028  20.100  1.00  0.00     0.190 HD
BRANCH  39  41
HETATM   41  C5  UNL     1      39.527  65.729  18.885  1.00  0.00     0.192 A
HETATM   42  N5  UNL     1      39.205  66.346  17.806  1.00  0.00    -0.345 N
HETATM   43  C6  UNL     1      39.559  67.619  18.407  1.00  0.00     0.249 A
ATOM     44  H5  UNL     1      38.845  66.058  16.895  1.00  0.00     0.164 HD
HETATM   45  N6  UNL     1      39.907  66.881  19.607  1.00  0.00    -0.345 N
ATOM     46  H6  UNL     1      40.261  67.095  20.539  1.00  0.00     0.164 HD
ENDBRANCH  39  41
ENDBRANCH   2  39
TORSDOF 13
ENDMDL