MODEL 5
REMARK VINA RESULT: -5.368377837      9.166     10.972
REMARK  7 active torsions:
REMARK  status: ('A' for Active; 'I' for Inactive)
REMARK    1  A    between atoms: C1_2  and  C2_3
REMARK    2  A    between atoms: C2_3  and  O2_4
REMARK    3  A    between atoms: C2_3  and  C3_6
REMARK       I    between atoms: C3_6  and  N1_8
REMARK    4  A    between atoms: N1_8  and  C4_10
REMARK    5  A    between atoms: C12_19  and  C13_20
REMARK    6  A    between atoms: C13_20  and  O4_21
REMARK    7  A    between atoms: C13_20  and  O5_23
ROOT
HETATM    1  C4  UNL     1       5.645 -12.893  14.091  1.00  0.00     0.069 C
HETATM    2  C5  UNL     1       6.738 -12.483  15.047  1.00  0.00     0.034 C
HETATM    3  C6  UNL     1       8.017 -13.138  14.596  1.00  0.00     0.007 C
HETATM    4  C7  UNL     1       7.620 -14.025  13.438  1.00  0.00    -0.012 C
HETATM    5  C8  UNL     1       7.604 -15.457  13.700  1.00  0.00     0.012 C
HETATM    6  C9  UNL     1       6.631 -16.138  14.504  1.00  0.00     0.043 C
HETATM    7  C10 UNL     1       5.207 -16.137  14.070  1.00  0.00     0.279 C
HETATM    8  N2  UNL     1       4.978 -15.113  15.051  1.00  0.00     0.101 N
HETATM    9  C11 UNL     1       6.091 -15.522  15.746  1.00  0.00     0.279 C
HETATM   10  C12 UNL     1       4.667 -13.844  14.613  1.00  0.00     0.305 C
HETATM   11  C14 UNL     1       6.432 -13.357  12.895  1.00  0.00     0.038 C
ENDROOT
BRANCH   1  12
HETATM   12  N1  UNL     1       4.941 -11.686  13.702  1.00  0.00    -0.347 N
HETATM   13  C3  UNL     1       5.443 -10.572  13.038  1.00  0.00     0.254 C
HETATM   14  O3  UNL     1       6.632 -10.484  12.688  1.00  0.00    -0.270 OA
ATOM     15  H1  UNL     1       3.951 -11.649  13.946  1.00  0.00     0.163 HD
BRANCH  13  16
HETATM   16  C2  UNL     1       4.580  -9.384  12.694  1.00  0.00     0.270 C
BRANCH  16  17
HETATM   17  C1  UNL     1       3.154  -9.622  12.973  1.00  0.00     0.272 C
HETATM   18  O1  UNL     1       2.771  -9.819  14.087  1.00  0.00    -0.304 OA
ENDBRANCH  16  17
BRANCH  16  19
HETATM   19  O2  UNL     1       4.724  -9.023  11.364  1.00  0.00    -0.379 OA
ATOM     20  H2  UNL     1       4.746  -9.808  10.832  1.00  0.00     0.211 HD
ENDBRANCH  16  19
ENDBRANCH  13  16
ENDBRANCH   1  12
BRANCH  10  21
HETATM   21  C13 UNL     1       3.756 -13.165  15.614  1.00  0.00     0.289 C
BRANCH  21  22
HETATM   22  O4  UNL     1       3.296 -13.986  16.613  1.00  0.00    -0.369 OA
ATOM     23  H4  UNL     1       2.836 -13.536  17.312  1.00  0.00     0.212 HD
ENDBRANCH  21  22
BRANCH  21  24
HETATM   24  O5  UNL     1       2.602 -12.681  14.946  1.00  0.00    -0.369 OA
ATOM     25  H5  UNL     1       2.099 -12.137  15.541  1.00  0.00     0.212 HD
ENDBRANCH  21  24
ENDBRANCH  10  21
TORSDOF 7
ENDMDL