MODEL 3
REMARK VINA RESULT: -5.286716941      4.387      6.664
REMARK  6 active torsions:
REMARK  status: ('A' for Active; 'I' for Inactive)
REMARK    1  A    between atoms: C2_2  and  C3_4
REMARK    2  A    between atoms: C7_8  and  N1_9
REMARK    3  A    between atoms: C7_8  and  C14_22
REMARK       I    between atoms: N1_9  and  C8_11
REMARK    4  A    between atoms: C8_11  and  C9_13
REMARK    5  A    between atoms: C9_13  and  N2_14
REMARK       I    between atoms: C14_22  and  N3_24
REMARK    6  A    between atoms: N3_24  and  N4_26
ROOT
HETATM    1  C3  UNL     1       6.025 -12.173  14.722  1.00  0.00     0.092 C
HETATM    2  C4  UNL     1       7.260 -12.999  15.003  1.00  0.00     0.015 C
HETATM    3  C5  UNL     1       8.115 -12.832  13.784  1.00  0.00     0.004 C
HETATM    4  C6  UNL     1       7.460 -11.775  12.924  1.00  0.00     0.042 C
HETATM    5  C7  UNL     1       6.610 -11.068  13.912  1.00  0.00     0.126 C
ENDROOT
BRANCH   5   6
HETATM    6  N1  UNL     1       7.471 -10.310  14.816  1.00  0.00    -0.340 N
HETATM    7  C8  UNL     1       8.495  -9.458  14.371  1.00  0.00     0.255 C
HETATM    8  O2  UNL     1       8.698  -9.328  13.149  1.00  0.00    -0.271 OA
ATOM      9  H1  UNL     1       7.322 -10.404  15.820  1.00  0.00     0.163 HD
BRANCH   7  10
HETATM   10  C9  UNL     1       9.321  -8.727  15.319  1.00  0.00     0.203 C
HETATM   11  C10 UNL     1       8.533  -7.921  16.321  1.00  0.00     0.049 C
HETATM   12  C11 UNL     1       9.260  -8.059  17.640  1.00  0.00     0.003 C
HETATM   13  C12 UNL     1      10.518  -8.880  17.327  1.00  0.00     0.003 C
HETATM   14  C13 UNL     1       9.972  -9.781  16.228  1.00  0.00     0.049 C
BRANCH  10  15
HETATM   15  N2  UNL     1      10.397  -7.977  14.752  1.00  0.00    -0.061 N
ATOM     16  H23 UNL     1      10.952  -8.574  14.139  1.00  0.00     0.275 HD
ATOM     17  H22 UNL     1      10.035  -7.307  14.074  1.00  0.00     0.275 HD
ATOM     18  H21 UNL     1      11.005  -7.503  15.420  1.00  0.00     0.275 HD
ENDBRANCH  10  15
ENDBRANCH   7  10
ENDBRANCH   5   6
BRANCH   5  19
HETATM   19  C14 UNL     1       5.655 -10.110  13.338  1.00  0.00     0.264 C
HETATM   20  O3  UNL     1       4.656  -9.762  14.040  1.00  0.00    -0.269 OA
HETATM   21  N3  UNL     1       5.765  -9.540  12.056  1.00  0.00    -0.274 N
ATOM     22  H3  UNL     1       6.556  -9.792  11.465  1.00  0.00     0.189 HD
BRANCH  21  23
HETATM   23  N4  UNL     1       4.819  -8.641  11.577  1.00  0.00    -0.343 N
ATOM     24  H42 UNL     1       4.064  -8.359  12.201  1.00  0.00     0.176 HD
ATOM     25  H41 UNL     1       4.870  -8.267  10.630  1.00  0.00     0.176 HD
ENDBRANCH  21  23
ENDBRANCH   5  19
BRANCH   1  26
HETATM   26  C2  UNL     1       5.024 -13.038  14.153  1.00  0.00     0.130 C
HETATM   27  C1  UNL     1       5.136 -14.084  13.127  1.00  0.00     0.091 C
HETATM   28  O1  UNL     1       3.858 -12.912  14.570  1.00  0.00    -0.298 OA
ENDBRANCH   1  26
TORSDOF 6
ENDMDL