MODEL 4
REMARK VINA RESULT: -7.274196670      0.745      1.476
REMARK  6 active torsions:
REMARK  status: ('A' for Active; 'I' for Inactive)
REMARK       I    between atoms: N2_3  and  C2_5
REMARK    1  A    between atoms: C2_5  and  C3_7
REMARK       I    between atoms: C3_7  and  N3_9
REMARK    2  A    between atoms: N3_9  and  C4_11
REMARK    3  A    between atoms: C4_11  and  C5_12
REMARK    4  A    between atoms: C5_12  and  O3_13
REMARK    5  A    between atoms: C5_12  and  N4_15
REMARK    6  A    between atoms: N4_15  and  C6_17
ROOT
HETATM    1  N1  UNL     1      16.254  -8.337  20.197  1.00  0.00    -0.172 NA
HETATM    2  C1  UNL     1      15.235  -7.840  20.154  1.00  0.00     0.184 C
HETATM    3  N2  UNL     1      13.979  -7.219  20.092  1.00  0.00    -0.256 N
ATOM      4  H2  UNL     1      13.828  -6.404  19.495  1.00  0.00     0.181 HD
HETATM    5  C2  UNL     1      12.921  -7.749  20.879  1.00  0.00     0.322 C
HETATM    6  O1  UNL     1      13.092  -8.743  21.600  1.00  0.00    -0.261 OA
ENDROOT
BRANCH   5   7
HETATM    7  C3  UNL     1      11.578  -7.081  20.813  1.00  0.00     0.310 C
HETATM    8  O2  UNL     1      10.720  -7.462  21.623  1.00  0.00    -0.262 OA
HETATM    9  N3  UNL     1      11.409  -6.077  19.822  1.00  0.00    -0.349 N
ATOM     10  H3  UNL     1      12.183  -5.799  19.220  1.00  0.00     0.163 HD
BRANCH   9  11
HETATM   11  C4  UNL     1      10.133  -5.473  19.694  1.00  0.00     0.176 C
BRANCH  11  12
HETATM   12  C5  UNL     1       9.174  -6.049  18.717  1.00  0.00     0.231 C
BRANCH  12  13
HETATM   13  O3  UNL     1       8.629  -7.220  19.343  1.00  0.00    -0.376 OA
ATOM     14  H3  UNL     1       9.080  -7.958  18.952  1.00  0.00     0.212 HD
ENDBRANCH  12  13
BRANCH  12  15
HETATM   15  N4  UNL     1       9.617  -6.201  17.406  1.00  0.00    -0.386 N
ATOM     16  H4  UNL     1       9.953  -5.395  16.878  1.00  0.00     0.156 HD
BRANCH  15  17
HETATM   17  C6  UNL     1       9.597  -7.509  16.805  1.00  0.00     0.032 C
HETATM   18  C7  UNL     1       8.140  -7.985  16.577  1.00  0.00     0.035 C
HETATM   19  C8  UNL     1       8.377  -8.970  15.441  1.00  0.00    -0.011 C
HETATM   20  C9  UNL     1       9.298 -10.096  15.893  1.00  0.00     0.009 C
HETATM   21  C13 UNL     1       9.125  -8.066  14.474  1.00  0.00     0.012 C
HETATM   22  C10 UNL     1      10.614  -9.593  16.382  1.00  0.00    -0.011 C
HETATM   23  C11 UNL     1      11.258  -8.625  15.461  1.00  0.00     0.012 C
HETATM   24  C14 UNL     1      10.237  -8.621  17.550  1.00  0.00     0.035 C
HETATM   25  C12 UNL     1      10.194  -7.510  15.413  1.00  0.00     0.014 C
ENDBRANCH  15  17
ENDBRANCH  12  15
ENDBRANCH  11  12
ENDBRANCH   9  11
ENDBRANCH   5   7
TORSDOF 6
ENDMDL