MODEL 2
REMARK VINA RESULT: -7.374314255      0.064      1.059
REMARK  7 active torsions:
REMARK  status: ('A' for Active; 'I' for Inactive)
REMARK       I    between atoms: C2_2  and  N1_4
REMARK    1  A    between atoms: N1_4  and  C3_6
REMARK    2  A    between atoms: C6_9  and  S1_10
REMARK    3  A    between atoms: S1_10  and  N2_12
REMARK    4  A    between atoms: S1_10  and  N6_22
REMARK       I    between atoms: C7_14  and  N4_16
REMARK    5  A    between atoms: N4_16  and  N5_18
REMARK    6  A    between atoms: N5_18  and  O3_20
REMARK    7  A    between atoms: N6_22  and  N7_24
ROOT
HETATM    1  S1  UNL     1      10.615  -7.036  19.938  1.00  0.00     0.158 S
HETATM    2  O2  UNL     1       9.361  -7.061  20.802  1.00  0.00    -0.221 OA
ENDROOT
BRANCH   1   3
HETATM    3  C6  UNL     1      10.220  -7.691  18.368  1.00  0.00     0.060 A
HETATM    4  C5  UNL     1       9.536  -6.992  17.399  1.00  0.00     0.026 A
HETATM    5  C4  UNL     1       9.250  -7.549  16.179  1.00  0.00     0.031 A
HETATM    6  C3  UNL     1       9.642  -8.855  15.871  1.00  0.00     0.034 A
HETATM    7  C9  UNL     1      10.325  -9.559  16.835  1.00  0.00     0.031 A
HETATM    8  C8  UNL     1      10.611  -8.976  18.076  1.00  0.00     0.026 A
BRANCH   6   9
HETATM    9  N1  UNL     1       9.327  -9.386  14.610  1.00  0.00    -0.328 N
HETATM   10  C2  UNL     1       8.401 -10.365  14.288  1.00  0.00     0.218 C
HETATM   11  C1  UNL     1       8.245 -10.773  12.827  1.00  0.00     0.117 C
HETATM   12  O1  UNL     1       7.635 -10.995  15.062  1.00  0.00    -0.274 OA
ATOM     13  H1  UNL     1       9.851  -8.999  13.825  1.00  0.00     0.169 HD
ENDBRANCH   6   9
ENDBRANCH   1   3
BRANCH   1  14
HETATM   14  N2  UNL     1      11.782  -7.996  20.760  1.00  0.00    -0.268 N
HETATM   15  C7  UNL     1      13.015  -7.750  20.572  1.00  0.00     0.217 C
HETATM   16  N3  UNL     1      13.408  -6.712  19.706  1.00  0.00    -0.061 NA
HETATM   17  N4  UNL     1      13.973  -8.539  21.247  1.00  0.00    -0.253 N
ATOM     18  H4  UNL     1      14.109  -8.404  22.248  1.00  0.00     0.191 HD
ATOM     19  H2  UNL     1      11.490  -8.748  21.385  1.00  0.00     0.180 HD
BRANCH  17  20
HETATM   20  N5  UNL     1      14.739  -9.496  20.585  1.00  0.00    -0.208 N
ATOM     21  H5  UNL     1      14.266 -10.232  20.059  1.00  0.00     0.215 HD
BRANCH  20  22
HETATM   22  O3  UNL     1      15.999  -9.479  20.617  1.00  0.00    -0.274 OA
ATOM     23  H3  UNL     1      16.486  -8.675  20.757  1.00  0.00     0.246 HD
ENDBRANCH  20  22
ENDBRANCH  17  20
ENDBRANCH   1  14
BRANCH   1  24
HETATM   24  N6  UNL     1      11.038  -5.530  19.843  1.00  0.00    -0.246 N
ATOM     25  H6  UNL     1      11.999  -5.269  19.621  1.00  0.00     0.198 HD
BRANCH  24  26
HETATM   26  N7  UNL     1      10.064  -4.555  20.070  1.00  0.00    -0.337 N
ATOM     27  H72 UNL     1      10.155  -3.634  19.643  1.00  0.00     0.177 HD
ATOM     28  H71 UNL     1       9.273  -4.795  20.669  1.00  0.00     0.177 HD
ENDBRANCH  24  26
ENDBRANCH   1  24
TORSDOF 7
ENDMDL