MODEL 5
REMARK VINA RESULT: -6.111904460      4.949      7.595
REMARK  3 active torsions:
REMARK  status: ('A' for Active; 'I' for Inactive)
REMARK       I    between atoms: C2_2  and  N1_4
REMARK       I    between atoms: C3_6  and  N2_7
REMARK       I    between atoms: C3_6  and  N4_11
REMARK    1  A    between atoms: N4_11  and  C5_13
REMARK    2  A    between atoms: C10_18  and  C11_19
REMARK       I    between atoms: C11_19  and  N5_21
REMARK    3  A    between atoms: N5_21  and  N6_23
ROOT
HETATM    1  C1  UNL     1       2.552  -8.932  10.244  1.00  0.00     0.118 C
HETATM    2  C2  UNL     1       2.996 -10.140  10.983  1.00  0.00     0.231 C
HETATM    3  O1  UNL     1       2.165 -11.064  11.223  1.00  0.00    -0.273 OA
HETATM    4  N1  UNL     1       4.340 -10.212  11.390  1.00  0.00    -0.159 N
ATOM      5  H1  UNL     1       4.950 -10.801  10.823  1.00  0.00     0.187 HD
HETATM    6  C3  UNL     1       4.883  -9.632  12.377  1.00  0.00     0.694 C
HETATM    7  N2  UNL     1       4.125  -8.798  13.221  1.00  0.00    -0.126 N
ATOM      8  H2  UNL     1       4.391  -7.820  13.334  1.00  0.00     0.197 HD
HETATM    9  C4  UNL     1       3.012  -9.297  13.904  1.00  0.00     0.196 C
HETATM   10  N3  UNL     1       2.077  -9.703  14.495  1.00  0.00    -0.171 NA
HETATM   11  N4  UNL     1       6.305  -9.849  12.601  1.00  0.00    -0.190 N
ATOM     12  H4  UNL     1       6.971  -9.124  12.336  1.00  0.00     0.184 HD
ENDROOT
BRANCH  11  13
HETATM   13  C5  UNL     1       6.772 -11.033  13.173  1.00  0.00     0.065 A
HETATM   14  C6  UNL     1       6.084 -12.242  12.895  1.00  0.00     0.031 A
HETATM   15  C7  UNL     1       6.466 -13.447  13.401  1.00  0.00     0.002 A
HETATM   16  C8  UNL     1       7.564 -13.513  14.222  1.00  0.00     0.001 A
HETATM   17  C9  UNL     1       8.255 -12.353  14.511  1.00  0.00     0.019 A
HETATM   18  C10 UNL     1       7.863 -11.105  13.989  1.00  0.00     0.061 A
BRANCH  18  19
HETATM   19  C11 UNL     1       8.632  -9.945  14.345  1.00  0.00     0.277 C
HETATM   20  O2  UNL     1       8.909  -8.970  13.597  1.00  0.00    -0.266 OA
HETATM   21  N5  UNL     1       9.178  -9.806  15.671  1.00  0.00    -0.205 N
ATOM     22  H5  UNL     1       9.032 -10.524  16.382  1.00  0.00     0.196 HD
BRANCH  21  23
HETATM   23  N6  UNL     1       9.924  -8.635  15.951  1.00  0.00    -0.036 N
HETATM   24  O3  UNL     1      11.111  -8.578  15.621  1.00  0.00    -0.516 OA
HETATM   25  O4  UNL     1       9.286  -7.606  16.580  1.00  0.00    -0.516 OA
ENDBRANCH  21  23
ENDBRANCH  18  19
ENDBRANCH  11  13
TORSDOF 3
ENDMDL