MODEL 1
REMARK VINA RESULT: -6.062960301      0.000      0.000
REMARK  4 active torsions:
REMARK  status: ('A' for Active; 'I' for Inactive)
REMARK       I    between atoms: N1_2  and  C2_4
REMARK       I    between atoms: C2_4  and  N2_6
REMARK    1  A    between atoms: N2_6  and  N3_8
REMARK       I    between atoms: C3_10  and  N4_11
REMARK       I    between atoms: C3_10  and  N5_19
REMARK    2  A    between atoms: N4_11  and  C4_13
REMARK    3  A    between atoms: C4_13  and  C5_14
REMARK    4  A    between atoms: N5_19  and  S1_21
ROOT
HETATM    1  N3  UNL     1      11.710  -6.967  19.646  1.00  0.00    -0.128 N
ATOM      2  H3  UNL     1      11.442  -6.355  20.416  1.00  0.00     0.205 HD
HETATM    3  C3  UNL     1      10.833  -7.549  18.901  1.00  0.00     0.702 C
HETATM    4  N4  UNL     1      11.172  -8.406  17.825  1.00  0.00    -0.218 N
ATOM      5  H4  UNL     1      11.458  -9.366  18.016  1.00  0.00     0.178 HD
HETATM    6  N5  UNL     1       9.457  -7.282  19.222  1.00  0.00    -0.116 N
ATOM      7  H5  UNL     1       8.747  -7.944  18.908  1.00  0.00     0.197 HD
ENDROOT
BRANCH   1   8
HETATM    8  N2  UNL     1      13.064  -7.226  19.334  1.00  0.00    -0.237 N
HETATM    9  C2  UNL     1      13.946  -7.796  20.282  1.00  0.00     0.334 C
HETATM   10  N1  UNL     1      15.298  -8.038  19.922  1.00  0.00    -0.346 N
HETATM   11  O1  UNL     1      13.579  -8.102  21.444  1.00  0.00    -0.246 OA
HETATM   12  C1  UNL     1      16.258  -8.619  20.839  1.00  0.00     0.151 C
ATOM     13  H1  UNL     1      15.606  -7.794  18.981  1.00  0.00     0.163 HD
ATOM     14  H2  UNL     1      13.413  -6.995  18.404  1.00  0.00     0.192 HD
ENDBRANCH   1   8
BRANCH   4  15
HETATM   15  C4  UNL     1      11.118  -7.934  16.457  1.00  0.00     0.203 C
BRANCH  15  16
HETATM   16  C5  UNL     1      10.124  -8.721  15.684  1.00  0.00     0.070 A
HETATM   17  C6  UNL     1       9.656  -8.446  14.396  1.00  0.00     0.036 A
HETATM   18  C7  UNL     1       8.745  -9.425  14.055  1.00  0.00     0.027 A
HETATM   19  C8  UNL     1       8.696 -10.257  15.153  1.00  0.00     0.142 A
HETATM   20  O2  UNL     1       9.514  -9.809  16.076  1.00  0.00    -0.325 OA
ENDBRANCH  15  16
ENDBRANCH   4  15
BRANCH   6  21
HETATM   21  S1  UNL     1       8.959  -5.915  20.101  1.00  0.00     0.240 S
HETATM   22  C9  UNL     1       7.312  -5.393  19.663  1.00  0.00     0.186 C
HETATM   23  O3  UNL     1       9.944  -4.807  19.887  1.00  0.00    -0.206 OA
HETATM   24  O4  UNL     1       8.933  -6.181  21.593  1.00  0.00    -0.206 OA
ENDBRANCH   6  21
TORSDOF 4
ENDMDL