MODEL 5
REMARK VINA RESULT: -6.779087961      0.141      1.086
REMARK  8 active torsions:
REMARK  status: ('A' for Active; 'I' for Inactive)
REMARK    1  A    between atoms: N1_1  and  N2_4
REMARK    2  A    between atoms: N2_4  and  C1_6
REMARK    3  A    between atoms: C1_6  and  N3_8
REMARK       I    between atoms: N3_8  and  C2_10
REMARK    4  A    between atoms: C2_10  and  C3_12
REMARK    5  A    between atoms: C3_12  and  C4_13
REMARK    6  A    between atoms: C7_16  and  O2_17
REMARK    7  A    between atoms: O2_17  and  S2_18
REMARK    8  A    between atoms: S2_18  and  N4_19
ROOT
HETATM    1  C4  UNL     1       9.564  -9.214  15.307  1.00  0.00    -0.049 A
HETATM    2  C5  UNL     1       8.821 -10.261  15.727  1.00  0.00     0.010 A
HETATM    3  C6  UNL     1       8.009 -10.988  14.861  1.00  0.00     0.039 A
HETATM    4  C7  UNL     1       7.929 -10.666  13.526  1.00  0.00     0.091 A
HETATM    5  C8  UNL     1       8.678  -9.606  13.072  1.00  0.00     0.039 A
HETATM    6  C9  UNL     1       9.482  -8.889  13.940  1.00  0.00     0.010 A
ENDROOT
BRANCH   1   7
HETATM    7  C3  UNL     1      10.405  -8.316  16.099  1.00  0.00     0.141 C
BRANCH   7   8
HETATM    8  C2  UNL     1       9.838  -7.733  17.309  1.00  0.00     0.228 C
HETATM    9  N3  UNL     1      10.206  -7.951  18.636  1.00  0.00    -0.302 N
ATOM     10  H3  UNL     1      10.952  -8.615  18.837  1.00  0.00     0.171 HD
HETATM   11  O1  UNL     1       8.859  -6.905  17.100  1.00  0.00    -0.273 OA
BRANCH   9  12
HETATM   12  C1  UNL     1       9.577  -7.282  19.714  1.00  0.00     0.192 C
HETATM   13  S1  UNL     1      10.510  -6.459  20.805  1.00  0.00    -0.039 SA
BRANCH  12  14
HETATM   14  N2  UNL     1       8.186  -7.248  19.913  1.00  0.00    -0.283 N
ATOM     15  H2  UNL     1       7.686  -8.093  20.188  1.00  0.00     0.188 HD
BRANCH  14  16
HETATM   16  N1  UNL     1       7.493  -6.045  19.728  1.00  0.00    -0.343 N
ATOM     17  H12 UNL     1       6.791  -5.764  20.413  1.00  0.00     0.176 HD
ATOM     18  H11 UNL     1       7.699  -5.468  18.914  1.00  0.00     0.176 HD
ENDBRANCH  14  16
ENDBRANCH  12  14
ENDBRANCH   9  12
ENDBRANCH   7   8
ENDBRANCH   1   7
BRANCH   4  19
HETATM   19  O2  UNL     1       7.098 -11.426  12.710  1.00  0.00    -0.217 OA
BRANCH  19  20
HETATM   20  S2  UNL     1       5.401 -11.273  12.795  1.00  0.00     0.360 S
HETATM   21  O3  UNL     1       5.102  -9.893  13.276  1.00  0.00    -0.176 OA
HETATM   22  O4  UNL     1       4.749 -11.452  11.475  1.00  0.00    -0.176 OA
BRANCH  20  23
HETATM   23  N4  UNL     1       4.775 -12.419  13.933  1.00  0.00    -0.305 N
ATOM     24  H42 UNL     1       3.917 -12.291  14.469  1.00  0.00     0.171 HD
ATOM     25  H41 UNL     1       5.394 -13.228  13.976  1.00  0.00     0.171 HD
ENDBRANCH  20  23
ENDBRANCH  19  20
ENDBRANCH   4  19
TORSDOF 8
ENDMDL