MODEL 1
REMARK VINA RESULT: -5.836770637      0.000      0.000
REMARK  7 active torsions:
REMARK  status: ('A' for Active; 'I' for Inactive)
REMARK    1  A    between atoms: C2_2  and  N1_3
REMARK    2  A    between atoms: N1_3  and  C3_5
REMARK    3  A    between atoms: C3_5  and  N2_7
REMARK    4  A    between atoms: N2_7  and  N3_9
REMARK       I    between atoms: N3_9  and  C4_11
REMARK       I    between atoms: C4_11  and  N4_13
REMARK    5  A    between atoms: N4_13  and  N5_14
REMARK    6  A    between atoms: C5_16  and  C6_17
REMARK    7  A    between atoms: N6_21  and  O2_22
ROOT
HETATM    1  N3  UNL     1      10.312  -7.878  18.119  1.00  0.00    -0.236 N
ATOM      2  H3  UNL     1      10.584  -8.830  18.364  1.00  0.00     0.193 HD
HETATM    3  C4  UNL     1       9.521  -7.666  16.901  1.00  0.00     0.431 C
HETATM    4  O1  UNL     1       9.282  -6.399  16.766  1.00  0.00    -0.227 OA
HETATM    5  N4  UNL     1       9.163  -8.696  16.131  1.00  0.00    -0.264 NA
ENDROOT
BRANCH   1   6
HETATM    6  N2  UNL     1      10.705  -6.845  18.948  1.00  0.00    -0.272 N
ATOM      7  H2  UNL     1      11.472  -6.230  18.676  1.00  0.00     0.189 HD
BRANCH   6   8
HETATM    8  C3  UNL     1      10.037  -6.649  20.176  1.00  0.00     0.186 C
HETATM    9  S1  UNL     1       8.570  -5.947  20.171  1.00  0.00    -0.040 SA
BRANCH   8  10
HETATM   10  N1  UNL     1      10.650  -7.057  21.387  1.00  0.00    -0.366 N
ATOM     11  H1  UNL     1      10.107  -7.082  22.250  1.00  0.00     0.161 HD
BRANCH  10  12
HETATM   12  C2  UNL     1      12.045  -7.437  21.400  1.00  0.00     0.117 C
HETATM   13  C1  UNL     1      12.162  -8.936  21.393  1.00  0.00     0.026 C
ENDBRANCH  10  12
ENDBRANCH   8  10
ENDBRANCH   6   8
ENDBRANCH   1   6
BRANCH   5  14
HETATM   14  N5  UNL     1       8.811  -9.710  15.373  1.00  0.00    -0.239 N
HETATM   15  C5  UNL     1       7.797 -10.477  15.422  1.00  0.00     0.160 C
ATOM     16  H5  UNL     1       9.462  -9.917  14.616  1.00  0.00     0.201 HD
BRANCH  15  17
HETATM   17  C6  UNL     1       7.736 -11.526  14.382  1.00  0.00     0.120 A
HETATM   18  S2  UNL     1       7.840 -13.222  14.550  1.00  0.00    -0.079 SA
HETATM   19  C7  UNL     1       7.684 -13.648  12.901  1.00  0.00     0.071 A
HETATM   20  C8  UNL     1       7.557 -12.420  12.311  1.00  0.00     0.131 A
HETATM   21  N6  UNL     1       7.585 -11.362  13.065  1.00  0.00    -0.227 N
BRANCH  21  22
HETATM   22  O2  UNL     1       7.463 -10.048  12.547  1.00  0.00    -0.282 OA
ATOM     23  H2  UNL     1       7.486  -9.312  13.148  1.00  0.00     0.245 HD
ENDBRANCH  21  22
ENDBRANCH  15  17
ENDBRANCH   5  14
TORSDOF 7
ENDMDL