MODEL 5
REMARK VINA RESULT: -4.244451588      1.835      2.680
REMARK  7 active torsions:
REMARK  status: ('A' for Active; 'I' for Inactive)
REMARK    1  A    between atoms: C3_4  and  C4_5
REMARK    2  A    between atoms: C7_9  and  C8_10
REMARK    3  A    between atoms: C8_10  and  O2_11
REMARK    4  A    between atoms: C8_10  and  C9_13
REMARK    5  A    between atoms: C9_13  and  O3_14
REMARK    6  A    between atoms: C10_16  and  O4_17
REMARK    7  A    between atoms: C11_19  and  N2_20
REMARK       I    between atoms: N2_20  and  C12_22
ROOT
HETATM    1  C1  UNL     1       7.718 -13.588  10.841  1.00  0.00     0.221 C
HETATM    2  N1  UNL     1       7.494 -13.086  11.866  1.00  0.00    -0.461 NA
HETATM    3  C2  UNL     1       7.208 -12.449  13.114  1.00  0.00     0.219 C
HETATM    4  C3  UNL     1       6.179 -13.213  13.880  1.00  0.00     0.188 C
HETATM    5  O1  UNL     1       4.981 -13.174  13.204  1.00  0.00    -0.368 OA
HETATM    6  C7  UNL     1       4.383 -11.895  13.311  1.00  0.00     0.184 C
HETATM    7  C10 UNL     1       5.357 -10.818  13.652  1.00  0.00     0.175 C
HETATM    8  C11 UNL     1       6.604 -11.087  12.828  1.00  0.00     0.155 C
ENDROOT
BRANCH   4   9
HETATM    9  C4  UNL     1       6.590 -14.540  14.361  1.00  0.00    -0.061 C
HETATM   10  C5  UNL     1       6.031 -15.685  14.056  1.00  0.00     0.016 C
HETATM   11  C6  UNL     1       7.781 -14.611  15.294  1.00  0.00     0.045 C
ENDBRANCH   4   9
BRANCH   8  12
HETATM   12  N2  UNL     1       7.572 -10.028  12.936  1.00  0.00    -0.340 N
HETATM   13  C12 UNL     1       8.259  -9.779  14.156  1.00  0.00     0.296 C
HETATM   14  O5  UNL     1       8.007 -10.511  15.166  1.00  0.00    -0.258 OA
HETATM   15  C13 UNL     1       9.221  -8.750  14.315  1.00  0.00    -0.017 C
HETATM   16  C14 UNL     1      10.020  -7.871  14.443  1.00  0.00     0.022 C
ATOM     17  H2  UNL     1       7.769  -9.444  12.122  1.00  0.00     0.164 HD
ENDBRANCH   8  12
BRANCH   7  18
HETATM   18  O4  UNL     1       4.882  -9.576  13.156  1.00  0.00    -0.391 OA
ATOM     19  H4  UNL     1       4.765  -8.970  13.879  1.00  0.00     0.210 HD
ENDBRANCH   7  18
BRANCH   6  20
HETATM   20  C8  UNL     1       3.172 -11.950  14.207  1.00  0.00     0.173 C
BRANCH  20  21
HETATM   21  O2  UNL     1       2.341 -10.890  13.933  1.00  0.00    -0.391 OA
ATOM     22  H2  UNL     1       1.604 -11.184  13.411  1.00  0.00     0.210 HD
ENDBRANCH  20  21
BRANCH  20  23
HETATM   23  C9  UNL     1       2.445 -13.261  14.075  1.00  0.00     0.198 C
BRANCH  23  24
HETATM   24  O3  UNL     1       2.888 -14.201  15.008  1.00  0.00    -0.398 OA
ATOM     25  H3  UNL     1       3.687 -14.630  14.728  1.00  0.00     0.209 HD
ENDBRANCH  23  24
ENDBRANCH  20  23
ENDBRANCH   6  20
TORSDOF 7
ENDMDL