MODEL 2
REMARK VINA RESULT: -5.717881130      3.770      6.812
REMARK  7 active torsions:
REMARK  status: ('A' for Active; 'I' for Inactive)
REMARK    1  A    between atoms: C3_3  and  N1_4
REMARK       I    between atoms: N1_4  and  C4_6
REMARK    2  A    between atoms: C9_13  and  O3_14
REMARK    3  A    between atoms: C9_13  and  C10_16
REMARK    4  A    between atoms: C11_17  and  C12_18
REMARK    5  A    between atoms: C12_18  and  O4_19
REMARK    6  A    between atoms: C12_18  and  C13_21
REMARK    7  A    between atoms: C13_21  and  O5_23
ROOT
HETATM    1  C1  UNL     1       5.640  -9.584  12.527  1.00  0.00     0.017 C
HETATM    2  C2  UNL     1       5.910 -10.714  13.143  1.00  0.00    -0.056 A
HETATM    3  C3  UNL     1       5.634 -12.139  12.831  1.00  0.00     0.120 A
HETATM    4  C6  UNL     1       6.218 -12.538  14.169  1.00  0.00     0.055 A
HETATM    5  C7  UNL     1       7.533 -13.231  14.103  1.00  0.00     0.128 C
HETATM    6  C8  UNL     1       7.518 -14.612  14.706  1.00  0.00     0.040 C
HETATM    7  O2  UNL     1       8.471 -12.394  14.708  1.00  0.00    -0.346 OA
HETATM    8  C9  UNL     1       8.099 -11.140  14.275  1.00  0.00     0.189 C
HETATM    9  C15 UNL     1       6.594 -11.085  14.394  1.00  0.00     0.091 A
ENDROOT
BRANCH   8  10
HETATM   10  O3  UNL     1       8.484 -10.874  12.970  1.00  0.00    -0.362 OA
ATOM     11  H3  UNL     1       7.834 -11.131  12.327  1.00  0.00     0.213 HD
ENDBRANCH   8  10
BRANCH   8  12
HETATM   12  C10 UNL     1       8.729 -10.121  15.155  1.00  0.00     0.040 C
HETATM   13  C11 UNL     1       9.265  -9.045  14.626  1.00  0.00     0.008 C
BRANCH  13  14
HETATM   14  C12 UNL     1       9.898  -8.017  15.478  1.00  0.00     0.169 C
BRANCH  14  15
HETATM   15  O4  UNL     1      11.282  -8.226  15.594  1.00  0.00    -0.389 OA
ATOM     16  H4  UNL     1      11.611  -7.918  16.430  1.00  0.00     0.210 HD
ENDBRANCH  14  15
BRANCH  14  17
HETATM   17  C13 UNL     1       9.331  -8.213  16.890  1.00  0.00     0.146 C
HETATM   18  C14 UNL     1       8.808  -6.881  17.341  1.00  0.00     0.042 C
BRANCH  17  19
HETATM   19  O5  UNL     1      10.377  -8.587  17.716  1.00  0.00    -0.393 OA
ATOM     20  H5  UNL     1      10.973  -7.850  17.779  1.00  0.00     0.210 HD
ENDBRANCH  17  19
ENDBRANCH  14  17
ENDBRANCH  13  14
ENDBRANCH   8  12
BRANCH   3  21
HETATM   21  N1  UNL     1       4.226 -12.466  12.673  1.00  0.00    -0.353 N
HETATM   22  C4  UNL     1       3.574 -12.444  11.419  1.00  0.00     0.214 C
HETATM   23  C5  UNL     1       2.143 -12.789  11.340  1.00  0.00     0.117 C
HETATM   24  O1  UNL     1       4.243 -12.129  10.407  1.00  0.00    -0.274 OA
ATOM     25  H1  UNL     1       3.687 -12.721  13.500  1.00  0.00     0.163 HD
ENDBRANCH   3  21
TORSDOF 7
ENDMDL