MODEL 5
REMARK VINA RESULT: -7.886754164      1.422      7.559
REMARK  7 active torsions:
REMARK  status: ('A' for Active; 'I' for Inactive)
REMARK    1  A    between atoms: C3_4  and  C4_5
REMARK    2  A    between atoms: C4_5  and  N1_6
REMARK    3  A    between atoms: N1_6  and  C5_8
REMARK    4  A    between atoms: N4_18  and  C11_19
REMARK    5  A    between atoms: C11_19  and  C12_20
REMARK    6  A    between atoms: C12_20  and  C13_21
REMARK    7  A    between atoms: C13_21  and  N5_22
ROOT
HETATM    1  C5  UNL     1      60.846  31.249  41.870  1.00  0.00     0.117 A
HETATM    2  N2  UNL     1      61.337  30.957  40.651  1.00  0.00    -0.338 N
ATOM      3  H2  UNL     1      61.627  31.728  40.049  1.00  0.00     0.168 HD
HETATM    4  C6  UNL     1      61.467  29.702  40.187  1.00  0.00     0.183 A
HETATM    5  N3  UNL     1      61.106  28.642  40.932  1.00  0.00    -0.338 N
ATOM      6  H3  UNL     1      61.203  27.688  40.584  1.00  0.00     0.168 HD
HETATM    7  C7  UNL     1      60.609  28.897  42.159  1.00  0.00     0.123 A
HETATM    8  C8  UNL     1      60.464  30.184  42.662  1.00  0.00     0.060 A
HETATM    9  C9  UNL     1      59.939  30.129  43.934  1.00  0.00    -0.018 A
HETATM   10  C10 UNL     1      59.762  28.789  44.205  1.00  0.00     0.020 A
HETATM   11  N4  UNL     1      60.166  28.056  43.137  1.00  0.00    -0.335 N
HETATM   12  C18 UNL     1      59.196  28.447  45.533  1.00  0.00     0.058 C
HETATM   13  C19 UNL     1      57.993  29.319  45.842  1.00  0.00     0.006 C
HETATM   14  C20 UNL     1      58.170  30.751  45.476  1.00  0.00     0.005 C
HETATM   15  C21 UNL     1      59.557  31.106  44.984  1.00  0.00     0.042 C
ENDROOT
BRANCH  11  16
HETATM   16  C11 UNL     1      60.155  26.615  42.995  1.00  0.00     0.132 C
BRANCH  16  17
HETATM   17  C12 UNL     1      61.517  26.116  42.545  1.00  0.00     0.040 C
BRANCH  17  18
HETATM   18  C13 UNL     1      61.617  24.615  42.652  1.00  0.00     0.118 C
BRANCH  18  19
HETATM   19  N5  UNL     1      62.987  24.233  42.644  1.00  0.00    -0.408 N
HETATM   20  C14 UNL     1      63.246  22.830  42.783  1.00  0.00     0.143 C
HETATM   21  C15 UNL     1      63.900  22.467  44.093  1.00  0.00     0.187 C
HETATM   22  O2  UNL     1      63.433  23.367  45.050  1.00  0.00    -0.388 OA
HETATM   23  C16 UNL     1      64.075  24.580  44.816  1.00  0.00     0.187 C
HETATM   24  C17 UNL     1      63.863  25.071  43.409  1.00  0.00     0.143 C
ENDBRANCH  18  19
ENDBRANCH  17  18
ENDBRANCH  16  17
ENDBRANCH  11  16
BRANCH   1  25
HETATM   25  N1  UNL     1      60.720  32.466  42.318  1.00  0.00    -0.369 N
ATOM     26  H1  UNL     1      59.808  32.870  42.529  1.00  0.00     0.161 HD
BRANCH  25  27
HETATM   27  C4  UNL     1      61.948  33.214  42.500  1.00  0.00     0.186 C
BRANCH  27  28
HETATM   28  C3  UNL     1      62.481  33.713  41.209  1.00  0.00     0.070 A
HETATM   29  O1  UNL     1      63.322  33.042  40.470  1.00  0.00    -0.325 OA
HETATM   30  C2  UNL     1      63.641  33.677  39.399  1.00  0.00     0.142 A
HETATM   31  C1  UNL     1      62.977  34.870  39.389  1.00  0.00     0.027 A
HETATM   32  C22 UNL     1      62.233  34.894  40.548  1.00  0.00     0.036 A
ENDBRANCH  27  28
ENDBRANCH  25  27
ENDBRANCH   1  25
TORSDOF 7
ENDMDL