MODEL 4
REMARK VINA RESULT: -8.429030451      1.781      7.327
REMARK  7 active torsions:
REMARK  status: ('A' for Active; 'I' for Inactive)
REMARK    1  A    between atoms: C5_5  and  C6_6
REMARK    2  A    between atoms: C6_6  and  C7_7
REMARK    3  A    between atoms: C7_7  and  N1_8
REMARK    4  A    between atoms: C8_11  and  C9_12
REMARK    5  A    between atoms: N3_18  and  C14_19
REMARK    6  A    between atoms: C14_19  and  C15_20
REMARK       I    between atoms: C15_20  and  N4_22
REMARK    7  A    between atoms: N4_22  and  C16_24
ROOT
HETATM    1  N1  UNL     1      61.501  29.225  42.981  1.00  0.00    -0.242 N
HETATM    2  N2  UNL     1      60.553  29.082  43.889  1.00  0.00    -0.292 N
ATOM      3  H2  UNL     1      60.211  28.142  44.092  1.00  0.00     0.187 HD
HETATM    4  C8  UNL     1      60.016  30.116  44.558  1.00  0.00     0.102 A
HETATM    5  C13 UNL     1      60.517  31.380  44.244  1.00  0.00     0.276 A
HETATM    6  O1  UNL     1      60.035  32.380  44.857  1.00  0.00    -0.266 OA
HETATM    7  N3  UNL     1      61.484  31.506  43.315  1.00  0.00    -0.255 N
HETATM    8  C19 UNL     1      61.998  30.421  42.660  1.00  0.00     0.346 A
HETATM    9  O3  UNL     1      62.898  30.603  41.805  1.00  0.00    -0.245 OA
ENDROOT
BRANCH   1  10
HETATM   10  C7  UNL     1      62.028  28.059  42.300  1.00  0.00     0.154 C
BRANCH  10  11
HETATM   11  C6  UNL     1      61.056  26.923  42.434  1.00  0.00     0.026 C
BRANCH  11  12
HETATM   12  C5  UNL     1      61.648  25.579  42.211  1.00  0.00    -0.013 C
HETATM   13  C4  UNL     1      60.733  24.434  42.488  1.00  0.00     0.005 C
HETATM   14  C3  UNL     1      61.424  23.155  42.030  1.00  0.00     0.004 C
HETATM   15  C2  UNL     1      62.830  23.062  42.503  1.00  0.00    -0.019 C
HETATM   16  C1  UNL     1      63.080  21.659  43.017  1.00  0.00     0.010 C
HETATM   17  C21 UNL     1      63.035  24.045  43.629  1.00  0.00     0.004 C
HETATM   18  C20 UNL     1      62.857  25.447  43.112  1.00  0.00     0.005 C
ENDBRANCH  11  12
ENDBRANCH  10  11
ENDBRANCH   1  10
BRANCH   4  19
HETATM   19  C9  UNL     1      58.951  29.980  45.584  1.00  0.00    -0.002 C
HETATM   20  C10 UNL     1      58.633  28.494  45.726  1.00  0.00     0.021 C
HETATM   21  C11 UNL     1      57.720  30.762  45.288  1.00  0.00     0.021 C
HETATM   22  C12 UNL     1      59.490  30.410  46.950  1.00  0.00     0.021 C
ENDBRANCH   4  19
BRANCH   7  23
HETATM   23  C14 UNL     1      62.023  32.797  42.961  1.00  0.00     0.240 C
BRANCH  23  24
HETATM   24  C15 UNL     1      61.857  32.979  41.496  1.00  0.00     0.236 C
HETATM   25  O2  UNL     1      60.694  32.913  40.971  1.00  0.00    -0.272 OA
HETATM   26  N4  UNL     1      62.939  33.225  40.616  1.00  0.00    -0.355 N
ATOM     27  H4  UNL     1      63.889  33.285  40.982  1.00  0.00     0.162 HD
BRANCH  26  28
HETATM   28  C16 UNL     1      62.699  33.392  39.202  1.00  0.00     0.084 A
HETATM   29  C17 UNL     1      63.751  32.962  38.237  1.00  0.00     0.027 A
HETATM   30  C18 UNL     1      63.560  34.404  38.535  1.00  0.00     0.027 A
ENDBRANCH  26  28
ENDBRANCH  23  24
ENDBRANCH   7  23
TORSDOF 7
ENDMDL