MODEL 3
REMARK VINA RESULT: -6.932234222      6.439     10.066
REMARK  10 active torsions:
REMARK  status: ('A' for Active; 'I' for Inactive)
REMARK    1  A    between atoms: O1_2  and  C2_3
REMARK    2  A    between atoms: C2_3  and  C3_5
REMARK    3  A    between atoms: C3_5  and  C4_6
REMARK    4  A    between atoms: C3_5  and  C7_11
REMARK    5  A    between atoms: C4_6  and  O3_7
REMARK    6  A    between atoms: O3_7  and  C5_8
REMARK       I    between atoms: N1_14  and  C10_15
REMARK    7  A    between atoms: C10_15  and  C11_17
REMARK    8  A    between atoms: C11_17  and  C12_18
REMARK    9  A    between atoms: C16_22  and  C17_23
REMARK   10  A    between atoms: C17_23  and  C20_26
ROOT
HETATM    1  C7  UNL     1      61.764  22.464  41.367  1.00  0.00    -0.065 C
HETATM    2  C8  UNL     1      63.060  22.287  41.395  1.00  0.00    -0.003 C
HETATM    3  C9  UNL     1      63.890  23.395  42.011  1.00  0.00     0.153 C
HETATM    4  N1  UNL     1      63.109  23.955  43.110  1.00  0.00    -0.343 N
HETATM    5  C10 UNL     1      63.645  23.879  44.401  1.00  0.00     0.221 C
HETATM    6  O5  UNL     1      62.960  24.337  45.343  1.00  0.00    -0.273 OA
HETATM    7  C16 UNL     1      61.839  24.526  42.812  1.00  0.00     0.104 C
HETATM    8  C21 UNL     1      61.040  23.673  41.850  1.00  0.00     0.061 C
ENDROOT
BRANCH   1   9
HETATM    9  C3  UNL     1      60.893  21.410  40.774  1.00  0.00     0.138 C
BRANCH   9  10
HETATM   10  C2  UNL     1      61.534  20.079  41.095  1.00  0.00     0.268 C
HETATM   11  O2  UNL     1      61.934  19.881  42.252  1.00  0.00    -0.264 OA
BRANCH  10  12
HETATM   12  O1  UNL     1      61.675  19.104  40.130  1.00  0.00    -0.326 OA
HETATM   13  C1  UNL     1      60.665  18.160  39.843  1.00  0.00     0.213 C
ENDBRANCH  10  12
ENDBRANCH   9  10
BRANCH   9  14
HETATM   14  C4  UNL     1      60.810  21.461  39.271  1.00  0.00     0.197 C
BRANCH  14  15
HETATM   15  O3  UNL     1      59.513  21.419  38.758  1.00  0.00    -0.321 OA
BRANCH  15  16
HETATM   16  C5  UNL     1      59.134  20.950  37.515  1.00  0.00     0.254 C
HETATM   17  C6  UNL     1      59.933  19.948  36.749  1.00  0.00     0.126 C
HETATM   18  O4  UNL     1      58.070  21.392  37.019  1.00  0.00    -0.266 OA
ENDBRANCH  15  16
ENDBRANCH  14  15
ENDBRANCH   9  14
ENDBRANCH   1   9
BRANCH   7  19
HETATM   19  C17 UNL     1      61.838  25.959  42.362  1.00  0.00     0.005 C
HETATM   20  C18 UNL     1      60.445  26.559  42.495  1.00  0.00     0.022 C
HETATM   21  C19 UNL     1      62.080  25.912  40.840  1.00  0.00     0.022 C
BRANCH  19  22
HETATM   22  C20 UNL     1      62.862  26.827  42.933  1.00  0.00     0.063 C
HETATM   23  N2  UNL     1      63.982  27.151  42.461  1.00  0.00    -0.410 N
ATOM     24  H22 UNL     1      64.187  26.742  41.549  1.00  0.00     0.155 HD
ATOM     25  H21 UNL     1      64.698  27.758  42.860  1.00  0.00     0.155 HD
ENDBRANCH  19  22
ENDBRANCH   7  19
BRANCH   5  26
HETATM   26  C11 UNL     1      64.953  23.295  44.682  1.00  0.00     0.111 C
BRANCH  26  27
HETATM   27  C12 UNL     1      65.123  22.733  46.050  1.00  0.00    -0.043 C
HETATM   28  C13 UNL     1      66.528  22.112  46.097  1.00  0.00     0.015 C
HETATM   29  C14 UNL     1      65.140  23.832  47.100  1.00  0.00     0.015 C
HETATM   30  C15 UNL     1      64.164  21.643  46.407  1.00  0.00     0.015 C
ENDBRANCH  26  27
ENDBRANCH   5  26
TORSDOF 10
ENDMDL