MODEL 1
REMARK VINA RESULT: -9.152408547      0.000      0.000
REMARK  6 active torsions:
REMARK  status: ('A' for Active; 'I' for Inactive)
REMARK    1  A    between atoms: C8_8  and  N1_9
REMARK    2  A    between atoms: N1_9  and  C10_11
REMARK    3  A    between atoms: C10_11  and  C11_12
REMARK    4  A    between atoms: C11_12  and  N2_13
REMARK    5  A    between atoms: C14_16  and  N3_17
REMARK    6  A    between atoms: N3_17  and  C16_19
ROOT
HETATM    1  N2  UNL     1      60.433  27.969  41.849  1.00  0.00     0.090 N
HETATM    2  C12 UNL     1      61.708  27.494  41.259  1.00  0.00     0.274 C
HETATM    3  C13 UNL     1      62.552  26.833  42.319  1.00  0.00     0.055 C
HETATM    4  C14 UNL     1      61.946  25.455  42.564  1.00  0.00     0.088 C
HETATM    5  C21 UNL     1      60.477  25.608  42.236  1.00  0.00     0.055 C
HETATM    6  C22 UNL     1      60.065  26.973  42.825  1.00  0.00     0.274 C
ENDROOT
BRANCH   4   7
HETATM    7  N3  UNL     1      62.622  24.431  41.838  1.00  0.00    -0.365 N
HETATM    8  C15 UNL     1      63.552  24.776  40.785  1.00  0.00     0.151 C
BRANCH   7   9
HETATM    9  C16 UNL     1      62.421  23.053  42.090  1.00  0.00     0.135 A
HETATM   10  N4  UNL     1      62.835  22.540  43.261  1.00  0.00    -0.337 N
HETATM   11  C17 UNL     1      62.663  21.216  43.548  1.00  0.00     0.183 A
ATOM     12  H4  UNL     1      63.284  23.148  43.946  1.00  0.00     0.168 HD
HETATM   13  N5  UNL     1      62.072  20.379  42.667  1.00  0.00    -0.337 N
HETATM   14  C18 UNL     1      61.649  20.844  41.498  1.00  0.00     0.138 A
ATOM     15  H5  UNL     1      61.952  19.394  42.899  1.00  0.00     0.168 HD
HETATM   16  N6  UNL     1      61.046  20.268  40.456  1.00  0.00    -0.337 N
HETATM   17  C20 UNL     1      61.821  22.191  41.199  1.00  0.00     0.122 A
HETATM   18  C19 UNL     1      60.821  21.204  39.487  1.00  0.00     0.182 A
ATOM     19  H6  UNL     1      60.793  19.281  40.393  1.00  0.00     0.168 HD
HETATM   20  N7  UNL     1      61.303  22.368  39.966  1.00  0.00    -0.346 N
ATOM     21  H7  UNL     1      61.280  23.257  39.467  1.00  0.00     0.167 HD
ENDBRANCH   7   9
ENDBRANCH   4   7
BRANCH   1  22
HETATM   22  C11 UNL     1      60.697  29.269  42.339  1.00  0.00     0.291 C
BRANCH  22  23
HETATM   23  C10 UNL     1      59.682  29.970  43.140  1.00  0.00     0.147 C
BRANCH  23  24
HETATM   24  N1  UNL     1      60.075  31.038  43.973  1.00  0.00    -0.407 N
HETATM   25  C9  UNL     1      60.901  32.041  43.399  1.00  0.00     0.144 C
BRANCH  24  26
HETATM   26  C8  UNL     1      60.395  30.746  45.334  1.00  0.00     0.107 C
HETATM   27  C2  UNL     1      59.522  31.606  46.207  1.00  0.00    -0.063 C
HETATM   28  C1  UNL     1      59.979  32.772  46.663  1.00  0.00     0.017 C
HETATM   29  C3  UNL     1      58.156  31.195  46.596  1.00  0.00     0.011 C
HETATM   30  C4  UNL     1      57.178  31.122  45.468  1.00  0.00     0.015 C
HETATM   31  C5  UNL     1      58.308  29.786  47.192  1.00  0.00     0.009 C
HETATM   32  C6  UNL     1      58.828  28.910  46.103  1.00  0.00     0.003 C
HETATM   33  C7  UNL     1      60.228  29.324  45.732  1.00  0.00     0.029 C
ENDBRANCH  24  26
ENDBRANCH  23  24
ENDBRANCH  22  23
ENDBRANCH   1  22
TORSDOF 6
ENDMDL