MODEL 1
REMARK VINA RESULT: -7.794124333      0.000      0.000
REMARK  6 active torsions:
REMARK  status: ('A' for Active; 'I' for Inactive)
REMARK    1  A    between atoms: C2_2  and  C4_4
REMARK    2  A    between atoms: C4_4  and  N1_5
REMARK    3  A    between atoms: C5_6  and  S1_7
REMARK    4  A    between atoms: S1_7  and  C6_8
REMARK    5  A    between atoms: C6_8  and  C7_9
REMARK       I    between atoms: C7_9  and  N2_11
REMARK    6  A    between atoms: C14_22  and  C15_23
ROOT
HETATM    1  N1  UNL     1      61.239  28.790  43.338  1.00  0.00    -0.313 N
HETATM    2  C5  UNL     1      61.784  29.949  42.901  1.00  0.00     0.163 A
HETATM    3  N3  UNL     1      62.998  29.676  42.305  1.00  0.00    -0.278 N
ATOM      4  H3  UNL     1      63.641  30.348  41.884  1.00  0.00     0.189 HD
HETATM    5  N4  UNL     1      63.156  28.371  42.392  1.00  0.00    -0.285 N
ATOM      6  H4  UNL     1      63.962  27.856  42.039  1.00  0.00     0.188 HD
HETATM    7  C14 UNL     1      62.106  27.815  43.012  1.00  0.00     0.134 A
ENDROOT
BRANCH   2   8
HETATM    8  S1  UNL     1      61.152  31.595  42.921  1.00  0.00    -0.083 SA
BRANCH   8   9
HETATM    9  C6  UNL     1      61.674  32.699  41.664  1.00  0.00     0.185 C
BRANCH   9  10
HETATM   10  C7  UNL     1      62.229  32.195  40.414  1.00  0.00     0.229 C
HETATM   11  O1  UNL     1      62.250  31.040  39.978  1.00  0.00    -0.273 OA
HETATM   12  N2  UNL     1      62.843  33.211  39.567  1.00  0.00    -0.351 N
HETATM   13  C8  UNL     1      62.864  34.586  39.948  1.00  0.00     0.126 C
HETATM   14  C13 UNL     1      63.422  32.772  38.335  1.00  0.00     0.126 C
HETATM   15  C9  UNL     1      64.157  35.239  39.603  1.00  0.00     0.024 C
HETATM   16  C10 UNL     1      64.499  35.022  38.140  1.00  0.00    -0.015 C
HETATM   17  C11 UNL     1      63.507  35.638  37.201  1.00  0.00     0.010 C
HETATM   18  C12 UNL     1      64.632  33.531  37.907  1.00  0.00     0.024 C
ENDBRANCH   9  10
ENDBRANCH   8   9
ENDBRANCH   2   8
BRANCH   1  19
HETATM   19  C4  UNL     1      59.984  28.694  44.022  1.00  0.00     0.136 C
BRANCH  19  20
HETATM   20  C2  UNL     1      59.854  29.569  45.240  1.00  0.00    -0.004 C
HETATM   21  C1  UNL     1      58.570  30.386  45.026  1.00  0.00     0.011 C
HETATM   22  C3  UNL     1      59.790  28.876  46.545  1.00  0.00     0.011 C
ENDBRANCH  19  20
ENDBRANCH   1  19
BRANCH   7  23
HETATM   23  C15 UNL     1      61.956  26.380  43.274  1.00  0.00     0.291 C
HETATM   24  C16 UNL     1      63.353  25.736  43.223  1.00  0.00     0.044 C
HETATM   25  C17 UNL     1      63.296  24.282  43.574  1.00  0.00     0.004 C
HETATM   26  C18 UNL     1      62.320  23.600  42.647  1.00  0.00     0.030 C
HETATM   27  C19 UNL     1      61.026  24.343  42.673  1.00  0.00     0.273 C
HETATM   28  N5  UNL     1      61.249  25.709  42.166  1.00  0.00     0.096 N
HETATM   29  C20 UNL     1      59.944  26.281  41.948  1.00  0.00     0.310 C
ENDBRANCH   7  23
TORSDOF 6
ENDMDL