MODEL 5
REMARK VINA RESULT: -4.866217855      3.755      7.817
REMARK  8 active torsions:
REMARK  status: ('A' for Active; 'I' for Inactive)
REMARK    1  A    between atoms: C2_2  and  C3_3
REMARK    2  A    between atoms: C3_3  and  N1_4
REMARK    3  A    between atoms: C7_11  and  N3_12
REMARK    4  A    between atoms: N3_12  and  C8_14
REMARK    5  A    between atoms: C8_14  and  C10_16
REMARK    6  A    between atoms: C10_16  and  C11_17
REMARK    7  A    between atoms: N4_23  and  C17_24
REMARK    8  A    between atoms: N5_27  and  C20_28
ROOT
HETATM    1  N1  UNL     1      62.754  26.072  36.449  1.00  0.00    -0.262 N
HETATM    2  C4  UNL     1      62.992  25.510  37.626  1.00  0.00     0.268 A
HETATM    3  O1  UNL     1      63.730  24.493  37.674  1.00  0.00    -0.267 OA
HETATM    4  C5  UNL     1      62.423  26.061  38.759  1.00  0.00     0.106 A
HETATM    5  C6  UNL     1      62.527  25.691  40.052  1.00  0.00     0.081 A
HETATM    6  N2  UNL     1      63.195  24.674  40.626  1.00  0.00    -0.340 N
ATOM      7  H2  UNL     1      63.731  24.044  40.030  1.00  0.00     0.167 HD
HETATM    8  C7  UNL     1      63.187  24.454  41.953  1.00  0.00     0.102 A
HETATM    9  C13 UNL     1      62.459  25.324  42.699  1.00  0.00     0.057 A
HETATM   10  C14 UNL     1      61.735  26.414  42.161  1.00  0.00    -0.029 A
HETATM   11  C15 UNL     1      60.983  27.300  43.033  1.00  0.00     0.050 C
HETATM   12  C16 UNL     1      61.769  26.604  40.797  1.00  0.00     0.070 A
HETATM   13  N4  UNL     1      61.219  27.507  39.954  1.00  0.00    -0.330 N
HETATM   14  C19 UNL     1      61.598  27.203  38.676  1.00  0.00     0.132 A
HETATM   15  N5  UNL     1      61.370  27.748  37.474  1.00  0.00    -0.284 N
HETATM   16  C22 UNL     1      61.982  27.133  36.392  1.00  0.00     0.333 A
HETATM   17  O2  UNL     1      61.762  27.660  35.270  1.00  0.00    -0.246 OA
ENDROOT
BRANCH   8  18
HETATM   18  N3  UNL     1      63.809  23.499  42.527  1.00  0.00    -0.372 N
ATOM     19  H3  UNL     1      64.744  23.268  42.189  1.00  0.00     0.161 HD
BRANCH  18  20
HETATM   20  C8  UNL     1      63.278  22.722  43.620  1.00  0.00     0.079 C
HETATM   21  C9  UNL     1      62.929  21.359  43.076  1.00  0.00     0.032 C
BRANCH  20  22
HETATM   22  C10 UNL     1      64.356  22.644  44.680  1.00  0.00     0.024 C
BRANCH  22  23
HETATM   23  C11 UNL     1      64.049  23.552  45.852  1.00  0.00    -0.003 C
HETATM   24  C12 UNL     1      65.138  24.599  45.956  1.00  0.00     0.005 C
ENDBRANCH  22  23
ENDBRANCH  20  22
ENDBRANCH  18  20
ENDBRANCH   8  18
BRANCH  13  25
HETATM   25  C17 UNL     1      60.427  28.626  40.307  1.00  0.00     0.126 C
HETATM   26  C18 UNL     1      61.053  29.845  40.860  1.00  0.00     0.027 C
ENDBRANCH  13  25
BRANCH   1  27
HETATM   27  C3  UNL     1      63.376  25.460  35.276  1.00  0.00     0.163 C
BRANCH  27  28
HETATM   28  C2  UNL     1      64.498  26.255  34.755  1.00  0.00    -0.017 C
HETATM   29  C1  UNL     1      65.570  26.434  35.507  1.00  0.00     0.008 C
ENDBRANCH  27  28
ENDBRANCH   1  27
BRANCH  15  30
HETATM   30  C20 UNL     1      60.491  28.815  37.242  1.00  0.00     0.131 C
HETATM   31  C21 UNL     1      59.031  28.316  37.024  1.00  0.00     0.027 C
ENDBRANCH  15  30
TORSDOF 8
ENDMDL