MODEL 5
REMARK VINA RESULT: -7.883514296      3.702      9.104
REMARK  6 active torsions:
REMARK  status: ('A' for Active; 'I' for Inactive)
REMARK    1  A    between atoms: C2_2  and  C3_3
REMARK    2  A    between atoms: C4_6  and  S1_7
REMARK    3  A    between atoms: S1_7  and  C5_8
REMARK    4  A    between atoms: C5_8  and  C7_10
REMARK    5  A    between atoms: N3_15  and  C8_16
REMARK       I    between atoms: N4_19  and  C11_20
REMARK    6  A    between atoms: C11_20  and  C12_22
ROOT
HETATM    1  C3  UNL     1      62.996  21.752  43.029  1.00  0.00     0.100 A
HETATM    2  N1  UNL     1      62.883  20.615  42.299  1.00  0.00    -0.324 N
ATOM      3  H1  UNL     1      63.179  19.678  42.570  1.00  0.00     0.169 HD
HETATM    4  C4  UNL     1      62.304  20.976  41.155  1.00  0.00     0.161 A
HETATM    5  N2  UNL     1      62.080  22.272  41.196  1.00  0.00    -0.276 N
ATOM      6  H2  UNL     1      61.645  22.804  40.442  1.00  0.00     0.189 HD
HETATM    7  N3  UNL     1      62.491  22.796  42.334  1.00  0.00    -0.273 N
ENDROOT
BRANCH   7   8
HETATM    8  C8  UNL     1      62.395  24.176  42.693  1.00  0.00     0.113 C
HETATM    9  C9  UNL     1      61.012  24.717  42.760  1.00  0.00     0.047 C
HETATM   10  C10 UNL     1      60.836  26.063  42.057  1.00  0.00     0.128 C
HETATM   11  N4  UNL     1      61.923  26.960  42.238  1.00  0.00    -0.352 N
HETATM   12  C11 UNL     1      61.826  28.353  42.472  1.00  0.00     0.224 C
HETATM   13  C18 UNL     1      63.286  26.403  42.177  1.00  0.00     0.128 C
HETATM   14  O3  UNL     1      62.904  29.038  42.623  1.00  0.00    -0.273 OA
HETATM   15  C19 UNL     1      63.151  25.011  41.654  1.00  0.00     0.047 C
BRANCH  12  16
HETATM   16  C12 UNL     1      60.588  29.138  42.563  1.00  0.00     0.078 C
HETATM   17  C13 UNL     1      60.475  30.178  41.471  1.00  0.00     0.014 C
HETATM   18  C14 UNL     1      61.359  31.363  41.676  1.00  0.00     0.001 C
HETATM   19  C15 UNL     1      61.255  31.976  43.044  1.00  0.00     0.000 C
HETATM   20  C16 UNL     1      60.130  31.290  43.772  1.00  0.00     0.001 C
HETATM   21  C17 UNL     1      60.506  29.832  43.906  1.00  0.00     0.014 C
ENDBRANCH  12  16
ENDBRANCH   7   8
BRANCH   1  22
HETATM   22  C2  UNL     1      63.590  21.807  44.374  1.00  0.00     0.073 C
HETATM   23  C1  UNL     1      64.742  22.818  44.444  1.00  0.00     0.013 C
ENDBRANCH   1  22
BRANCH   4  24
HETATM   24  S1  UNL     1      61.902  19.890  39.803  1.00  0.00    -0.077 SA
BRANCH  24  25
HETATM   25  C5  UNL     1      60.145  20.035  39.380  1.00  0.00     0.152 C
HETATM   26  C6  UNL     1      59.634  18.781  38.710  1.00  0.00     0.033 C
BRANCH  25  27
HETATM   27  C7  UNL     1      60.004  21.175  38.437  1.00  0.00     0.187 C
HETATM   28  O1  UNL     1      58.917  21.502  37.937  1.00  0.00    -0.647 OA
HETATM   29  O2  UNL     1      61.174  21.879  38.132  1.00  0.00    -0.647 OA
ENDBRANCH  25  27
ENDBRANCH  24  25
ENDBRANCH   4  24
TORSDOF 6
ENDMDL