MODEL 3
REMARK VINA RESULT: -7.301510437      5.604     10.720
REMARK  6 active torsions:
REMARK  status: ('A' for Active; 'I' for Inactive)
REMARK    1  A    between atoms: N1_6  and  C6_7
REMARK    2  A    between atoms: C6_7  and  C7_8
REMARK    3  A    between atoms: C6_7  and  C8_10
REMARK    4  A    between atoms: C8_10  and  C9_11
REMARK    5  A    between atoms: C9_11  and  C10_13
REMARK    6  A    between atoms: C10_13  and  N2_14
ROOT
HETATM    1  N2  UNL     1      63.792  24.722  44.328  1.00  0.00    -0.341 N
HETATM    2  C11 UNL     1      62.943  23.540  44.325  1.00  0.00     0.164 C
HETATM    3  C12 UNL     1      63.720  22.260  44.276  1.00  0.00     0.140 C
HETATM    4  C13 UNL     1      63.560  21.694  42.859  1.00  0.00     0.048 C
HETATM    5  C14 UNL     1      63.146  21.309  45.303  1.00  0.00     0.049 C
HETATM    6  C15 UNL     1      63.930  21.433  46.569  1.00  0.00    -0.043 C
HETATM    7  C16 UNL     1      64.942  20.316  46.628  1.00  0.00     0.015 C
HETATM    8  C17 UNL     1      62.962  21.202  47.737  1.00  0.00     0.015 C
HETATM    9  C18 UNL     1      64.545  22.786  46.788  1.00  0.00     0.057 C
HETATM   10  C19 UNL     1      65.371  23.286  45.654  1.00  0.00     0.203 C
HETATM   11  C20 UNL     1      66.845  23.248  45.983  1.00  0.00     0.057 C
HETATM   12  N3  UNL     1      65.128  22.389  44.509  1.00  0.00    -0.048 N
ATOM     13  H31 UNL     1      65.627  22.692  43.673  1.00  0.00     0.279 HD
ATOM     14  H32 UNL     1      65.578  21.482  44.633  1.00  0.00     0.279 HD
HETATM   15  C21 UNL     1      64.957  24.624  45.150  1.00  0.00     0.256 C
HETATM   16  O3  UNL     1      65.602  25.653  45.430  1.00  0.00    -0.271 OA
ENDROOT
BRANCH   1  17
HETATM   17  C10 UNL     1      63.461  25.876  43.554  1.00  0.00     0.204 C
BRANCH  17  18
HETATM   18  C9  UNL     1      62.801  25.622  42.263  1.00  0.00     0.147 C
HETATM   19  O2  UNL     1      63.439  24.899  41.481  1.00  0.00    -0.296 OA
BRANCH  18  20
HETATM   20  C8  UNL     1      61.488  26.196  41.958  1.00  0.00     0.114 C
BRANCH  20  21
HETATM   21  C6  UNL     1      61.481  27.673  41.713  1.00  0.00     0.176 C
BRANCH  21  22
HETATM   22  N1  UNL     1      60.998  28.443  42.840  1.00  0.00    -0.285 N
HETATM   23  C4  UNL     1      61.471  29.604  43.324  1.00  0.00     0.027 A
HETATM   24  C3  UNL     1      60.722  29.989  44.398  1.00  0.00     0.052 A
HETATM   25  C5  UNL     1      62.622  30.338  42.767  1.00  0.00     0.070 C
HETATM   26  C2  UNL     1      59.761  29.029  44.572  1.00  0.00     0.024 A
HETATM   27  C1  UNL     1      58.728  29.071  45.647  1.00  0.00     0.070 C
HETATM   28  N4  UNL     1      59.956  28.119  43.622  1.00  0.00    -0.302 N
ATOM     29  H4  UNL     1      59.385  27.282  43.503  1.00  0.00     0.186 HD
ENDBRANCH  21  22
BRANCH  21  30
HETATM   30  C7  UNL     1      60.820  28.064  40.445  1.00  0.00     0.258 C
HETATM   31  O1  UNL     1      59.992  28.943  40.384  1.00  0.00    -0.305 OA
ENDBRANCH  21  30
ENDBRANCH  20  21
ENDBRANCH  18  20
ENDBRANCH  17  18
ENDBRANCH   1  17
TORSDOF 6
ENDMDL