MODEL 1
REMARK VINA RESULT: -8.191128127      0.000      0.000
REMARK  8 active torsions:
REMARK  status: ('A' for Active; 'I' for Inactive)
REMARK    1  A    between atoms: C2_2  and  O1_3
REMARK    2  A    between atoms: O1_3  and  C3_4
REMARK    3  A    between atoms: C3_4  and  C4_6
REMARK    4  A    between atoms: C9_11  and  C10_12
REMARK    5  A    between atoms: C10_12  and  O4_14
REMARK    6  A    between atoms: O4_14  and  C11_15
REMARK    7  A    between atoms: C11_15  and  C12_16
REMARK    8  A    between atoms: C12_16  and  C13_18
ROOT
HETATM    1  C4  UNL     1      61.087  29.730  43.733  1.00  0.00     0.098 C
HETATM    2  C5  UNL     1      60.952  28.576  42.715  1.00  0.00     0.021 C
HETATM    3  C6  UNL     1      62.440  28.268  42.571  1.00  0.00     0.008 C
HETATM    4  C7  UNL     1      63.098  29.662  42.575  1.00  0.00     0.008 C
HETATM    5  C8  UNL     1      61.990  30.639  42.974  1.00  0.00     0.032 C
HETATM    6  C9  UNL     1      61.312  31.282  41.812  1.00  0.00     0.183 C
HETATM    7  N1  UNL     1      60.434  30.406  41.110  1.00  0.00    -0.404 N
ATOM      8  H1  UNL     1      59.872  30.764  40.338  1.00  0.00     0.154 HD
HETATM    9  C20 UNL     1      60.338  29.060  41.472  1.00  0.00     0.078 C
HETATM   10  C21 UNL     1      60.818  28.235  40.255  1.00  0.00     0.032 C
ENDROOT
BRANCH   6  11
HETATM   11  C10 UNL     1      62.287  31.749  40.800  1.00  0.00     0.286 C
HETATM   12  O3  UNL     1      62.653  31.184  39.752  1.00  0.00    -0.263 OA
BRANCH  11  13
HETATM   13  O4  UNL     1      62.932  33.038  40.958  1.00  0.00    -0.286 OA
BRANCH  13  14
HETATM   14  C11 UNL     1      62.747  33.844  39.797  1.00  0.00     0.198 C
BRANCH  14  15
HETATM   15  C12 UNL     1      63.930  34.504  39.282  1.00  0.00     0.200 C
HETATM   16  O5  UNL     1      64.681  35.172  39.930  1.00  0.00    -0.288 OA
BRANCH  15  17
HETATM   17  C13 UNL     1      64.275  34.334  37.808  1.00  0.00     0.197 C
HETATM   18  C14 UNL     1      63.551  35.216  36.892  1.00  0.00     0.040 C
HETATM   19  C15 UNL     1      63.276  34.525  35.542  1.00  0.00     0.010 C
HETATM   20  C16 UNL     1      62.563  33.239  35.943  1.00  0.00     0.010 C
HETATM   21  C17 UNL     1      61.962  32.543  34.781  1.00  0.00     0.012 C
HETATM   22  C18 UNL     1      63.580  32.408  36.653  1.00  0.00     0.122 C
HETATM   23  C19 UNL     1      64.417  31.714  35.616  1.00  0.00     0.040 C
HETATM   24  O6  UNL     1      64.365  33.007  37.540  1.00  0.00    -0.373 OA
ENDBRANCH  15  17
ENDBRANCH  14  15
ENDBRANCH  13  14
ENDBRANCH  11  13
ENDBRANCH   6  11
BRANCH   1  25
HETATM   25  C3  UNL     1      59.824  30.163  44.241  1.00  0.00     0.263 C
HETATM   26  O2  UNL     1      59.601  31.443  44.238  1.00  0.00    -0.265 OA
BRANCH  25  27
HETATM   27  O1  UNL     1      58.809  29.388  44.742  1.00  0.00    -0.322 OA
BRANCH  27  28
HETATM   28  C2  UNL     1      58.883  28.891  46.093  1.00  0.00     0.174 C
HETATM   29  C1  UNL     1      58.458  29.934  47.112  1.00  0.00     0.034 C
ENDBRANCH  27  28
ENDBRANCH  25  27
ENDBRANCH   1  25
TORSDOF 8
ENDMDL