MODEL 4
REMARK VINA RESULT: -5.831363977      1.888      6.565
REMARK  4 active torsions:
REMARK  status: ('A' for Active; 'I' for Inactive)
REMARK    1  A    between atoms: C3_5  and  C4_6
REMARK    2  A    between atoms: C4_6  and  C5_7
REMARK    3  A    between atoms: C5_7  and  N2_8
REMARK    4  A    between atoms: C6_9  and  N3_10
ROOT
HETATM    1  N2  UNL     1     -19.824  -5.298 -15.959  1.00  0.00    -0.173 N
HETATM    2  C6  UNL     1     -19.306  -4.235 -16.648  1.00  0.00     0.684 A
HETATM    3  N4  UNL     1     -18.059  -4.570 -17.016  1.00  0.00    -0.173 N
ATOM      4  H4  UNL     1     -17.431  -3.964 -17.545  1.00  0.00     0.186 HD
HETATM    5  C11 UNL     1     -17.751  -5.790 -16.601  1.00  0.00     0.169 A
HETATM    6  N5  UNL     1     -16.672  -6.590 -16.694  1.00  0.00    -0.174 N
ATOM      7  H5  UNL     1     -15.851  -6.242 -17.189  1.00  0.00     0.186 HD
HETATM    8  C12 UNL     1     -16.627  -7.826 -16.164  1.00  0.00     0.680 A
HETATM    9  N6  UNL     1     -15.557  -8.558 -16.284  1.00  0.00    -0.234 N
ATOM     10  H61 UNL     1     -15.523  -9.494 -15.882  1.00  0.00     0.174 HD
ATOM     11  H62 UNL     1     -14.748  -8.188 -16.783  1.00  0.00     0.174 HD
HETATM   12  N7  UNL     1     -17.684  -8.310 -15.511  1.00  0.00    -0.154 N
ATOM     13  H7  UNL     1     -17.662  -9.246 -15.106  1.00  0.00     0.187 HD
HETATM   14  C13 UNL     1     -18.797  -7.527 -15.396  1.00  0.00     0.291 A
HETATM   15  O1  UNL     1     -19.801  -7.989 -14.775  1.00  0.00    -0.265 OA
HETATM   16  C14 UNL     1     -18.882  -6.258 -15.923  1.00  0.00     0.165 A
ENDROOT
BRANCH   1  17
HETATM   17  C5  UNL     1     -21.147  -5.381 -15.378  1.00  0.00     0.154 C
BRANCH  17  18
HETATM   18  C4  UNL     1     -21.229  -4.670 -14.067  1.00  0.00     0.079 C
BRANCH  18  19
HETATM   19  C3  UNL     1     -20.908  -5.519 -12.914  1.00  0.00     0.027 A
HETATM   20  N1  UNL     1     -19.723  -5.957 -12.452  1.00  0.00    -0.348 N
HETATM   21  C2  UNL     1     -19.873  -6.719 -11.361  1.00  0.00     0.077 A
ATOM     22  H1  UNL     1     -18.823  -5.737 -12.879  1.00  0.00     0.167 HD
HETATM   23  C1  UNL     1     -18.829  -7.384 -10.560  1.00  0.00     0.089 C
HETATM   24  N8  UNL     1     -21.201  -6.758 -11.135  1.00  0.00    -0.354 N
HETATM   25  C15 UNL     1     -21.862  -6.038 -12.061  1.00  0.00     0.114 A
ATOM     26  H8  UNL     1     -21.644  -7.263 -10.368  1.00  0.00     0.166 HD
ENDBRANCH  18  19
ENDBRANCH  17  18
ENDBRANCH   1  17
BRANCH   2  27
HETATM   27  N3  UNL     1     -19.976  -3.010 -16.914  1.00  0.00    -0.217 N
HETATM   28  C7  UNL     1     -19.996  -1.789 -16.129  1.00  0.00     0.141 C
HETATM   29  C8  UNL     1     -21.197  -1.007 -16.605  1.00  0.00     0.022 C
HETATM   30  C9  UNL     1     -21.378  -1.446 -18.021  1.00  0.00     0.022 C
HETATM   31  C10 UNL     1     -20.790  -2.814 -18.101  1.00  0.00     0.141 C
ENDBRANCH   2  27
TORSDOF 4
ENDMDL