MODEL 3
REMARK VINA RESULT: -5.732074483      1.273      1.403
REMARK  5 active torsions:
REMARK  status: ('A' for Active; 'I' for Inactive)
REMARK    1  A    between atoms: N2_7  and  C5_8
REMARK    2  A    between atoms: C5_8  and  C6_9
REMARK    3  A    between atoms: C6_9  and  C7_10
REMARK    4  A    between atoms: C7_10  and  N3_11
REMARK    5  A    between atoms: C12_19  and  N5_20
ROOT
HETATM    1  C1  UNL     1     -19.993  -0.862 -17.096  1.00  0.00     0.089 C
HETATM    2  C2  UNL     1     -19.971  -2.294 -16.657  1.00  0.00     0.074 C
HETATM    3  N1  UNL     1     -20.593  -2.705 -15.614  1.00  0.00    -0.343 N
ATOM      4  H1  UNL     1     -21.130  -2.060 -15.034  1.00  0.00     0.167 HD
HETATM    5  C3  UNL     1     -20.511  -4.112 -15.284  1.00  0.00     0.089 A
HETATM    6  C4  UNL     1     -19.822  -5.025 -16.021  1.00  0.00     0.069 A
HETATM    7  N2  UNL     1     -19.848  -6.259 -15.417  1.00  0.00    -0.340 N
HETATM    8  C10 UNL     1     -20.577  -6.080 -14.290  1.00  0.00     0.134 A
HETATM    9  C11 UNL     1     -20.966  -6.939 -13.269  1.00  0.00     0.289 A
HETATM   10  O1  UNL     1     -20.659  -8.133 -13.243  1.00  0.00    -0.265 OA
HETATM   11  N4  UNL     1     -21.722  -6.454 -12.244  1.00  0.00    -0.154 N
ATOM     12  H4  UNL     1     -22.003  -7.092 -11.499  1.00  0.00     0.187 HD
HETATM   13  C12 UNL     1     -22.111  -5.173 -12.175  1.00  0.00     0.679 A
HETATM   14  N6  UNL     1     -21.751  -4.315 -13.150  1.00  0.00    -0.187 N
ATOM     15  H6  UNL     1     -22.036  -3.337 -13.120  1.00  0.00     0.184 HD
HETATM   16  C13 UNL     1     -21.005  -4.788 -14.164  1.00  0.00     0.110 A
HETATM   17  C14 UNL     1     -19.267  -4.589 -17.302  1.00  0.00     0.069 C
HETATM   18  C15 UNL     1     -18.035  -5.295 -17.782  1.00  0.00     0.045 C
HETATM   19  C16 UNL     1     -20.359  -4.969 -18.350  1.00  0.00     0.045 C
HETATM   20  N7  UNL     1     -19.174  -3.177 -17.403  1.00  0.00    -0.366 N
ATOM     21  H7  UNL     1     -18.491  -2.783 -18.051  1.00  0.00     0.162 HD
ENDROOT
BRANCH   7  22
HETATM   22  C5  UNL     1     -19.237  -7.496 -15.849  1.00  0.00     0.131 C
BRANCH  22  23
HETATM   23  C6  UNL     1     -17.899  -7.797 -15.276  1.00  0.00     0.050 C
BRANCH  23  24
HETATM   24  C7  UNL     1     -17.162  -8.666 -16.314  1.00  0.00     0.273 C
BRANCH  24  25
HETATM   25  N3  UNL     1     -16.556  -9.758 -15.580  1.00  0.00     0.080 N
HETATM   26  C8  UNL     1     -15.448  -9.364 -14.759  1.00  0.00     0.309 C
HETATM   27  C9  UNL     1     -16.213 -10.874 -16.441  1.00  0.00     0.309 C
ENDBRANCH  24  25
ENDBRANCH  23  24
ENDBRANCH  22  23
ENDBRANCH   7  22
BRANCH  13  28
HETATM   28  N5  UNL     1     -22.830  -4.724 -11.197  1.00  0.00    -0.234 N
ATOM     29  H52 UNL     1     -22.530  -4.927 -10.243  1.00  0.00     0.174 HD
ATOM     30  H51 UNL     1     -23.677  -4.178 -11.353  1.00  0.00     0.174 HD
ENDBRANCH  13  28
TORSDOF 5
ENDMDL