MODEL 1
REMARK VINA RESULT: -6.091843924      0.000      0.000
REMARK  8 active torsions:
REMARK  status: ('A' for Active; 'I' for Inactive)
REMARK    1  A    between atoms: C2_2  and  N1_5
REMARK       I    between atoms: C5_7  and  N3_9
REMARK    2  A    between atoms: N4_11  and  C6_13
REMARK    3  A    between atoms: C6_13  and  N5_15
REMARK    4  A    between atoms: N5_15  and  N6_17
REMARK       I    between atoms: N6_17  and  C7_19
REMARK    5  A    between atoms: C7_19  and  C8_21
REMARK    6  A    between atoms: C8_21  and  C9_22
REMARK    7  A    between atoms: C9_22  and  C10_23
REMARK    8  A    between atoms: C10_23  and  C11_24
ROOT
HETATM    1  N5  UNL     1     -18.299  -5.380 -15.151  1.00  0.00    -0.272 N
ATOM      2  H5  UNL     1     -17.797  -4.493 -15.104  1.00  0.00     0.189 HD
ENDROOT
BRANCH   1   3
HETATM    3  C6  UNL     1     -19.177  -5.628 -16.217  1.00  0.00     0.205 C
HETATM    4  S1  UNL     1     -20.202  -6.902 -16.254  1.00  0.00    -0.038 SA
BRANCH   3   5
HETATM    5  N4  UNL     1     -19.203  -4.737 -17.315  1.00  0.00    -0.273 N
HETATM    6  N3  UNL     1     -19.809  -3.670 -17.273  1.00  0.00    -0.272 N
HETATM    7  C5  UNL     1     -20.568  -3.068 -16.258  1.00  0.00     0.203 C
ATOM      8  H3  UNL     1     -19.749  -3.122 -18.132  1.00  0.00     0.189 HD
HETATM    9  N1  UNL     1     -21.152  -1.949 -16.495  1.00  0.00    -0.355 N
HETATM   10  N2  UNL     1     -20.746  -3.615 -14.944  1.00  0.00    -0.062 NA
ATOM     11  H1  UNL     1     -21.685  -1.572 -15.711  1.00  0.00     0.163 HD
ATOM     12  H4  UNL     1     -18.705  -4.989 -18.169  1.00  0.00     0.189 HD
BRANCH   9  13
HETATM   13  C2  UNL     1     -21.178  -1.156 -17.660  1.00  0.00     0.021 C
HETATM   14  C1  UNL     1     -22.175  -0.012 -17.389  1.00  0.00     0.037 C
HETATM   15  C3  UNL     1     -21.616  -1.816 -18.930  1.00  0.00     0.037 C
HETATM   16  C4  UNL     1     -19.842  -0.488 -17.959  1.00  0.00     0.037 C
ENDBRANCH   9  13
ENDBRANCH   3   5
ENDBRANCH   1   3
BRANCH   1  17
HETATM   17  N6  UNL     1     -18.108  -6.333 -14.163  1.00  0.00    -0.268 N
HETATM   18  C7  UNL     1     -18.326  -5.984 -12.811  1.00  0.00     0.236 C
HETATM   19  O1  UNL     1     -18.689  -4.837 -12.518  1.00  0.00    -0.272 OA
ATOM     20  H6  UNL     1     -17.813  -7.278 -14.409  1.00  0.00     0.190 HD
BRANCH  18  21
HETATM   21  C8  UNL     1     -18.123  -6.989 -11.745  1.00  0.00     0.105 C
BRANCH  21  22
HETATM   22  C9  UNL     1     -19.363  -7.132 -10.931  1.00  0.00     0.017 C
BRANCH  22  23
HETATM   23  C10 UNL     1     -20.580  -7.447 -11.779  1.00  0.00     0.080 C
BRANCH  23  24
HETATM   24  C11 UNL     1     -21.475  -6.288 -11.919  1.00  0.00     0.112 A
HETATM   25  N7  UNL     1     -22.083  -5.654 -10.901  1.00  0.00    -0.272 N
HETATM   26  N8  UNL     1     -22.809  -4.658 -11.361  1.00  0.00    -0.227 N
ATOM     27  H7  UNL     1     -21.994  -5.908  -9.917  1.00  0.00     0.190 HD
HETATM   28  N9  UNL     1     -22.675  -4.646 -12.665  1.00  0.00    -0.227 N
ATOM     29  H8  UNL     1     -23.373  -4.015 -10.805  1.00  0.00     0.210 HD
HETATM   30  N10 UNL     1     -21.872  -5.623 -13.021  1.00  0.00    -0.272 N
ATOM     31  H9  UNL     1     -23.122  -3.985 -13.300  1.00  0.00     0.210 HD
ATOM     32  H10 UNL     1     -21.593  -5.843 -13.978  1.00  0.00     0.190 HD
ENDBRANCH  23  24
ENDBRANCH  22  23
ENDBRANCH  21  22
ENDBRANCH  18  21
ENDBRANCH   1  17
TORSDOF 8
ENDMDL