MODEL 3
REMARK VINA RESULT: -5.988676064      1.808      5.610
REMARK  5 active torsions:
REMARK  status: ('A' for Active; 'I' for Inactive)
REMARK    1  A    between atoms: C2_2  and  C3_3
REMARK    2  A    between atoms: C3_3  and  C4_4
REMARK    3  A    between atoms: C4_4  and  N1_5
REMARK    4  A    between atoms: C9_12  and  N3_13
REMARK    5  A    between atoms: C14_24  and  C15_25
ROOT
HETATM    1  N1  UNL     1     -19.517  -2.520 -17.368  1.00  0.00     0.093 N
HETATM    2  C5  UNL     1     -20.941  -2.520 -17.110  1.00  0.00     0.279 C
HETATM    3  C6  UNL     1     -21.228  -2.166 -15.665  1.00  0.00     0.088 C
HETATM    4  C7  UNL     1     -20.667  -3.298 -14.867  1.00  0.00     0.020 A
HETATM    5  N2  UNL     1     -21.348  -3.751 -13.831  1.00  0.00    -0.355 N
ATOM      6  H2  UNL     1     -22.232  -3.314 -13.570  1.00  0.00     0.166 HD
HETATM    7  C8  UNL     1     -20.883  -4.770 -13.134  1.00  0.00     0.089 A
HETATM    8  C9  UNL     1     -21.655  -5.180 -12.079  1.00  0.00     0.128 A
HETATM    9  N4  UNL     1     -21.228  -6.216 -11.344  1.00  0.00    -0.328 N
ATOM     10  H4  UNL     1     -21.777  -6.547 -10.551  1.00  0.00     0.168 HD
HETATM   11  C10 UNL     1     -20.077  -6.808 -11.660  1.00  0.00     0.139 A
HETATM   12  N5  UNL     1     -19.668  -7.902 -10.855  1.00  0.00    -0.081 NA
HETATM   13  C11 UNL     1     -19.264  -6.411 -12.735  1.00  0.00     0.099 A
HETATM   14  C12 UNL     1     -18.053  -7.153 -12.943  1.00  0.00     0.104 C
HETATM   15  N6  UNL     1     -17.087  -7.800 -13.044  1.00  0.00    -0.191 NA
HETATM   16  C13 UNL     1     -19.654  -5.371 -13.503  1.00  0.00     0.035 A
HETATM   17  C14 UNL     1     -18.943  -4.917 -14.563  1.00  0.00     0.053 A
HETATM   18  C16 UNL     1     -19.481  -3.829 -15.273  1.00  0.00     0.009 A
HETATM   19  C17 UNL     1     -18.766  -3.299 -16.418  1.00  0.00     0.314 C
ENDROOT
BRANCH  17  20
HETATM   20  C15 UNL     1     -17.693  -5.445 -15.041  1.00  0.00     0.266 C
HETATM   21  N7  UNL     1     -17.711  -6.499 -16.017  1.00  0.00    -0.057 NA
HETATM   22  O1  UNL     1     -16.544  -5.077 -14.677  1.00  0.00    -0.271 OA
ENDBRANCH  17  20
BRANCH   8  23
HETATM   23  N3  UNL     1     -22.767  -4.596 -11.774  1.00  0.00    -0.384 N
ATOM     24  H32 UNL     1     -23.105  -4.625 -10.812  1.00  0.00     0.157 HD
ATOM     25  H31 UNL     1     -23.325  -4.098 -12.469  1.00  0.00     0.157 HD
ENDBRANCH   8  23
BRANCH   1  26
HETATM   26  C4  UNL     1     -19.315  -3.047 -18.717  1.00  0.00     0.272 C
BRANCH  26  27
HETATM   27  C3  UNL     1     -20.504  -3.872 -19.094  1.00  0.00     0.030 C
BRANCH  27  28
HETATM   28  C2  UNL     1     -20.007  -5.336 -19.075  1.00  0.00    -0.003 C
HETATM   29  C1  UNL     1     -20.813  -6.088 -18.054  1.00  0.00     0.005 C
ENDBRANCH  27  28
ENDBRANCH  26  27
ENDBRANCH   1  26
TORSDOF 5
ENDMDL