MODEL 3
REMARK VINA RESULT: -5.776839763      1.682      5.684
REMARK  3 active torsions:
REMARK  status: ('A' for Active; 'I' for Inactive)
REMARK    1  A    between atoms: C4_9  and  C5_10
REMARK    2  A    between atoms: C5_10  and  N3_11
REMARK    3  A    between atoms: C11_21  and  N5_22
ROOT
HETATM    1  C1  UNL     1     -19.131  -7.947 -10.503  1.00  0.00     0.089 C
HETATM    2  C2  UNL     1     -19.943  -7.171 -11.477  1.00  0.00     0.080 A
HETATM    3  N1  UNL     1     -20.994  -6.432 -11.204  1.00  0.00    -0.332 N
ATOM      4  H1  UNL     1     -21.332  -6.434 -10.243  1.00  0.00     0.168 HD
HETATM    5  C3  UNL     1     -21.676  -5.654 -12.117  1.00  0.00     0.111 A
HETATM    6  N2  UNL     1     -22.650  -5.043 -11.686  1.00  0.00    -0.385 N
ATOM      7  H21 UNL     1     -23.154  -4.468 -12.361  1.00  0.00     0.157 HD
ATOM      8  H22 UNL     1     -23.023  -5.009 -10.737  1.00  0.00     0.157 HD
HETATM    9  C4  UNL     1     -21.166  -5.701 -13.413  1.00  0.00     0.047 A
HETATM   10  C11 UNL     1     -20.081  -6.482 -13.723  1.00  0.00     0.116 A
HETATM   11  N7  UNL     1     -19.478  -7.199 -12.775  1.00  0.00    -0.332 N
ATOM     12  H7  UNL     1     -18.668  -7.771 -13.011  1.00  0.00     0.168 HD
ENDROOT
BRANCH   9  13
HETATM   13  C5  UNL     1     -21.698  -4.758 -14.465  1.00  0.00     0.165 C
BRANCH  13  14
HETATM   14  N3  UNL     1     -20.804  -3.623 -14.470  1.00  0.00    -0.391 N
HETATM   15  C6  UNL     1     -20.396  -2.921 -15.566  1.00  0.00     0.008 C
HETATM   16  C7  UNL     1     -20.706  -1.442 -15.546  1.00  0.00     0.055 C
HETATM   17  C10 UNL     1     -20.619  -3.425 -16.945  1.00  0.00     0.284 C
HETATM   18  C8  UNL     1     -19.766  -0.739 -16.509  1.00  0.00     0.033 C
HETATM   19  C9  UNL     1     -19.461  -1.480 -17.760  1.00  0.00     0.233 C
HETATM   20  N4  UNL     1     -19.495  -2.893 -17.732  1.00  0.00    -0.070 N
ATOM     21  H42 UNL     1     -19.500  -3.277 -18.678  1.00  0.00     0.277 HD
ATOM     22  H41 UNL     1     -18.608  -3.273 -17.403  1.00  0.00     0.277 HD
ATOM     23  H3  UNL     1     -20.443  -3.316 -13.566  1.00  0.00     0.159 HD
ENDBRANCH  13  14
ENDBRANCH   9  13
BRANCH  10  24
HETATM   24  N5  UNL     1     -19.750  -6.810 -15.088  1.00  0.00    -0.365 N
HETATM   25  C12 UNL     1     -18.486  -6.057 -15.408  1.00  0.00     0.126 C
HETATM   26  C13 UNL     1     -17.753  -6.757 -16.473  1.00  0.00     0.050 C
HETATM   27  C14 UNL     1     -18.257  -6.333 -17.847  1.00  0.00     0.273 C
HETATM   28  N6  UNL     1     -19.463  -7.085 -18.112  1.00  0.00     0.085 N
HETATM   29  C15 UNL     1     -19.777  -6.992 -19.547  1.00  0.00     0.309 C
HETATM   30  C16 UNL     1     -20.568  -6.770 -17.286  1.00  0.00     0.291 C
HETATM   31  C17 UNL     1     -20.461  -7.620 -15.990  1.00  0.00     0.154 C
ENDBRANCH  10  24
TORSDOF 3
ENDMDL