MODEL 5
REMARK VINA RESULT: -5.585476533      1.810      2.165
REMARK  6 active torsions:
REMARK  status: ('A' for Active; 'I' for Inactive)
REMARK    1  A    between atoms: C2_2  and  O1_3
REMARK    2  A    between atoms: O1_3  and  C3_4
REMARK    3  A    between atoms: C4_5  and  N1_6
REMARK    4  A    between atoms: N2_9  and  C7_10
REMARK    5  A    between atoms: C11_17  and  N4_18
REMARK    6  A    between atoms: C12_23  and  N6_24
ROOT
HETATM    1  C3  UNL     1     -19.771  -4.895 -16.179  1.00  0.00     0.120 A
HETATM    2  C4  UNL     1     -19.355  -6.192 -15.998  1.00  0.00     0.138 A
HETATM    3  N3  UNL     1     -19.697  -6.911 -14.910  1.00  0.00    -0.335 N
ATOM      4  H3  UNL     1     -19.367  -7.872 -14.817  1.00  0.00     0.168 HD
HETATM    5  C10 UNL     1     -20.473  -6.375 -13.942  1.00  0.00     0.106 A
HETATM    6  C11 UNL     1     -20.847  -7.061 -12.821  1.00  0.00     0.144 A
HETATM    7  N5  UNL     1     -21.633  -6.453 -11.885  1.00  0.00    -0.175 N
ATOM      8  H5  UNL     1     -21.910  -6.970 -11.049  1.00  0.00     0.186 HD
HETATM    9  C12 UNL     1     -22.048  -5.186 -12.048  1.00  0.00     0.678 A
HETATM   10  N7  UNL     1     -21.683  -4.509 -13.147  1.00  0.00    -0.189 N
ATOM     11  H7  UNL     1     -21.998  -3.547 -13.269  1.00  0.00     0.184 HD
HETATM   12  C13 UNL     1     -20.907  -5.074 -14.095  1.00  0.00     0.088 A
HETATM   13  C14 UNL     1     -20.562  -4.329 -15.207  1.00  0.00     0.005 A
HETATM   14  C15 UNL     1     -21.031  -2.945 -15.354  1.00  0.00     0.054 C
ENDROOT
BRANCH   2  15
HETATM   15  N1  UNL     1     -18.537  -6.818 -16.977  1.00  0.00    -0.362 N
HETATM   16  C5  UNL     1     -17.112  -6.602 -17.051  1.00  0.00     0.144 C
HETATM   17  C6  UNL     1     -16.367  -7.910 -16.989  1.00  0.00     0.145 C
HETATM   18  N2  UNL     1     -17.144  -8.976 -17.639  1.00  0.00    -0.356 N
HETATM   19  C8  UNL     1     -18.210  -8.648 -18.545  1.00  0.00     0.145 C
HETATM   20  C9  UNL     1     -19.205  -7.704 -17.922  1.00  0.00     0.144 C
BRANCH  18  21
HETATM   21  C7  UNL     1     -16.778 -10.311 -17.318  1.00  0.00     0.350 C
HETATM   22  O2  UNL     1     -16.965 -10.824 -16.194  1.00  0.00    -0.284 OA
ENDBRANCH  18  21
ENDBRANCH   2  15
BRANCH   1  23
HETATM   23  O1  UNL     1     -19.394  -4.207 -17.307  1.00  0.00    -0.347 OA
BRANCH  23  24
HETATM   24  C2  UNL     1     -20.082  -4.290 -18.540  1.00  0.00     0.171 C
HETATM   25  C1  UNL     1     -20.820  -3.021 -18.863  1.00  0.00     0.034 C
ENDBRANCH  23  24
ENDBRANCH   1  23
BRANCH   6  26
HETATM   26  N4  UNL     1     -20.468  -8.273 -12.638  1.00  0.00    -0.383 N
ATOM     27  H42 UNL     1     -20.104  -8.810 -13.425  1.00  0.00     0.157 HD
ATOM     28  H41 UNL     1     -20.528  -8.703 -11.715  1.00  0.00     0.157 HD
ENDBRANCH   6  26
BRANCH   9  29
HETATM   29  N6  UNL     1     -22.796  -4.593 -11.168  1.00  0.00    -0.234 N
ATOM     30  H62 UNL     1     -22.454  -4.503 -10.212  1.00  0.00     0.174 HD
ATOM     31  H61 UNL     1     -23.713  -4.216 -11.409  1.00  0.00     0.174 HD
ENDBRANCH   9  29
TORSDOF 6
ENDMDL