MODEL 1
REMARK VINA RESULT: -6.323606579      0.000      0.000
REMARK  5 active torsions:
REMARK  status: ('A' for Active; 'I' for Inactive)
REMARK    1  A    between atoms: C1_4  and  C2_5
REMARK    2  A    between atoms: C1_4  and  N6_24
REMARK    3  A    between atoms: C2_5  and  C3_6
REMARK    4  A    between atoms: C3_6  and  N2_7
REMARK       I    between atoms: N2_7  and  C4_9
REMARK    5  A    between atoms: C4_9  and  C5_11
ROOT
HETATM    1  N2  UNL     1     -16.391  -7.457 -14.776  1.00  0.00    -0.355 N
ATOM      2  H2  UNL     1     -16.192  -6.663 -14.167  1.00  0.00     0.162 HD
HETATM    3  C4  UNL     1     -17.727  -7.838 -15.043  1.00  0.00     0.275 C
HETATM    4  O1  UNL     1     -17.963  -8.831 -15.805  1.00  0.00    -0.265 OA
ENDROOT
BRANCH   3   5
HETATM    5  C5  UNL     1     -18.829  -7.090 -14.444  1.00  0.00     0.145 A
HETATM    6  N3  UNL     1     -19.468  -7.416 -13.337  1.00  0.00    -0.339 N
HETATM    7  C6  UNL     1     -20.436  -6.667 -12.903  1.00  0.00     0.136 A
ATOM      8  H3  UNL     1     -19.201  -8.255 -12.823  1.00  0.00     0.167 HD
HETATM    9  C7  UNL     1     -21.210  -6.880 -11.743  1.00  0.00     0.276 A
HETATM   10  C9  UNL     1     -20.757  -5.552 -13.628  1.00  0.00     0.109 A
HETATM   11  O2  UNL     1     -21.015  -7.869 -10.990  1.00  0.00    -0.266 OA
HETATM   12  N4  UNL     1     -22.165  -6.007 -11.449  1.00  0.00    -0.318 N
HETATM   13  C8  UNL     1     -22.487  -4.910 -12.154  1.00  0.00     0.184 A
ATOM     14  H4  UNL     1     -22.708  -6.186 -10.604  1.00  0.00     0.169 HD
HETATM   15  N5  UNL     1     -21.756  -4.690 -13.269  1.00  0.00    -0.345 N
ATOM     16  H5  UNL     1     -21.951  -3.873 -13.848  1.00  0.00     0.167 HD
HETATM   17  S1  UNL     1     -19.621  -5.655 -14.916  1.00  0.00    -0.046 SA
ENDBRANCH   3   5
BRANCH   1  18
HETATM   18  C3  UNL     1     -15.318  -8.205 -15.374  1.00  0.00     0.130 C
BRANCH  18  19
HETATM   19  C2  UNL     1     -14.526  -8.990 -14.367  1.00  0.00     0.095 C
BRANCH  19  20
HETATM   20  C1  UNL     1     -14.654 -10.445 -14.634  1.00  0.00     0.074 C
HETATM   21  N1  UNL     1     -15.641 -10.870 -15.340  1.00  0.00    -0.389 N
ATOM     22  H12 UNL     1     -16.308 -10.186 -15.697  1.00  0.00     0.157 HD
ATOM     23  H11 UNL     1     -15.729 -11.869 -15.523  1.00  0.00     0.157 HD
BRANCH  20  24
HETATM   24  N6  UNL     1     -13.728 -11.393 -14.138  1.00  0.00    -0.371 N
HETATM   25  C10 UNL     1     -14.154 -12.728 -13.796  1.00  0.00     0.124 C
HETATM   26  C11 UNL     1     -12.901 -13.585 -13.674  1.00  0.00     0.020 C
HETATM   27  C12 UNL     1     -11.984 -13.084 -12.598  1.00  0.00     0.003 C
HETATM   28  C13 UNL     1     -11.981 -11.556 -12.528  1.00  0.00     0.020 C
HETATM   29  C14 UNL     1     -12.314 -11.083 -13.947  1.00  0.00     0.124 C
ENDBRANCH  20  24
ENDBRANCH  19  20
ENDBRANCH  18  19
ENDBRANCH   1  18
TORSDOF 5
ENDMDL