MODEL 2
REMARK VINA RESULT: -6.037708407      1.913      2.418
REMARK  5 active torsions:
REMARK  status: ('A' for Active; 'I' for Inactive)
REMARK    1  A    between atoms: C7_8  and  N1_9
REMARK       I    between atoms: N1_9  and  C8_11
REMARK    2  A    between atoms: C8_11  and  C9_13
REMARK    3  A    between atoms: C9_13  and  O2_14
REMARK    4  A    between atoms: O2_14  and  C10_15
REMARK    5  A    between atoms: C11_18  and  C12_19
ROOT
HETATM    1  C1  UNL     1     -18.916  -4.538 -19.727  1.00  0.00     0.038 C
HETATM    2  C2  UNL     1     -20.368  -5.016 -19.813  1.00  0.00     0.030 C
HETATM    3  C3  UNL     1     -20.512  -5.700 -21.150  1.00  0.00     0.038 C
HETATM    4  C4  UNL     1     -20.575  -6.032 -18.720  1.00  0.00     0.071 C
HETATM    5  C5  UNL     1     -20.434  -5.445 -17.335  1.00  0.00    -0.015 A
HETATM    6  C6  UNL     1     -20.688  -4.118 -17.236  1.00  0.00     0.082 A
HETATM    7  S1  UNL     1     -20.400  -3.759 -15.612  1.00  0.00    -0.065 SA
HETATM    8  C7  UNL     1     -19.933  -5.368 -15.050  1.00  0.00     0.093 A
HETATM    9  C11 UNL     1     -20.046  -6.093 -16.179  1.00  0.00     0.071 A
HETATM   10  C13 UNL     1     -21.107  -3.269 -18.388  1.00  0.00     0.259 C
HETATM   11  O5  UNL     1     -21.313  -2.078 -18.159  1.00  0.00    -0.267 OA
HETATM   12  N4  UNL     1     -21.242  -3.894 -19.667  1.00  0.00    -0.348 N
ATOM     13  H4  UNL     1     -21.886  -3.576 -20.391  1.00  0.00     0.163 HD
ENDROOT
BRANCH   8  14
HETATM   14  N1  UNL     1     -19.577  -5.595 -13.691  1.00  0.00    -0.319 N
HETATM   15  C8  UNL     1     -18.565  -6.309 -13.107  1.00  0.00     0.246 C
HETATM   16  O1  UNL     1     -17.652  -6.923 -13.680  1.00  0.00    -0.271 OA
ATOM     17  H1  UNL     1     -20.196  -5.138 -13.022  1.00  0.00     0.169 HD
BRANCH  15  18
HETATM   18  C9  UNL     1     -18.492  -6.406 -11.589  1.00  0.00     0.283 C
BRANCH  18  19
HETATM   19  O2  UNL     1     -19.770  -6.468 -11.022  1.00  0.00    -0.297 OA
BRANCH  19  20
HETATM   20  C10 UNL     1     -20.586  -7.542 -11.325  1.00  0.00     0.373 C
HETATM   21  N2  UNL     1     -21.775  -7.348 -12.071  1.00  0.00    -0.032 NA
HETATM   22  O3  UNL     1     -20.226  -8.680 -10.910  1.00  0.00    -0.242 OA
ENDBRANCH  19  20
ENDBRANCH  18  19
ENDBRANCH  15  18
ENDBRANCH   8  14
BRANCH   9  23
HETATM   23  C12 UNL     1     -20.101  -7.593 -16.137  1.00  0.00     0.268 C
HETATM   24  N3  UNL     1     -19.415  -8.438 -17.039  1.00  0.00    -0.057 NA
HETATM   25  O4  UNL     1     -20.771  -8.225 -15.287  1.00  0.00    -0.271 OA
ENDBRANCH   9  23
TORSDOF 5
ENDMDL