MODEL 4
REMARK VINA RESULT: -5.518408023      2.014      7.164
REMARK  5 active torsions:
REMARK  status: ('A' for Active; 'I' for Inactive)
REMARK    1  A    between atoms: C2_2  and  C3_3
REMARK    2  A    between atoms: C3_3  and  C4_4
REMARK    3  A    between atoms: C4_4  and  N1_5
REMARK    4  A    between atoms: C9_12  and  N3_13
REMARK       I    between atoms: N3_13  and  C10_15
REMARK       I    between atoms: C10_15  and  N4_17
REMARK    5  A    between atoms: C12_22  and  N6_23
ROOT
HETATM    1  N1  UNL     1     -20.440  -6.292 -13.310  1.00  0.00    -0.301 N
HETATM    2  C5  UNL     1     -20.510  -7.236 -14.234  1.00  0.00     0.128 A
HETATM    3  N2  UNL     1     -20.854  -8.591 -13.978  1.00  0.00    -0.082 NA
HETATM    4  C6  UNL     1     -20.240  -6.937 -15.552  1.00  0.00    -0.002 A
HETATM    5  C7  UNL     1     -20.299  -7.946 -16.637  1.00  0.00     0.053 C
HETATM    6  C8  UNL     1     -19.895  -5.648 -15.903  1.00  0.00     0.037 A
HETATM    7  S1  UNL     1     -19.540  -5.179 -17.517  1.00  0.00    -0.052 SA
HETATM    8  C9  UNL     1     -19.147  -3.503 -17.622  1.00  0.00     0.154 A
HETATM    9  N5  UNL     1     -19.180  -2.851 -16.450  1.00  0.00    -0.322 N
ATOM     10  H5  UNL     1     -18.951  -1.857 -16.481  1.00  0.00     0.169 HD
HETATM   11  C12 UNL     1     -19.475  -3.342 -15.260  1.00  0.00     0.118 A
HETATM   12  C13 UNL     1     -19.815  -4.647 -14.963  1.00  0.00     0.093 A
HETATM   13  C14 UNL     1     -20.105  -5.040 -13.653  1.00  0.00     0.264 A
HETATM   14  O2  UNL     1     -20.043  -4.141 -12.747  1.00  0.00    -0.267 OA
ENDROOT
BRANCH   8  15
HETATM   15  N3  UNL     1     -18.841  -2.906 -18.728  1.00  0.00    -0.289 N
HETATM   16  C10 UNL     1     -19.734  -2.035 -19.389  1.00  0.00     0.321 C
HETATM   17  O1  UNL     1     -19.434  -0.816 -19.631  1.00  0.00    -0.247 OA
HETATM   18  N4  UNL     1     -21.007  -2.512 -19.804  1.00  0.00    -0.347 N
HETATM   19  C11 UNL     1     -21.952  -1.630 -20.491  1.00  0.00     0.151 C
ATOM     20  H4  UNL     1     -21.266  -3.482 -19.620  1.00  0.00     0.163 HD
ATOM     21  H3  UNL     1     -17.921  -3.070 -19.137  1.00  0.00     0.172 HD
ENDBRANCH   8  15
BRANCH  11  22
HETATM   22  N6  UNL     1     -19.451  -2.535 -14.241  1.00  0.00    -0.385 N
ATOM     23  H62 UNL     1     -20.367  -2.272 -13.877  1.00  0.00     0.157 HD
ATOM     24  H61 UNL     1     -18.542  -2.232 -13.890  1.00  0.00     0.157 HD
ENDBRANCH  11  22
BRANCH   1  25
HETATM   25  C4  UNL     1     -20.741  -6.671 -11.949  1.00  0.00     0.133 C
BRANCH  25  26
HETATM   26  C3  UNL     1     -19.634  -7.370 -11.234  1.00  0.00     0.020 C
BRANCH  26  27
HETATM   27  C2  UNL     1     -18.286  -6.742 -11.347  1.00  0.00    -0.003 C
HETATM   28  C1  UNL     1     -17.712  -6.698  -9.921  1.00  0.00     0.005 C
ENDBRANCH  26  27
ENDBRANCH  25  26
ENDBRANCH   1  25
TORSDOF 5
ENDMDL