MODEL 3
REMARK VINA RESULT: -6.145045371      2.836      3.457
REMARK  5 active torsions:
REMARK  status: ('A' for Active; 'I' for Inactive)
REMARK    1  A    between atoms: C2_2  and  C3_3
REMARK    2  A    between atoms: C6_8  and  N2_9
REMARK    3  A    between atoms: C11_16  and  C12_17
REMARK    4  A    between atoms: C12_17  and  C13_18
REMARK    5  A    between atoms: C14_19  and  O1_20
ROOT
HETATM    1  C3  UNL     1     -19.591  -2.572 -15.668  1.00  0.00    -0.012 A
HETATM    2  C4  UNL     1     -18.352  -1.944 -15.877  1.00  0.00     0.031 A
HETATM    3  C5  UNL     1     -18.249  -0.492 -16.183  1.00  0.00     0.069 C
HETATM    4  N1  UNL     1     -17.238  -2.664 -15.805  1.00  0.00    -0.195 N
ATOM      5  H1  UNL     1     -16.338  -2.208 -15.956  1.00  0.00     0.184 HD
HETATM    6  C6  UNL     1     -17.271  -3.984 -15.535  1.00  0.00     0.680 A
HETATM    7  N3  UNL     1     -18.459  -4.567 -15.340  1.00  0.00    -0.195 N
ATOM      8  H3  UNL     1     -18.472  -5.566 -15.136  1.00  0.00     0.184 HD
HETATM    9  C11 UNL     1     -19.632  -3.924 -15.393  1.00  0.00     0.039 A
ENDROOT
BRANCH   9  10
HETATM   10  C12 UNL     1     -20.938  -4.568 -15.181  1.00  0.00     0.107 C
BRANCH  10  11
HETATM   11  C13 UNL     1     -20.922  -5.517 -14.037  1.00  0.00     0.066 A
HETATM   12  C14 UNL     1     -21.455  -5.168 -12.816  1.00  0.00     0.156 A
HETATM   13  N4  UNL     1     -21.441  -6.029 -11.788  1.00  0.00    -0.288 N
HETATM   14  C15 UNL     1     -20.919  -7.265 -11.872  1.00  0.00     0.329 A
ATOM     15  H4  UNL     1     -21.847  -5.733 -10.901  1.00  0.00     0.172 HD
HETATM   16  O2  UNL     1     -20.913  -8.064 -10.895  1.00  0.00    -0.247 OA
HETATM   17  N5  UNL     1     -20.391  -7.629 -13.055  1.00  0.00    -0.275 N
HETATM   18  C16 UNL     1     -20.383  -6.798 -14.113  1.00  0.00     0.260 A
ATOM     19  H5  UNL     1     -19.986  -8.559 -13.152  1.00  0.00     0.173 HD
HETATM   20  O3  UNL     1     -19.881  -7.178 -15.199  1.00  0.00    -0.267 OA
BRANCH  12  21
HETATM   21  O1  UNL     1     -22.012  -3.884 -12.685  1.00  0.00    -0.345 OA
ATOM     22  H1  UNL     1     -22.944  -3.786 -12.842  1.00  0.00     0.219 HD
ENDBRANCH  12  21
ENDBRANCH  10  11
ENDBRANCH   9  10
BRANCH   1  23
HETATM   23  C2  UNL     1     -20.774  -1.690 -15.746  1.00  0.00     0.038 C
HETATM   24  C1  UNL     1     -21.282  -1.621 -17.195  1.00  0.00     0.010 C
ENDBRANCH   1  23
BRANCH   6  25
HETATM   25  N2  UNL     1     -16.028  -4.660 -15.485  1.00  0.00    -0.218 N
HETATM   26  C7  UNL     1     -15.798  -6.085 -15.426  1.00  0.00     0.141 C
HETATM   27  C8  UNL     1     -14.457  -6.268 -16.090  1.00  0.00     0.022 C
HETATM   28  C9  UNL     1     -13.693  -5.052 -15.661  1.00  0.00     0.022 C
HETATM   29  C10 UNL     1     -14.746  -3.990 -15.507  1.00  0.00     0.141 C
ENDBRANCH   6  25
TORSDOF 5
ENDMDL