MODEL 5
REMARK VINA RESULT: -6.211492583      3.212      4.449
REMARK  11 active torsions:
REMARK  status: ('A' for Active; 'I' for Inactive)
REMARK    1  A    between atoms: N1_1  and  C1_5
REMARK    2  A    between atoms: C1_5  and  C2_6
REMARK    3  A    between atoms: C3_7  and  S1_8
REMARK    4  A    between atoms: S1_8  and  C4_9
REMARK    5  A    between atoms: C12_17  and  N2_18
REMARK    6  A    between atoms: C16_27  and  N5_28
REMARK    7  A    between atoms: N5_28  and  C17_30
REMARK    8  A    between atoms: C17_30  and  C18_31
REMARK    9  A    between atoms: C17_30  and  C19_34
REMARK   10  A    between atoms: C18_31  and  O2_32
REMARK   11  A    between atoms: C19_34  and  O3_35
ROOT
HETATM    1  N2  UNL     1      -7.388  48.516 -11.897  1.00  0.00    -0.322 N
HETATM    2  C13 UNL     1      -8.135  47.515 -12.383  1.00  0.00     0.185 A
HETATM    3  N3  UNL     1      -7.635  46.321 -12.028  1.00  0.00    -0.345 N
ATOM      4  H3  UNL     1      -8.024  45.411 -12.274  1.00  0.00     0.167 HD
HETATM    5  C14 UNL     1      -6.539  46.536 -11.295  1.00  0.00     0.147 A
HETATM    6  C15 UNL     1      -5.617  45.729 -10.662  1.00  0.00     0.290 A
HETATM    7  O1  UNL     1      -5.749  44.460 -10.731  1.00  0.00    -0.265 OA
HETATM    8  N4  UNL     1      -4.564  46.214  -9.963  1.00  0.00    -0.154 N
ATOM      9  H4  UNL     1      -3.901  45.587  -9.508  1.00  0.00     0.187 HD
HETATM   10  C16 UNL     1      -4.421  47.544  -9.887  1.00  0.00     0.683 A
HETATM   11  N6  UNL     1      -5.336  48.354 -10.516  1.00  0.00    -0.174 N
ATOM     12  H6  UNL     1      -5.208  49.362 -10.447  1.00  0.00     0.186 HD
HETATM   13  C20 UNL     1      -6.380  47.904 -11.209  1.00  0.00     0.157 A
ENDROOT
BRANCH   1  14
HETATM   14  C12 UNL     1      -7.527  49.932 -12.010  1.00  0.00     0.099 C
HETATM   15  C2  UNL     1      -6.659  50.595 -13.025  1.00  0.00     0.048 C
HETATM   16  C3  UNL     1      -7.394  51.895 -13.263  1.00  0.00     0.055 C
HETATM   17  C10 UNL     1      -8.844  51.653 -13.091  1.00  0.00     0.017 C
HETATM   18  C11 UNL     1      -8.938  50.375 -12.311  1.00  0.00     0.027 C
BRANCH  15  19
HETATM   19  C1  UNL     1      -6.472  49.803 -14.291  1.00  0.00     0.237 C
BRANCH  19  20
HETATM   20  N1  UNL     1      -5.152  49.270 -14.452  1.00  0.00    -0.079 N
ATOM     21  H13 UNL     1      -4.969  49.055 -15.432  1.00  0.00     0.274 HD
ATOM     22  H12 UNL     1      -4.451  49.996 -14.301  1.00  0.00     0.274 HD
ATOM     23  H11 UNL     1      -4.960  48.458 -13.865  1.00  0.00     0.274 HD
ENDBRANCH  19  20
ENDBRANCH  15  19
BRANCH  16  24
HETATM   24  S1  UNL     1      -7.039  52.606 -14.862  1.00  0.00    -0.159 SA
BRANCH  24  25
HETATM   25  C4  UNL     1      -5.676  53.775 -14.743  1.00  0.00     0.047 C
HETATM   26  C5  UNL     1      -4.761  53.803 -15.918  1.00  0.00     0.015 C
HETATM   27  C6  UNL     1      -3.448  54.445 -15.436  1.00  0.00     0.001 C
HETATM   28  C7  UNL     1      -2.648  53.526 -14.570  1.00  0.00     0.000 C
HETATM   29  C8  UNL     1      -3.659  52.606 -13.872  1.00  0.00     0.001 C
HETATM   30  C9  UNL     1      -4.825  53.521 -13.506  1.00  0.00     0.015 C
ENDBRANCH  24  25
ENDBRANCH  16  24
ENDBRANCH   1  14
BRANCH  10  31
HETATM   31  N5  UNL     1      -3.519  48.127  -9.290  1.00  0.00    -0.217 N
ATOM     32  H5  UNL     1      -2.942  48.600  -9.985  1.00  0.00     0.178 HD
BRANCH  31  33
HETATM   33  C17 UNL     1      -2.983  48.391  -8.048  1.00  0.00     0.146 C
BRANCH  33  34
HETATM   34  C18 UNL     1      -2.788  47.278  -7.079  1.00  0.00     0.192 C
BRANCH  34  35
HETATM   35  O2  UNL     1      -1.614  47.505  -6.360  1.00  0.00    -0.399 OA
ATOM     36  H2  UNL     1      -1.739  47.210  -5.465  1.00  0.00     0.209 HD
ENDBRANCH  34  35
ENDBRANCH  33  34
BRANCH  33  37
HETATM   37  C19 UNL     1      -3.855  49.462  -7.376  1.00  0.00     0.192 C
BRANCH  37  38
HETATM   38  O3  UNL     1      -3.093  50.538  -6.957  1.00  0.00    -0.399 OA
ATOM     39  H3  UNL     1      -3.621  51.323  -6.875  1.00  0.00     0.209 HD
ENDBRANCH  37  38
ENDBRANCH  33  37
ENDBRANCH  31  33
ENDBRANCH  10  31
TORSDOF 11
ENDMDL