MODEL 1
REMARK VINA RESULT: -6.712665749      0.000      0.000
REMARK  9 active torsions:
REMARK  status: ('A' for Active; 'I' for Inactive)
REMARK    1  A    between atoms: C4_6  and  N2_7
REMARK    2  A    between atoms: C7_13  and  N4_14
REMARK    3  A    between atoms: N5_17  and  C10_18
REMARK    4  A    between atoms: C10_18  and  C11_19
REMARK    5  A    between atoms: C11_19  and  N6_20
REMARK    6  A    between atoms: N6_20  and  C12_22
REMARK    7  A    between atoms: C12_22  and  O1_23
REMARK    8  A    between atoms: C12_22  and  C13_25
REMARK    9  A    between atoms: C14_28  and  C15_29
ROOT
HETATM    1  C1  UNL     1      -2.246  46.886 -12.202  1.00  0.00     0.052 C
HETATM    2  C2  UNL     1      -2.104  47.188 -10.774  1.00  0.00    -0.018 A
HETATM    3  C3  UNL     1      -1.071  46.610 -10.085  1.00  0.00     0.099 A
HETATM    4  N1  UNL     1      -0.910  46.870  -8.779  1.00  0.00    -0.351 N
ATOM      5  H1  UNL     1      -0.142  46.443  -8.261  1.00  0.00     0.166 HD
HETATM    6  C4  UNL     1      -1.772  47.701  -8.156  1.00  0.00     0.122 A
HETATM    7  C5  UNL     1      -2.819  48.298  -8.813  1.00  0.00     0.115 A
HETATM    8  C6  UNL     1      -3.706  49.171  -8.118  1.00  0.00     0.105 C
HETATM    9  N3  UNL     1      -4.437  49.893  -7.565  1.00  0.00    -0.191 NA
HETATM   10  C7  UNL     1      -3.001  48.045 -10.158  1.00  0.00     0.062 A
ENDROOT
BRANCH   6  11
HETATM   11  N2  UNL     1      -1.635  47.962  -6.901  1.00  0.00    -0.384 N
ATOM     12  H22 UNL     1      -1.467  47.174  -6.275  1.00  0.00     0.157 HD
ATOM     13  H21 UNL     1      -1.694  48.923  -6.565  1.00  0.00     0.157 HD
ENDBRANCH   6  11
BRANCH  10  14
HETATM   14  N4  UNL     1      -4.089  48.661 -10.816  1.00  0.00    -0.376 N
HETATM   15  C8  UNL     1      -5.380  48.041 -10.697  1.00  0.00     0.153 C
HETATM   16  C9  UNL     1      -6.455  48.601 -11.541  1.00  0.00     0.292 C
HETATM   17  N5  UNL     1      -6.106  49.419 -12.641  1.00  0.00     0.096 N
HETATM   18  C21 UNL     1      -4.725  49.646 -12.888  1.00  0.00     0.292 C
HETATM   19  C22 UNL     1      -3.997  49.866 -11.593  1.00  0.00     0.153 C
BRANCH  17  20
HETATM   20  C10 UNL     1      -6.897  50.643 -12.704  1.00  0.00     0.316 C
BRANCH  20  21
HETATM   21  C11 UNL     1      -6.602  51.385 -14.009  1.00  0.00     0.088 C
BRANCH  21  22
HETATM   22  N6  UNL     1      -6.950  52.748 -13.933  1.00  0.00    -0.369 N
ATOM     23  H6  UNL     1      -7.750  53.113 -14.450  1.00  0.00     0.161 HD
BRANCH  22  24
HETATM   24  C12 UNL     1      -6.158  53.603 -13.118  1.00  0.00     0.286 C
BRANCH  24  25
HETATM   25  O1  UNL     1      -7.024  54.474 -12.374  1.00  0.00    -0.370 OA
ATOM     26  H1  UNL     1      -7.879  54.487 -12.788  1.00  0.00     0.212 HD
ENDBRANCH  24  25
BRANCH  24  27
HETATM   27  C13 UNL     1      -5.248  54.515 -13.864  1.00  0.00     0.131 A
HETATM   28  N7  UNL     1      -3.868  54.437 -13.794  1.00  0.00    -0.342 N
HETATM   29  C14 UNL     1      -3.308  55.362 -14.580  1.00  0.00     0.066 A
ATOM     30  H7  UNL     1      -3.351  53.768 -13.224  1.00  0.00     0.167 HD
HETATM   31  C20 UNL     1      -4.315  56.057 -15.169  1.00  0.00     0.118 A
HETATM   32  N9  UNL     1      -5.483  55.508 -14.707  1.00  0.00    -0.350 N
ATOM     33  H9  UNL     1      -6.414  55.825 -14.978  1.00  0.00     0.166 HD
BRANCH  29  34
HETATM   34  C15 UNL     1      -1.823  55.543 -14.752  1.00  0.00     0.149 C
HETATM   35  F1  UNL     1      -1.658  56.350 -15.868  1.00  0.00    -0.236 F
HETATM   36  C16 UNL     1      -1.292  56.328 -13.574  1.00  0.00     0.069 C
HETATM   37  C17 UNL     1       0.090  55.907 -13.206  1.00  0.00     0.117 C
HETATM   38  N8  UNL     1       0.076  54.514 -12.849  1.00  0.00    -0.421 N
HETATM   39  C18 UNL     1      -0.421  53.641 -13.856  1.00  0.00     0.117 C
ATOM     40  H8  UNL     1       0.398  54.178 -11.941  1.00  0.00     0.153 HD
HETATM   41  C19 UNL     1      -1.102  54.269 -15.015  1.00  0.00     0.069 C
ENDBRANCH  29  34
ENDBRANCH  24  27
ENDBRANCH  22  24
ENDBRANCH  21  22
ENDBRANCH  20  21
ENDBRANCH  17  20
ENDBRANCH  10  14
TORSDOF 9
ENDMDL