MODEL 2
REMARK VINA RESULT: -6.669380157      1.590      3.034
REMARK  8 active torsions:
REMARK  status: ('A' for Active; 'I' for Inactive)
REMARK    1  A    between atoms: C3_3  and  C4_4
REMARK    2  A    between atoms: N3_10  and  N4_11
REMARK    3  A    between atoms: N4_11  and  C7_13
REMARK    4  A    between atoms: C10_17  and  C11_18
REMARK    5  A    between atoms: C11_18  and  C12_19
REMARK    6  A    between atoms: C14_23  and  N6_24
REMARK    7  A    between atoms: C15_29  and  N8_30
REMARK    8  A    between atoms: C17_34  and  O1_35
ROOT
HETATM    1  C1  UNL     1     -11.099  49.444 -12.644  1.00  0.00     0.012 C
HETATM    2  C2  UNL     1     -10.063  49.985 -12.348  1.00  0.00    -0.113 C
HETATM    3  C3  UNL     1      -8.783  50.659 -11.983  1.00  0.00     0.137 C
ENDROOT
BRANCH   3   4
HETATM    4  C4  UNL     1      -8.205  51.227 -13.176  1.00  0.00     0.018 A
HETATM    5  C5  UNL     1      -8.441  52.491 -13.669  1.00  0.00     0.119 A
HETATM    6  N1  UNL     1      -7.739  52.674 -14.790  1.00  0.00    -0.306 N
HETATM    7  N2  UNL     1      -7.039  51.554 -15.051  1.00  0.00    -0.256 N
ATOM      8  H1  UNL     1      -7.734  53.523 -15.356  1.00  0.00     0.186 HD
HETATM    9  C6  UNL     1      -7.310  50.660 -14.076  1.00  0.00     0.172 A
HETATM   10  C21 UNL     1      -6.151  51.316 -16.168  1.00  0.00     0.290 A
HETATM   11  N3  UNL     1      -6.666  49.374 -14.105  1.00  0.00    -0.068 N
HETATM   12  C19 UNL     1      -5.755  49.058 -15.151  1.00  0.00     0.698 A
HETATM   13  N9  UNL     1      -5.158  47.891 -15.178  1.00  0.00    -0.229 N
HETATM   14  N10 UNL     1      -5.511  50.033 -16.141  1.00  0.00    -0.207 N
HETATM   15  C20 UNL     1      -4.229  47.590 -16.257  1.00  0.00     0.165 C
ATOM     16  H9  UNL     1      -5.343  47.200 -14.451  1.00  0.00     0.177 HD
ATOM     17  H10 UNL     1      -4.842  49.813 -16.879  1.00  0.00     0.179 HD
BRANCH  11  18
HETATM   18  N4  UNL     1      -6.971  48.516 -13.076  1.00  0.00    -0.272 N
ATOM     19  H4  UNL     1      -7.952  48.245 -13.011  1.00  0.00     0.188 HD
BRANCH  18  20
HETATM   20  C7  UNL     1      -6.130  47.958 -12.103  1.00  0.00     0.121 A
HETATM   21  C8  UNL     1      -5.581  48.767 -11.120  1.00  0.00     0.147 A
HETATM   22  F1  UNL     1      -5.827  50.074 -11.106  1.00  0.00    -0.204 F
HETATM   23  C9  UNL     1      -4.750  48.258 -10.110  1.00  0.00     0.052 A
HETATM   24  C10 UNL     1      -4.447  46.941 -10.056  1.00  0.00    -0.048 A
HETATM   25  C16 UNL     1      -5.009  46.123 -11.062  1.00  0.00     0.046 A
HETATM   26  C17 UNL     1      -5.826  46.625 -12.053  1.00  0.00     0.099 A
BRANCH  24  27
HETATM   27  C11 UNL     1      -3.616  46.304  -9.015  1.00  0.00     0.082 C
BRANCH  27  28
HETATM   28  C12 UNL     1      -2.245  46.778  -8.881  1.00  0.00     0.006 A
HETATM   29  C13 UNL     1      -1.401  46.664  -9.985  1.00  0.00     0.117 A
HETATM   30  N5  UNL     1      -0.141  47.128  -9.976  1.00  0.00    -0.202 N
HETATM   31  C14 UNL     1       0.321  47.729  -8.848  1.00  0.00     0.677 A
ATOM     32  H5  UNL     1       0.455  47.032 -10.797  1.00  0.00     0.183 HD
HETATM   33  N7  UNL     1      -0.428  47.871  -7.759  1.00  0.00    -0.177 N
HETATM   34  C15 UNL     1      -1.702  47.396  -7.783  1.00  0.00     0.122 A
ATOM     35  H7  UNL     1      -0.056  48.326  -6.925  1.00  0.00     0.185 HD
BRANCH  31  36
HETATM   36  N6  UNL     1       1.532  48.163  -8.874  1.00  0.00    -0.234 N
ATOM     37  H62 UNL     1       2.301  47.548  -9.142  1.00  0.00     0.174 HD
ATOM     38  H61 UNL     1       1.678  49.139  -8.617  1.00  0.00     0.174 HD
ENDBRANCH  31  36
BRANCH  34  39
HETATM   39  N8  UNL     1      -2.355  47.511  -6.680  1.00  0.00    -0.385 N
ATOM     40  H82 UNL     1      -3.121  46.849  -6.554  1.00  0.00     0.157 HD
ATOM     41  H81 UNL     1      -2.142  48.247  -6.006  1.00  0.00     0.157 HD
ENDBRANCH  34  39
ENDBRANCH  27  28
ENDBRANCH  24  27
BRANCH  26  42
HETATM   42  O1  UNL     1      -6.377  45.808 -13.039  1.00  0.00    -0.353 OA
HETATM   43  C18 UNL     1      -5.728  44.662 -13.539  1.00  0.00     0.210 C
ENDBRANCH  26  42
ENDBRANCH  18  20
ENDBRANCH  11  18
ENDBRANCH   3   4
TORSDOF 8
ENDMDL