MODEL 2
REMARK VINA RESULT: -6.593581116      3.810      6.483
REMARK  8 active torsions:
REMARK  status: ('A' for Active; 'I' for Inactive)
REMARK    1  A    between atoms: N1_1  and  C1_4
REMARK    2  A    between atoms: C4_12  and  S1_13
REMARK    3  A    between atoms: S1_13  and  C5_14
REMARK    4  A    between atoms: C5_14  and  C6_15
REMARK    5  A    between atoms: C7_18  and  N5_19
REMARK    6  A    between atoms: N5_19  and  C8_21
REMARK    7  A    between atoms: C13_29  and  C14_30
REMARK    8  A    between atoms: C14_30  and  C15_32
ROOT
HETATM    1  C6  UNL     1      -5.355  43.362 -11.602  1.00  0.00     0.049 A
HETATM    2  N4  UNL     1      -5.985  44.535 -11.503  1.00  0.00    -0.194 N
ATOM      3  H4  UNL     1      -5.436  45.390 -11.409  1.00  0.00     0.184 HD
HETATM    4  C7  UNL     1      -7.332  44.617 -11.524  1.00  0.00     0.678 A
HETATM    5  N6  UNL     1      -8.037  43.494 -11.647  1.00  0.00    -0.201 N
ATOM      6  H6  UNL     1      -9.054  43.563 -11.662  1.00  0.00     0.183 HD
HETATM    7  C12 UNL     1      -7.476  42.252 -11.755  1.00  0.00     0.121 A
HETATM    8  C13 UNL     1      -6.098  42.221 -11.728  1.00  0.00     0.022 A
ENDROOT
BRANCH   1   9
HETATM    9  C5  UNL     1      -3.864  43.301 -11.577  1.00  0.00     0.141 C
BRANCH   9  10
HETATM   10  S1  UNL     1      -3.192  44.886 -12.069  1.00  0.00    -0.088 SA
BRANCH  10  11
HETATM   11  C4  UNL     1      -3.074  45.961 -10.637  1.00  0.00     0.146 A
HETATM   12  N3  UNL     1      -2.172  45.873  -9.642  1.00  0.00    -0.329 N
HETATM   13  C3  UNL     1      -2.373  46.841  -8.727  1.00  0.00     0.148 A
ATOM     14  H3  UNL     1      -1.436  45.168  -9.588  1.00  0.00     0.168 HD
HETATM   15  C2  UNL     1      -1.780  47.220  -7.548  1.00  0.00     0.290 A
HETATM   16  C16 UNL     1      -3.453  47.570  -9.173  1.00  0.00     0.155 A
HETATM   17  N2  UNL     1      -2.192  48.263  -6.803  1.00  0.00    -0.154 N
HETATM   18  O1  UNL     1      -0.791  46.554  -7.140  1.00  0.00    -0.265 OA
HETATM   19  C1  UNL     1      -3.260  48.955  -7.277  1.00  0.00     0.680 A
ATOM     20  H2  UNL     1      -1.729  48.519  -5.931  1.00  0.00     0.187 HD
HETATM   21  N8  UNL     1      -3.862  48.607  -8.429  1.00  0.00    -0.174 N
ATOM     22  H8  UNL     1      -4.661  49.154  -8.749  1.00  0.00     0.186 HD
HETATM   23  N7  UNL     1      -3.855  47.009 -10.334  1.00  0.00    -0.320 N
ATOM     24  H7  UNL     1      -4.638  47.335 -10.900  1.00  0.00     0.169 HD
BRANCH  19  25
HETATM   25  N1  UNL     1      -3.660  49.957  -6.565  1.00  0.00    -0.234 N
ATOM     26  H12 UNL     1      -4.610  50.021  -6.200  1.00  0.00     0.174 HD
ATOM     27  H11 UNL     1      -2.974  50.690  -6.383  1.00  0.00     0.174 HD
ENDBRANCH  19  25
ENDBRANCH  10  11
ENDBRANCH   9  10
ENDBRANCH   1   9
BRANCH   8  28
HETATM   28  C14 UNL     1      -5.426  40.930 -11.839  1.00  0.00     0.036 C
HETATM   29  S2  UNL     1      -5.047  40.395 -13.330  1.00  0.00    -0.083 SA
BRANCH  28  30
HETATM   30  C15 UNL     1      -5.118  40.162 -10.605  1.00  0.00     0.166 C
HETATM   31 CL1  UNL     1      -3.443  39.570 -10.663  1.00  0.00    -0.125 Cl
ENDBRANCH  28  30
ENDBRANCH   8  28
BRANCH   4  32
HETATM   32  N5  UNL     1      -7.851  45.765 -11.424  1.00  0.00    -0.219 N
ATOM     33  H5  UNL     1      -8.367  45.907 -10.556  1.00  0.00     0.178 HD
BRANCH  32  34
HETATM   34  C8  UNL     1      -7.858  46.889 -12.278  1.00  0.00     0.125 C
HETATM   35  C9  UNL     1      -9.220  47.473 -12.527  1.00  0.00     0.054 C
HETATM   36  C10 UNL     1      -8.973  48.956 -12.579  1.00  0.00     0.169 C
HETATM   37  O2  UNL     1      -7.785  49.203 -11.947  1.00  0.00    -0.389 OA
HETATM   38  C11 UNL     1      -7.042  48.063 -11.843  1.00  0.00     0.193 C
ENDBRANCH  32  34
ENDBRANCH   4  32
TORSDOF 8
ENDMDL