MODEL 4
REMARK VINA RESULT: -5.413623360      3.883      7.439
REMARK  10 active torsions:
REMARK  status: ('A' for Active; 'I' for Inactive)
REMARK    1  A    between atoms: C2_2  and  C3_3
REMARK    2  A    between atoms: C3_3  and  N1_4
REMARK    3  A    between atoms: N1_4  and  C4_6
REMARK    4  A    between atoms: C5_9  and  N3_10
REMARK    5  A    between atoms: C8_16  and  N5_17
REMARK    6  A    between atoms: N5_17  and  C9_19
REMARK    7  A    between atoms: C9_19  and  C10_20
REMARK    8  A    between atoms: C10_20  and  C11_21
REMARK    9  A    between atoms: C11_21  and  C12_22
REMARK   10  A    between atoms: C18_37  and  N11_38
ROOT
HETATM    1  C4  UNL     1      -2.720  53.576 -14.567  1.00  0.00     0.680 A
HETATM    2  N2  UNL     1      -3.655  54.196 -13.840  1.00  0.00    -0.175 N
ATOM      3  H2  UNL     1      -3.541  55.180 -13.597  1.00  0.00     0.186 HD
HETATM    4  C5  UNL     1      -4.759  53.518 -13.422  1.00  0.00     0.146 A
HETATM    5  C7  UNL     1      -4.846  52.191 -13.786  1.00  0.00     0.124 A
HETATM    6  N4  UNL     1      -5.904  51.448 -13.414  1.00  0.00    -0.186 N
ATOM      7  H4  UNL     1      -6.635  51.892 -12.859  1.00  0.00     0.184 HD
HETATM    8  C8  UNL     1      -6.049  50.154 -13.735  1.00  0.00     0.680 A
HETATM    9  N10 UNL     1      -5.089  49.567 -14.466  1.00  0.00    -0.175 N
ATOM     10  H10 UNL     1      -5.197  48.583 -14.711  1.00  0.00     0.186 HD
HETATM   11  C18 UNL     1      -3.978  50.225 -14.894  1.00  0.00     0.144 A
HETATM   12  C19 UNL     1      -3.862  51.551 -14.547  1.00  0.00     0.124 A
HETATM   13  N12 UNL     1      -2.816  52.265 -14.921  1.00  0.00    -0.186 N
ATOM     14  H12 UNL     1      -2.077  51.832 -15.476  1.00  0.00     0.184 HD
ENDROOT
BRANCH   8  15
HETATM   15  N5  UNL     1      -7.080  49.472 -13.360  1.00  0.00    -0.226 N
ATOM     16  H5  UNL     1      -7.756  49.132 -14.044  1.00  0.00     0.177 HD
BRANCH  15  17
HETATM   17  C9  UNL     1      -7.254  49.204 -11.963  1.00  0.00     0.138 C
BRANCH  17  18
HETATM   18  C10 UNL     1      -6.585  47.886 -11.559  1.00  0.00     0.026 C
BRANCH  18  19
HETATM   19  C11 UNL     1      -5.575  48.159 -10.434  1.00  0.00     0.060 C
BRANCH  19  20
HETATM   20  C12 UNL     1      -4.610  47.029 -10.448  1.00  0.00     0.037 A
HETATM   21  C13 UNL     1      -4.760  45.933 -11.295  1.00  0.00     0.044 A
HETATM   22  C14 UNL     1      -3.836  44.921 -11.259  1.00  0.00     0.108 A
HETATM   23  N6  UNL     1      -2.810  45.016 -10.406  1.00  0.00    -0.201 N
HETATM   24  C15 UNL     1      -2.650  46.067  -9.581  1.00  0.00     0.691 A
ATOM     25  H6  UNL     1      -2.122  44.263 -10.379  1.00  0.00     0.183 HD
HETATM   26  N7  UNL     1      -1.712  46.382  -8.651  1.00  0.00    -0.175 N
HETATM   27  N9  UNL     1      -3.541  47.081  -9.591  1.00  0.00    -0.137 N
HETATM   28  C16 UNL     1      -1.997  47.568  -8.081  1.00  0.00     0.171 A
ATOM     29  H7  UNL     1      -0.906  45.802  -8.418  1.00  0.00     0.185 HD
HETATM   30  N8  UNL     1      -1.252  48.236  -7.066  1.00  0.00    -0.079 NA
HETATM   31  C17 UNL     1      -3.165  48.000  -8.691  1.00  0.00     0.168 A
HETATM   32 CL1  UNL     1      -4.003  49.496  -8.346  1.00  0.00    -0.060 Cl
ENDBRANCH  19  20
ENDBRANCH  18  19
ENDBRANCH  17  18
ENDBRANCH  15  17
ENDBRANCH   8  15
BRANCH  11  33
HETATM   33  N11 UNL     1      -3.116  49.607 -15.579  1.00  0.00    -0.383 N
ATOM     34 2H11 UNL     1      -3.061  48.590 -15.628  1.00  0.00     0.157 HD
ATOM     35 1H11 UNL     1      -2.430  50.136 -16.116  1.00  0.00     0.157 HD
ENDBRANCH  11  33
BRANCH   4  36
HETATM   36  N3  UNL     1      -5.689  54.040 -12.729  1.00  0.00    -0.378 N
HETATM   37  C6  UNL     1      -6.401  55.234 -13.111  1.00  0.00     0.147 C
ATOM     38  H3  UNL     1      -5.946  53.589 -11.851  1.00  0.00     0.160 HD
ENDBRANCH   4  36
BRANCH   1  39
HETATM   39  N1  UNL     1      -1.686  54.227 -14.954  1.00  0.00    -0.226 N
ATOM     40  H1  UNL     1      -1.505  54.323 -15.953  1.00  0.00     0.177 HD
BRANCH  39  41
HETATM   41  C3  UNL     1      -0.775  54.823 -14.022  1.00  0.00     0.137 C
BRANCH  41  42
HETATM   42  C2  UNL     1       0.196  53.813 -13.441  1.00  0.00     0.016 C
HETATM   43  C1  UNL     1       1.256  53.438 -14.442  1.00  0.00     0.006 C
ENDBRANCH  41  42
ENDBRANCH  39  41
ENDBRANCH   1  39
TORSDOF 10
ENDMDL