MODEL 4
REMARK VINA RESULT: -5.877102344      2.890      6.228
REMARK  8 active torsions:
REMARK  status: ('A' for Active; 'I' for Inactive)
REMARK    1  A    between atoms: N1_2  and  C2_4
REMARK    2  A    between atoms: C7_12  and  C8_13
REMARK    3  A    between atoms: C9_16  and  N4_17
REMARK    4  A    between atoms: N4_17  and  C10_19
REMARK    5  A    between atoms: C10_19  and  C11_20
REMARK    6  A    between atoms: C11_20  and  N5_21
REMARK    7  A    between atoms: C14_24  and  O1_25
REMARK    8  A    between atoms: C18_29  and  N6_30
ROOT
HETATM    1  C8  UNL     1      -5.285  47.967 -11.159  1.00  0.00     0.123 A
HETATM    2  N3  UNL     1      -4.395  47.339 -11.992  1.00  0.00    -0.327 N
ATOM      3  H3  UNL     1      -4.668  47.183 -12.962  1.00  0.00     0.169 HD
HETATM    4  C9  UNL     1      -3.194  46.923 -11.602  1.00  0.00     0.120 A
HETATM    5  C17 UNL     1      -2.762  47.102 -10.304  1.00  0.00     0.096 A
HETATM    6  C18 UNL     1      -1.525  46.680  -9.874  1.00  0.00     0.132 A
HETATM    7  N7  UNL     1      -1.203  46.909  -8.571  1.00  0.00    -0.176 N
ATOM      8  H7  UNL     1      -0.291  46.605  -8.229  1.00  0.00     0.186 HD
HETATM    9  C19 UNL     1      -2.042  47.521  -7.718  1.00  0.00     0.679 A
HETATM   10  N8  UNL     1      -1.669  47.703  -6.497  1.00  0.00    -0.234 N
ATOM     11  H81 UNL     1      -2.305  48.168  -5.850  1.00  0.00     0.174 HD
ATOM     12  H82 UNL     1      -0.758  47.400  -6.153  1.00  0.00     0.174 HD
HETATM   13  N9  UNL     1      -3.248  47.922  -8.173  1.00  0.00    -0.176 N
ATOM     14  H9  UNL     1      -3.888  48.386  -7.529  1.00  0.00     0.186 HD
HETATM   15  C20 UNL     1      -3.635  47.729  -9.449  1.00  0.00     0.140 A
HETATM   16  N10 UNL     1      -4.839  48.128  -9.910  1.00  0.00    -0.326 N
ATOM     17  H10 UNL     1      -5.462  48.593  -9.249  1.00  0.00     0.169 HD
ENDROOT
BRANCH   1  18
HETATM   18  C7  UNL     1      -6.630  48.272 -11.638  1.00  0.00     0.058 A
HETATM   19  C2  UNL     1      -6.910  49.522 -12.138  1.00  0.00     0.116 A
HETATM   20  N2  UNL     1      -8.127  49.821 -12.725  1.00  0.00    -0.332 N
HETATM   21  C3  UNL     1      -9.113  48.939 -12.851  1.00  0.00     0.105 A
ATOM     22  H2  UNL     1      -8.274  50.767 -13.080  1.00  0.00     0.168 HD
HETATM   23 CL1  UNL     1     -10.650  49.360 -13.607  1.00  0.00    -0.064 Cl
HETATM   24  C4  UNL     1      -8.870  47.683 -12.362  1.00  0.00     0.050 A
HETATM   25  C5  UNL     1      -7.643  47.342 -11.759  1.00  0.00    -0.041 A
HETATM   26  C6  UNL     1      -7.466  45.937 -11.311  1.00  0.00     0.049 C
BRANCH  19  27
HETATM   27  N1  UNL     1      -5.990  50.589 -11.980  1.00  0.00    -0.380 N
HETATM   28  C1  UNL     1      -5.327  51.187 -13.145  1.00  0.00     0.147 C
ATOM     29  H1  UNL     1      -5.786  50.945 -11.046  1.00  0.00     0.160 HD
ENDBRANCH  19  27
ENDBRANCH   1  18
BRANCH   4  30
HETATM   30  N4  UNL     1      -2.353  46.331 -12.390  1.00  0.00    -0.374 N
ATOM     31  H4  UNL     1      -1.373  46.615 -12.372  1.00  0.00     0.161 HD
BRANCH  30  32
HETATM   32  C10 UNL     1      -2.761  45.277 -13.295  1.00  0.00     0.151 C
BRANCH  32  33
HETATM   33  C11 UNL     1      -2.527  43.908 -12.699  1.00  0.00     0.292 C
BRANCH  33  34
HETATM   34  N5  UNL     1      -3.767  43.178 -12.527  1.00  0.00     0.092 N
HETATM   35  C12 UNL     1      -4.495  43.579 -11.366  1.00  0.00     0.275 C
HETATM   36  C13 UNL     1      -5.457  42.415 -11.129  1.00  0.00     0.064 C
HETATM   37  C14 UNL     1      -4.645  41.211 -11.554  1.00  0.00     0.150 C
HETATM   38  C16 UNL     1      -3.573  41.761 -12.469  1.00  0.00     0.304 C
BRANCH  37  39
HETATM   39  O1  UNL     1      -4.091  40.546 -10.469  1.00  0.00    -0.389 OA
HETATM   40  C15 UNL     1      -2.962  39.816 -10.800  1.00  0.00     0.202 C
ENDBRANCH  37  39
ENDBRANCH  33  34
ENDBRANCH  32  33
ENDBRANCH  30  32
ENDBRANCH   4  30
BRANCH   6  41
HETATM   41  N6  UNL     1      -0.742  46.103 -10.694  1.00  0.00    -0.384 N
ATOM     42  H62 UNL     1       0.084  46.553 -11.088  1.00  0.00     0.157 HD
ATOM     43  H61 UNL     1      -0.935  45.144 -10.980  1.00  0.00     0.157 HD
ENDBRANCH   6  41
TORSDOF 8
ENDMDL