MODEL 3
REMARK VINA RESULT: -5.532664369      3.422      7.116
REMARK  9 active torsions:
REMARK  status: ('A' for Active; 'I' for Inactive)
REMARK    1  A    between atoms: N2_5  and  C3_6
REMARK    2  A    between atoms: C3_6  and  C4_7
REMARK    3  A    between atoms: C4_7  and  O1_8
REMARK    4  A    between atoms: C6_11  and  C7_12
REMARK    5  A    between atoms: C11_17  and  C12_18
REMARK    6  A    between atoms: C12_18  and  C13_19
REMARK    7  A    between atoms: C16_24  and  N4_25
REMARK    8  A    between atoms: C17_30  and  N6_31
REMARK    9  A    between atoms: C18_34  and  N7_35
ROOT
HETATM    1  C7  UNL     1      -2.663  44.937 -12.811  1.00  0.00     0.005 A
HETATM    2  C8  UNL     1      -3.019  44.913 -14.190  1.00  0.00     0.018 A
HETATM    3  C9  UNL     1      -3.551  46.018 -14.753  1.00  0.00     0.044 A
HETATM    4  C10 UNL     1      -3.750  47.168 -13.997  1.00  0.00     0.125 A
HETATM    5  F1  UNL     1      -4.254  48.238 -14.687  1.00  0.00    -0.205 F
HETATM    6  C11 UNL     1      -3.410  47.184 -12.683  1.00  0.00     0.013 A
HETATM    7  C18 UNL     1      -2.840  46.032 -12.048  1.00  0.00     0.058 A
ENDROOT
BRANCH   6   8
HETATM    8  C12 UNL     1      -3.662  48.325 -11.808  1.00  0.00     0.088 C
BRANCH   8   9
HETATM    9  C13 UNL     1      -4.949  49.010 -11.925  1.00  0.00     0.013 A
HETATM   10  C14 UNL     1      -6.165  48.486 -11.530  1.00  0.00     0.033 A
HETATM   11  C15 UNL     1      -6.276  47.139 -10.896  1.00  0.00     0.069 C
HETATM   12  N3  UNL     1      -7.285  49.233 -11.699  1.00  0.00    -0.196 N
HETATM   13  C16 UNL     1      -7.255  50.464 -12.233  1.00  0.00     0.677 A
ATOM     14  H3  UNL     1      -8.182  48.845 -11.410  1.00  0.00     0.184 HD
HETATM   15  N5  UNL     1      -6.086  51.007 -12.626  1.00  0.00    -0.177 N
HETATM   16  C17 UNL     1      -4.957  50.293 -12.474  1.00  0.00     0.123 A
ATOM     17  H5  UNL     1      -6.059  51.942 -13.032  1.00  0.00     0.185 HD
BRANCH  13  18
HETATM   18  N4  UNL     1      -8.302  51.201 -12.416  1.00  0.00    -0.234 N
ATOM     19  H42 UNL     1      -9.071  50.756 -12.916  1.00  0.00     0.174 HD
ATOM     20  H41 UNL     1      -8.388  52.163 -12.090  1.00  0.00     0.174 HD
ENDBRANCH  13  18
BRANCH  16  21
HETATM   21  N6  UNL     1      -3.825  50.839 -12.849  1.00  0.00    -0.385 N
ATOM     22  H62 UNL     1      -3.847  51.515 -13.611  1.00  0.00     0.157 HD
ATOM     23  H61 UNL     1      -2.963  50.582 -12.368  1.00  0.00     0.157 HD
ENDBRANCH  16  21
ENDBRANCH   8   9
ENDBRANCH   6   8
BRANCH   7  24
HETATM   24  N7  UNL     1      -2.424  46.108 -10.702  1.00  0.00    -0.314 N
HETATM   25  C19 UNL     1      -1.101  46.676 -10.367  1.00  0.00     0.160 C
HETATM   26  C20 UNL     1      -1.221  47.504  -9.096  1.00  0.00     0.253 C
HETATM   27  N8  UNL     1      -1.691  46.651  -8.039  1.00  0.00    -0.065 N
HETATM   28  C21 UNL     1      -3.069  46.352  -8.257  1.00  0.00     0.335 C
ATOM     29  H82 UNL     1      -1.123  45.810  -7.938  1.00  0.00     0.277 HD
ATOM     30  H81 UNL     1      -1.522  47.050  -7.115  1.00  0.00     0.277 HD
HETATM   31  C22 UNL     1      -3.199  45.718  -9.606  1.00  0.00     0.250 C
HETATM   32  O2  UNL     1      -4.044  44.813  -9.708  1.00  0.00    -0.271 OA
ENDBRANCH   7  24
BRANCH   1  33
HETATM   33  C6  UNL     1      -2.054  43.706 -12.337  1.00  0.00     0.017 A
HETATM   34  C2  UNL     1      -0.726  43.465 -12.130  1.00  0.00     0.034 A
HETATM   35  C1  UNL     1       0.469  44.338 -12.440  1.00  0.00     0.070 C
HETATM   36  N1  UNL     1      -0.613  42.231 -11.578  1.00  0.00    -0.302 N
HETATM   37  N2  UNL     1      -1.793  41.665 -11.420  1.00  0.00    -0.300 N
ATOM     38  H1  UNL     1       0.273  41.796 -11.318  1.00  0.00     0.186 HD
HETATM   39  C5  UNL     1      -2.692  42.554 -11.880  1.00  0.00     0.124 A
BRANCH  37  40
HETATM   40  C3  UNL     1      -2.073  40.352 -10.841  1.00  0.00     0.174 C
BRANCH  40  41
HETATM   41  C4  UNL     1      -1.065  39.328 -11.410  1.00  0.00     0.185 C
BRANCH  41  42
HETATM   42  O1  UNL     1       0.147  39.511 -10.769  1.00  0.00    -0.399 OA
ATOM     43  H1  UNL     1       0.557  40.293 -11.121  1.00  0.00     0.209 HD
ENDBRANCH  41  42
ENDBRANCH  40  41
ENDBRANCH  37  40
ENDBRANCH   1  33
TORSDOF 9
ENDMDL