MODEL 3
REMARK VINA RESULT: -6.076403496      1.359      1.736
REMARK  8 active torsions:
REMARK  status: ('A' for Active; 'I' for Inactive)
REMARK    1  A    between atoms: C4_7  and  C5_8
REMARK    2  A    between atoms: N3_11  and  C8_12
REMARK    3  A    between atoms: C9_15  and  N5_16
REMARK    4  A    between atoms: C10_21  and  N7_22
REMARK    5  A    between atoms: N7_22  and  C11_24
REMARK    6  A    between atoms: C11_24  and  C12_25
REMARK    7  A    between atoms: C12_25  and  C13_26
REMARK    8  A    between atoms: C13_26  and  C14_27
ROOT
HETATM    1  C8  UNL     1      -3.352  46.784 -11.348  1.00  0.00     0.144 A
HETATM    2  N4  UNL     1      -3.273  45.466 -11.629  1.00  0.00    -0.175 N
ATOM      3  H4  UNL     1      -4.077  44.976 -12.020  1.00  0.00     0.186 HD
HETATM    4  C9  UNL     1      -2.125  44.799 -11.391  1.00  0.00     0.679 A
HETATM    5  N6  UNL     1      -1.016  45.364 -10.878  1.00  0.00    -0.175 N
ATOM      6  H6  UNL     1      -0.170  44.817 -10.716  1.00  0.00     0.186 HD
HETATM    7  C10 UNL     1      -1.064  46.675 -10.587  1.00  0.00     0.146 A
HETATM    8  C15 UNL     1      -2.253  47.383 -10.829  1.00  0.00     0.122 A
HETATM    9 CL1  UNL     1      -2.307  49.086 -10.452  1.00  0.00    -0.076 Cl
ENDROOT
BRANCH   1  10
HETATM   10  N3  UNL     1      -4.576  47.453 -11.621  1.00  0.00    -0.365 N
HETATM   11  C7  UNL     1      -5.397  47.818 -10.493  1.00  0.00     0.125 C
HETATM   12  C6  UNL     1      -6.284  48.977 -10.886  1.00  0.00     0.032 C
HETATM   13  C5  UNL     1      -7.060  48.465 -12.116  1.00  0.00     0.056 C
HETATM   14  C17 UNL     1      -6.114  48.515 -13.254  1.00  0.00     0.032 C
HETATM   15  C16 UNL     1      -4.891  47.711 -13.001  1.00  0.00     0.125 C
BRANCH  13  16
HETATM   16  C4  UNL     1      -8.260  49.298 -12.230  1.00  0.00     0.088 A
HETATM   17  N2  UNL     1      -9.453  48.660 -12.348  1.00  0.00    -0.342 N
HETATM   18  C3  UNL     1     -10.628  49.253 -12.465  1.00  0.00     0.084 A
ATOM     19  H2  UNL     1      -9.441  47.639 -12.347  1.00  0.00     0.167 HD
HETATM   20  C2  UNL     1     -11.949  48.892 -12.594  1.00  0.00     0.141 A
HETATM   21  C19 UNL     1     -10.653  50.647 -12.469  1.00  0.00     0.144 A
HETATM   22  N1  UNL     1     -12.745  49.970 -12.672  1.00  0.00    -0.305 N
HETATM   23  C1  UNL     1     -14.198  50.023 -12.814  1.00  0.00     0.177 C
HETATM   24  N11 UNL     1     -11.931  51.021 -12.593  1.00  0.00    -0.292 N
ATOM     25  H11 UNL     1     -12.242  51.992 -12.624  1.00  0.00     0.187 HD
HETATM   26  C18 UNL     1      -9.423  51.302 -12.348  1.00  0.00     0.277 A
HETATM   27  N10 UNL     1      -8.268  50.627 -12.232  1.00  0.00    -0.311 N
HETATM   28  O1  UNL     1      -9.432  52.575 -12.349  1.00  0.00    -0.266 OA
ATOM     29  H10 UNL     1      -7.390  51.138 -12.145  1.00  0.00     0.170 HD
ENDBRANCH  13  16
ENDBRANCH   1  10
BRANCH   4  30
HETATM   30  N5  UNL     1      -2.046  43.527 -11.663  1.00  0.00    -0.234 N
ATOM     31  H52 UNL     1      -2.129  43.273 -12.648  1.00  0.00     0.174 HD
ATOM     32  H51 UNL     1      -1.910  42.855 -10.908  1.00  0.00     0.174 HD
ENDBRANCH   4  30
BRANCH   7  33
HETATM   33  N7  UNL     1      -0.096  47.319 -10.116  1.00  0.00    -0.354 N
ATOM     34  H7  UNL     1       0.406  47.850 -10.826  1.00  0.00     0.166 HD
BRANCH  33  35
HETATM   35  C11 UNL     1       0.452  47.473  -8.837  1.00  0.00     0.063 C
BRANCH  35  36
HETATM   36  C12 UNL     1      -0.508  46.982  -7.768  1.00  0.00     0.051 C
BRANCH  36  37
HETATM   37  C13 UNL     1      -1.307  48.103  -7.192  1.00  0.00     0.077 C
BRANCH  37  38
HETATM   38  C14 UNL     1      -2.734  47.771  -7.132  1.00  0.00     0.086 C
HETATM   39  N8  UNL     1      -3.590  48.668  -6.777  1.00  0.00    -0.391 N
ATOM     40  H82 UNL     1      -3.274  49.616  -6.569  1.00  0.00     0.157 HD
ATOM     41  H81 UNL     1      -4.582  48.438  -6.735  1.00  0.00     0.157 HD
HETATM   42  N9  UNL     1      -3.170  46.462  -7.419  1.00  0.00    -0.088 NA
ENDBRANCH  37  38
ENDBRANCH  36  37
ENDBRANCH  35  36
ENDBRANCH  33  35
ENDBRANCH   7  33
TORSDOF 8
ENDMDL