MODEL 5
REMARK VINA RESULT: -5.656447337      2.345      7.552
REMARK  10 active torsions:
REMARK  status: ('A' for Active; 'I' for Inactive)
REMARK    1  A    between atoms: C2_2  and  C3_3
REMARK    2  A    between atoms: C3_3  and  C4_4
REMARK    3  A    between atoms: C3_3  and  N1_7
REMARK    4  A    between atoms: C4_4  and  O1_5
REMARK    5  A    between atoms: N1_7  and  C5_9
REMARK    6  A    between atoms: C6_12  and  N3_13
REMARK    7  A    between atoms: C8_18  and  N5_19
REMARK    8  A    between atoms: C9_20  and  N6_21
REMARK    9  A    between atoms: C12_31  and  C13_32
REMARK   10  A    between atoms: C13_32  and  C14_33
ROOT
HETATM    1  N5  UNL     1      -5.136  44.783 -12.702  1.00  0.00    -0.113 N
HETATM    2  C9  UNL     1      -5.664  43.570 -12.945  1.00  0.00     0.686 A
HETATM    3  N7  UNL     1      -6.756  43.769 -13.676  1.00  0.00    -0.182 N
ATOM      4  H7  UNL     1      -7.374  43.034 -14.020  1.00  0.00     0.184 HD
HETATM    5  C10 UNL     1      -6.925  45.093 -13.896  1.00  0.00     0.162 A
HETATM    6  C11 UNL     1      -7.861  45.828 -14.570  1.00  0.00     0.278 A
HETATM    7  O2  UNL     1      -8.806  45.209 -15.136  1.00  0.00    -0.265 OA
HETATM    8  N8  UNL     1      -7.735  47.162 -14.599  1.00  0.00    -0.311 N
ATOM      9  H8  UNL     1      -8.438  47.702 -15.104  1.00  0.00     0.170 HD
HETATM   10  C12 UNL     1      -6.734  47.827 -14.000  1.00  0.00     0.086 A
HETATM   11  N9  UNL     1      -5.818  47.099 -13.341  1.00  0.00    -0.329 N
ATOM     12  H9  UNL     1      -5.046  47.577 -12.876  1.00  0.00     0.168 HD
HETATM   13  C18 UNL     1      -5.890  45.750 -13.276  1.00  0.00     0.165 A
ENDROOT
BRANCH   1  14
HETATM   14  C8  UNL     1      -3.935  45.015 -11.936  1.00  0.00     0.171 A
HETATM   15  N4  UNL     1      -2.711  44.879 -12.470  1.00  0.00    -0.174 N
HETATM   16  C6  UNL     1      -1.585  45.097 -11.752  1.00  0.00     0.680 A
ATOM     17  H4  UNL     1      -2.628  44.603 -13.449  1.00  0.00     0.186 HD
HETATM   18  N2  UNL     1      -1.705  45.459 -10.467  1.00  0.00    -0.175 N
HETATM   19  C5  UNL     1      -2.887  45.624  -9.830  1.00  0.00     0.143 A
ATOM     20  H2  UNL     1      -0.849  45.620  -9.935  1.00  0.00     0.186 HD
HETATM   21  C19 UNL     1      -4.030  45.386 -10.621  1.00  0.00     0.123 A
HETATM   22 CL1  UNL     1      -5.601  45.590  -9.830  1.00  0.00    -0.076 Cl
BRANCH  16  23
HETATM   23  N3  UNL     1      -0.418  44.968 -12.259  1.00  0.00    -0.230 N
HETATM   24  C7  UNL     1       0.377  43.808 -11.944  1.00  0.00     0.165 C
ATOM     25  H3  UNL     1      -0.050  45.685 -12.885  1.00  0.00     0.177 HD
ENDBRANCH  16  23
BRANCH  19  26
HETATM   26  N1  UNL     1      -3.038  45.962  -8.628  1.00  0.00    -0.368 N
ATOM     27  H1  UNL     1      -3.369  45.193  -8.046  1.00  0.00     0.161 HD
BRANCH  26  28
HETATM   28  C3  UNL     1      -2.858  47.142  -7.902  1.00  0.00     0.106 C
BRANCH  28  29
HETATM   29  C2  UNL     1      -3.507  48.388  -8.452  1.00  0.00     0.023 C
HETATM   30  C1  UNL     1      -3.920  49.339  -7.351  1.00  0.00     0.007 C
ENDBRANCH  28  29
BRANCH  28  31
HETATM   31  C4  UNL     1      -1.420  47.458  -7.516  1.00  0.00     0.189 C
BRANCH  31  32
HETATM   32  O1  UNL     1      -0.665  46.323  -7.353  1.00  0.00    -0.399 OA
ATOM     33  H1  UNL     1       0.221  46.432  -7.675  1.00  0.00     0.209 HD
ENDBRANCH  31  32
ENDBRANCH  28  31
ENDBRANCH  26  28
ENDBRANCH  19  26
ENDBRANCH   1  14
BRANCH   2  34
HETATM   34  N6  UNL     1      -5.144  42.464 -12.513  1.00  0.00    -0.234 N
ATOM     35  H62 UNL     1      -5.583  41.560 -12.336  1.00  0.00     0.174 HD
ATOM     36  H61 UNL     1      -4.156  42.359 -12.282  1.00  0.00     0.174 HD
ENDBRANCH   2  34
BRANCH  10  37
HETATM   37  C13 UNL     1      -6.679  49.283 -14.086  1.00  0.00     0.085 C
BRANCH  37  38
HETATM   38  C14 UNL     1      -7.069  50.006 -12.843  1.00  0.00    -0.045 C
HETATM   39  C15 UNL     1      -5.981  49.982 -11.789  1.00  0.00     0.015 C
HETATM   40  C16 UNL     1      -8.346  49.528 -12.234  1.00  0.00     0.015 C
HETATM   41  C17 UNL     1      -7.270  51.477 -13.217  1.00  0.00     0.015 C
ENDBRANCH  37  38
ENDBRANCH  10  37
TORSDOF 10
ENDMDL