MODEL 3
REMARK VINA RESULT: -6.616976582      2.913      4.117
REMARK  8 active torsions:
REMARK  status: ('A' for Active; 'I' for Inactive)
REMARK    1  A    between atoms: N1_1  and  C1_4
REMARK    2  A    between atoms: C2_7  and  N3_8
REMARK    3  A    between atoms: C4_14  and  C5_15
REMARK    4  A    between atoms: C5_15  and  C6_16
REMARK    5  A    between atoms: C6_16  and  C7_17
REMARK    6  A    between atoms: C7_17  and  S1_18
REMARK    7  A    between atoms: S1_18  and  C8_21
REMARK    8  A    between atoms: C10_23  and  C11_24
ROOT
HETATM    1  C1  UNL     1       0.403  47.703  -8.686  1.00  0.00     0.679 A
HETATM    2  N2  UNL     1      -0.528  47.976  -7.757  1.00  0.00    -0.175 N
ATOM      3  H2  UNL     1      -0.269  48.568  -6.967  1.00  0.00     0.186 HD
HETATM    4  C2  UNL     1      -1.796  47.501  -7.823  1.00  0.00     0.145 A
HETATM    5  C3  UNL     1      -2.173  46.699  -8.880  1.00  0.00     0.122 A
HETATM    6  N4  UNL     1      -3.411  46.193  -9.010  1.00  0.00    -0.352 N
ATOM      7  H4  UNL     1      -4.098  46.417  -8.290  1.00  0.00     0.166 HD
HETATM    8  C4  UNL     1      -3.795  45.420 -10.020  1.00  0.00     0.025 A
HETATM    9  C15 UNL     1      -2.803  45.150 -10.977  1.00  0.00     0.114 A
HETATM   10  N7  UNL     1      -1.564  45.649 -10.859  1.00  0.00    -0.348 N
ATOM     11  H7  UNL     1      -0.872  45.429 -11.575  1.00  0.00     0.167 HD
HETATM   12  C16 UNL     1      -1.205  46.428  -9.825  1.00  0.00     0.151 A
HETATM   13  N8  UNL     1       0.044  46.921  -9.721  1.00  0.00    -0.174 N
ATOM     14  H8  UNL     1       0.731  46.697 -10.441  1.00  0.00     0.186 HD
ENDROOT
BRANCH   8  15
HETATM   15  C5  UNL     1      -5.141  44.831 -10.223  1.00  0.00     0.059 C
BRANCH  15  16
HETATM   16  C6  UNL     1      -6.178  45.883 -10.465  1.00  0.00     0.021 C
BRANCH  16  17
HETATM   17  C7  UNL     1      -5.975  46.617 -11.734  1.00  0.00     0.147 C
BRANCH  17  18
HETATM   18  S1  UNL     1      -5.366  48.236 -11.573  1.00  0.00     0.182 S
HETATM   19  O1  UNL     1      -5.113  48.497 -10.103  1.00  0.00    -0.222 OA
HETATM   20  O2  UNL     1      -4.107  48.518 -12.303  1.00  0.00    -0.222 OA
BRANCH  18  21
HETATM   21  C8  UNL     1      -6.540  49.436 -12.164  1.00  0.00     0.103 A
HETATM   22  C9  UNL     1      -7.890  49.430 -11.957  1.00  0.00     0.048 A
HETATM   23  C10 UNL     1      -8.606  50.445 -12.499  1.00  0.00     0.040 A
HETATM   24  C14 UNL     1      -7.900  51.383 -13.202  1.00  0.00     0.171 A
HETATM   25  F1  UNL     1      -8.354  52.514 -13.855  1.00  0.00    -0.197 F
HETATM   26  S2  UNL     1      -6.282  50.828 -13.090  1.00  0.00    -0.047 SA
BRANCH  23  27
HETATM   27  C11 UNL     1     -10.094  50.568 -12.354  1.00  0.00     0.065 A
HETATM   28  C12 UNL     1     -11.050  49.610 -12.576  1.00  0.00     0.123 A
HETATM   29  N5  UNL     1     -12.272  50.139 -12.328  1.00  0.00    -0.317 N
HETATM   30  C13 UNL     1     -12.054  51.414 -11.956  1.00  0.00     0.324 A
ATOM     31  H5  UNL     1     -13.174  49.669 -12.406  1.00  0.00     0.170 HD
HETATM   32  O3  UNL     1     -12.931  52.251 -11.639  1.00  0.00    -0.247 OA
HETATM   33  N6  UNL     1     -10.745  51.680 -11.970  1.00  0.00    -0.306 N
ATOM     34  H6  UNL     1     -10.314  52.573 -11.730  1.00  0.00     0.170 HD
ENDBRANCH  23  27
ENDBRANCH  18  21
ENDBRANCH  17  18
ENDBRANCH  16  17
ENDBRANCH  15  16
ENDBRANCH   8  15
BRANCH   4  35
HETATM   35  N3  UNL     1      -2.676  47.772  -6.923  1.00  0.00    -0.383 N
ATOM     36  H32 UNL     1      -2.886  48.753  -6.736  1.00  0.00     0.157 HD
ATOM     37  H31 UNL     1      -3.161  47.042  -6.402  1.00  0.00     0.157 HD
ENDBRANCH   4  35
BRANCH   1  38
HETATM   38  N1  UNL     1       1.611  48.168  -8.604  1.00  0.00    -0.234 N
ATOM     39  H12 UNL     1       1.799  49.030  -8.092  1.00  0.00     0.174 HD
ATOM     40  H11 UNL     1       2.402  47.696  -9.041  1.00  0.00     0.174 HD
ENDBRANCH   1  38
TORSDOF 8
ENDMDL