MODEL 2
REMARK VINA RESULT: -6.490959939      2.070      3.106
REMARK  6 active torsions:
REMARK  status: ('A' for Active; 'I' for Inactive)
REMARK    1  A    between atoms: C3_6  and  C4_7
REMARK       I    between atoms: N2_10  and  C6_12
REMARK       I    between atoms: C6_12  and  N3_14
REMARK    2  A    between atoms: N3_14  and  C7_15
REMARK    3  A    between atoms: C7_15  and  C8_16
REMARK    4  A    between atoms: C7_15  and  C9_19
REMARK    5  A    between atoms: C9_19  and  O6_21
REMARK    6  A    between atoms: O6_21  and  C10_22
ROOT
HETATM    1  C1  UNL     1     -33.922  -4.300 -14.664  1.00  0.00     0.072 C
HETATM    2  C2  UNL     1     -33.413  -5.580 -14.120  1.00  0.00     0.052 A
HETATM    3  N1  UNL     1     -34.023  -6.765 -13.998  1.00  0.00    -0.264 N
ATOM      4  H1  UNL     1     -34.985  -6.949 -14.285  1.00  0.00     0.194 HD
HETATM    5  O1  UNL     1     -33.254  -7.633 -13.479  1.00  0.00    -0.235 OA
HETATM    6  C3  UNL     1     -32.055  -7.065 -13.216  1.00  0.00     0.140 A
HETATM    7  C15 UNL     1     -32.121  -5.794 -13.604  1.00  0.00     0.105 A
HETATM    8  C16 UNL     1     -31.128  -4.784 -13.626  1.00  0.00     0.104 C
HETATM    9  N5  UNL     1     -30.323  -3.957 -13.677  1.00  0.00    -0.191 NA
ENDROOT
BRANCH   6  10
HETATM   10  C4  UNL     1     -30.981  -7.876 -12.614  1.00  0.00     0.068 A
HETATM   11  S1  UNL     1     -31.205  -8.763 -11.098  1.00  0.00    -0.049 SA
HETATM   12  C5  UNL     1     -29.725  -9.572 -11.067  1.00  0.00     0.154 A
HETATM   13  N2  UNL     1     -29.263 -10.424 -10.169  1.00  0.00    -0.277 N
HETATM   14  N4  UNL     1     -29.124  -9.153 -12.173  1.00  0.00    -0.339 N
HETATM   15  C6  UNL     1     -27.936 -10.982 -10.386  1.00  0.00     0.396 C
ATOM     16  H2  UNL     1     -29.816 -10.681  -9.353  1.00  0.00     0.173 HD
HETATM   17  O2  UNL     1     -27.951 -11.994 -11.106  1.00  0.00    -0.230 OA
HETATM   18  N3  UNL     1     -26.863 -10.367  -9.809  1.00  0.00    -0.369 NA
HETATM   19  C13 UNL     1     -29.750  -8.300 -12.954  1.00  0.00     0.027 A
ATOM     20  H4  UNL     1     -28.191  -9.488 -12.415  1.00  0.00     0.168 HD
HETATM   21  C14 UNL     1     -29.023  -7.717 -14.173  1.00  0.00     0.070 C
BRANCH  18  22
HETATM   22  C7  UNL     1     -25.792  -9.754  -9.232  1.00  0.00     0.367 C
BRANCH  22  23
HETATM   23  C8  UNL     1     -25.206  -8.651 -10.077  1.00  0.00     0.221 C
HETATM   24  O3  UNL     1     -25.754  -8.310 -11.111  1.00  0.00    -0.645 OA
HETATM   25  O4  UNL     1     -24.028  -8.071  -9.598  1.00  0.00    -0.645 OA
ENDBRANCH  22  23
BRANCH  22  26
HETATM   26  C9  UNL     1     -26.161  -9.061  -7.950  1.00  0.00     0.306 C
HETATM   27  O5  UNL     1     -25.351  -9.059  -6.983  1.00  0.00    -0.261 OA
BRANCH  26  28
HETATM   28  O6  UNL     1     -27.358  -8.417  -7.777  1.00  0.00    -0.314 OA
BRANCH  28  29
HETATM   29  C10 UNL     1     -27.594  -7.058  -7.990  1.00  0.00     0.123 C
HETATM   30  C11 UNL     1     -28.270  -6.333  -6.881  1.00  0.00     0.040 C
HETATM   31  C12 UNL     1     -28.368  -6.816  -9.281  1.00  0.00     0.040 C
ENDBRANCH  28  29
ENDBRANCH  26  28
ENDBRANCH  22  26
ENDBRANCH  18  22
ENDBRANCH   6  10
TORSDOF 6
ENDMDL