MODEL 5
REMARK VINA RESULT: -5.151509326      2.862      7.471
REMARK  9 active torsions:
REMARK  status: ('A' for Active; 'I' for Inactive)
REMARK    1  A    between atoms: C2_2  and  N1_3
REMARK    2  A    between atoms: N1_3  and  C3_4
REMARK    3  A    between atoms: N1_3  and  C5_6
REMARK    4  A    between atoms: N6_20  and  C10_21
REMARK    5  A    between atoms: C11_22  and  O1_23
REMARK    6  A    between atoms: C11_22  and  C12_25
REMARK    7  A    between atoms: C13_26  and  C14_27
REMARK    8  A    between atoms: C14_27  and  O2_28
REMARK    9  A    between atoms: C16_30  and  N7_31
ROOT
HETATM    1  C10 UNL     1     -29.813  -8.949 -11.107  1.00  0.00     0.155 A
HETATM    2  C11 UNL     1     -29.422  -7.500 -10.999  1.00  0.00     0.190 A
HETATM    3  C16 UNL     1     -28.384  -7.769 -12.089  1.00  0.00     0.263 A
HETATM    4  C17 UNL     1     -28.455  -6.946 -13.260  1.00  0.00     0.104 C
HETATM    5  N8  UNL     1     -28.533  -6.288 -14.214  1.00  0.00    -0.194 NA
HETATM    6  C18 UNL     1     -28.842  -9.178 -12.168  1.00  0.00     0.035 A
HETATM    7  C19 UNL     1     -27.645 -10.107 -11.846  1.00  0.00     0.015 C
HETATM    8  C20 UNL     1     -28.117 -11.075 -12.887  1.00  0.00     0.002 C
HETATM    9  C21 UNL     1     -28.994  -9.916 -13.379  1.00  0.00     0.015 C
ENDROOT
BRANCH   3  10
HETATM   10  N7  UNL     1     -27.031  -7.615 -11.517  1.00  0.00    -0.052 N
ATOM     11  H73 UNL     1     -27.003  -7.840 -10.522  1.00  0.00     0.276 HD
ATOM     12  H72 UNL     1     -26.388  -8.336 -11.845  1.00  0.00     0.276 HD
ATOM     13  H71 UNL     1     -26.691  -6.674 -11.712  1.00  0.00     0.276 HD
ENDBRANCH   3  10
BRANCH   2  14
HETATM   14  O1  UNL     1     -30.361  -6.543 -11.257  1.00  0.00    -0.372 OA
ATOM     15  H1  UNL     1     -30.413  -5.785 -10.686  1.00  0.00     0.212 HD
ENDBRANCH   2  14
BRANCH   2  16
HETATM   16  C12 UNL     1     -28.781  -7.118  -9.705  1.00  0.00    -0.060 C
HETATM   17  C13 UNL     1     -28.271  -6.830  -8.651  1.00  0.00    -0.077 C
BRANCH  17  18
HETATM   18  C14 UNL     1     -27.632  -6.498  -7.374  1.00  0.00     0.260 C
BRANCH  18  19
HETATM   19  O2  UNL     1     -26.362  -7.048  -7.410  1.00  0.00    -0.384 OA
HETATM   20  C15 UNL     1     -26.425  -8.433  -7.350  1.00  0.00     0.202 C
ENDBRANCH  18  19
ENDBRANCH  17  18
ENDBRANCH   2  16
BRANCH   1  21
HETATM   21  N6  UNL     1     -31.174  -9.333 -11.130  1.00  0.00    -0.317 N
HETATM   22  C7  UNL     1     -32.262  -8.871 -11.788  1.00  0.00     0.155 A
HETATM   23  N4  UNL     1     -32.379  -7.876 -12.659  1.00  0.00    -0.174 N
HETATM   24  C8  UNL     1     -33.402  -9.591 -11.475  1.00  0.00     0.123 A
HETATM   25  C6  UNL     1     -33.550  -7.558 -13.229  1.00  0.00     0.679 A
ATOM     26  H4  UNL     1     -31.551  -7.334 -12.902  1.00  0.00     0.186 HD
HETATM   27  N2  UNL     1     -34.643  -8.256 -12.922  1.00  0.00    -0.175 N
HETATM   28  N3  UNL     1     -33.613  -6.556 -14.091  1.00  0.00    -0.234 N
HETATM   29  C5  UNL     1     -34.626  -9.295 -12.040  1.00  0.00     0.150 A
ATOM     30  H2  UNL     1     -35.527  -8.004 -13.364  1.00  0.00     0.186 HD
ATOM     31  H32 UNL     1     -34.504  -6.314 -14.525  1.00  0.00     0.174 HD
ATOM     32  H31 UNL     1     -32.777  -6.021 -14.325  1.00  0.00     0.174 HD
HETATM   33  N5  UNL     1     -32.996 -10.510 -10.610  1.00  0.00    -0.346 N
HETATM   34  C9  UNL     1     -31.710 -10.368 -10.403  1.00  0.00     0.185 A
ATOM     35  H5  UNL     1     -33.590 -11.214 -10.174  1.00  0.00     0.167 HD
BRANCH  29  36
HETATM   36  N1  UNL     1     -35.822  -9.982 -11.742  1.00  0.00    -0.366 N
BRANCH  36  37
HETATM   37  C2  UNL     1     -36.282 -10.953 -12.709  1.00  0.00     0.120 C
HETATM   38  C1  UNL     1     -35.546 -12.248 -12.551  1.00  0.00     0.026 C
ENDBRANCH  36  37
BRANCH  36  39
HETATM   39  C3  UNL     1     -36.568  -9.740 -10.549  1.00  0.00     0.120 C
HETATM   40  C4  UNL     1     -36.290 -10.654  -9.395  1.00  0.00     0.026 C
ENDBRANCH  36  39
ENDBRANCH  29  36
ENDBRANCH   1  21
TORSDOF 9
ENDMDL