MODEL 1
REMARK VINA RESULT: -6.208446217      0.000      0.000
REMARK  5 active torsions:
REMARK  status: ('A' for Active; 'I' for Inactive)
REMARK    1  A    between atoms: S1_2  and  C2_3
REMARK       I    between atoms: N3_9  and  C4_11
REMARK    2  A    between atoms: C4_11  and  C5_13
REMARK    3  A    between atoms: C5_13  and  S2_14
REMARK    4  A    between atoms: S2_14  and  C6_15
REMARK    5  A    between atoms: C9_23  and  C10_24
ROOT
HETATM    1  C6  UNL     1     -30.364  -6.663 -14.002  1.00  0.00     0.149 A
HETATM    2  N4  UNL     1     -29.318  -7.392 -14.428  1.00  0.00    -0.302 N
ATOM      3  H4  UNL     1     -29.266  -7.608 -15.424  1.00  0.00     0.171 HD
HETATM    4  C7  UNL     1     -28.342  -7.853 -13.641  1.00  0.00     0.278 A
HETATM    5  O2  UNL     1     -27.377  -8.525 -14.031  1.00  0.00    -0.265 OA
HETATM    6  C8  UNL     1     -28.442  -7.540 -12.280  1.00  0.00     0.147 A
HETATM    7  N5  UNL     1     -27.666  -7.825 -11.220  1.00  0.00    -0.334 N
ATOM      8  H5  UNL     1     -26.804  -8.369 -11.264  1.00  0.00     0.168 HD
HETATM    9  C9  UNL     1     -28.178  -7.298 -10.097  1.00  0.00     0.120 A
HETATM   10  N8  UNL     1     -29.303  -6.672 -10.482  1.00  0.00    -0.326 N
ATOM     11  H8  UNL     1     -29.927  -6.168  -9.853  1.00  0.00     0.169 HD
HETATM   12  C13 UNL     1     -29.495  -6.796 -11.795  1.00  0.00     0.141 A
HETATM   13  N9  UNL     1     -30.423  -6.385 -12.684  1.00  0.00    -0.321 N
ATOM     14  H9  UNL     1     -31.210  -5.834 -12.341  1.00  0.00     0.169 HD
ENDROOT
BRANCH   1  15
HETATM   15  S2  UNL     1     -31.643  -6.074 -15.127  1.00  0.00    -0.084 SA
BRANCH  15  16
HETATM   16  C5  UNL     1     -31.446  -4.294 -15.381  1.00  0.00     0.185 C
BRANCH  16  17
HETATM   17  C4  UNL     1     -32.011  -3.481 -14.304  1.00  0.00     0.233 C
HETATM   18  N3  UNL     1     -32.002  -2.070 -14.397  1.00  0.00    -0.305 N
HETATM   19  C3  UNL     1     -31.031  -1.435 -13.779  1.00  0.00     0.168 A
ATOM     20  H3  UNL     1     -32.717  -1.567 -14.921  1.00  0.00     0.171 HD
HETATM   21  N2  UNL     1     -30.027  -1.937 -13.058  1.00  0.00    -0.278 N
HETATM   22  S3  UNL     1     -30.716   0.247 -13.684  1.00  0.00    -0.026 SA
HETATM   23  N1  UNL     1     -29.184  -1.145 -12.539  1.00  0.00    -0.286 N
ATOM     24  H2  UNL     1     -29.939  -2.945 -12.926  1.00  0.00     0.189 HD
HETATM   25  C2  UNL     1     -29.300   0.163 -12.712  1.00  0.00     0.129 A
ATOM     26  H1  UNL     1     -28.412  -1.517 -11.986  1.00  0.00     0.188 HD
HETATM   27  O1  UNL     1     -32.502  -4.038 -13.298  1.00  0.00    -0.272 OA
BRANCH  25  28
HETATM   28  S1  UNL     1     -28.251   1.489 -12.091  1.00  0.00    -0.108 SA
HETATM   29  C1  UNL     1     -26.730   1.451 -13.074  1.00  0.00     0.097 C
ENDBRANCH  25  28
ENDBRANCH  16  17
ENDBRANCH  15  16
ENDBRANCH   1  15
BRANCH   9  30
HETATM   30  C10 UNL     1     -27.668  -7.357  -8.733  1.00  0.00     0.042 A
HETATM   31  C11 UNL     1     -27.987  -6.518  -7.689  1.00  0.00     0.123 A
HETATM   32  N6  UNL     1     -27.289  -6.929  -6.609  1.00  0.00    -0.311 N
HETATM   33  N7  UNL     1     -26.542  -7.985  -6.910  1.00  0.00    -0.311 N
ATOM     34  H6  UNL     1     -27.330  -6.490  -5.690  1.00  0.00     0.186 HD
HETATM   35  C12 UNL     1     -26.765  -8.259  -8.212  1.00  0.00     0.123 A
ATOM     36  H7  UNL     1     -25.921  -8.491  -6.279  1.00  0.00     0.186 HD
ENDBRANCH   9  30
TORSDOF 5
ENDMDL