MODEL 4
REMARK VINA RESULT: -6.318603187      4.381      4.808
REMARK  6 active torsions:
REMARK  status: ('A' for Active; 'I' for Inactive)
REMARK    1  A    between atoms: C3_3  and  C4_4
REMARK       I    between atoms: C4_4  and  N1_6
REMARK    2  A    between atoms: N1_6  and  N2_8
REMARK    3  A    between atoms: C11_19  and  C12_20
REMARK       I    between atoms: C12_20  and  N4_22
REMARK    4  A    between atoms: N4_22  and  N5_24
REMARK    5  A    between atoms: C13_26  and  C14_27
REMARK    6  A    between atoms: C15_28  and  O3_29
ROOT
HETATM    1  C1  UNL     1     -31.611  -3.672 -13.282  1.00  0.00     0.052 C
HETATM    2  C2  UNL     1     -31.545  -5.025 -14.007  1.00  0.00    -0.005 A
HETATM    3  C3  UNL     1     -32.345  -5.278 -15.083  1.00  0.00     0.116 A
HETATM    4  N3  UNL     1     -32.141  -6.433 -15.726  1.00  0.00    -0.321 N
ATOM      5  H3  UNL     1     -32.641  -6.780 -16.545  1.00  0.00     0.174 HD
HETATM    6  S1  UNL     1     -30.912  -7.179 -14.914  1.00  0.00    -0.008 SA
HETATM    7  C11 UNL     1     -30.618  -5.969 -13.674  1.00  0.00     0.099 A
ENDROOT
BRANCH   7   8
HETATM    8  C12 UNL     1     -29.613  -6.096 -12.635  1.00  0.00     0.278 C
HETATM    9  O2  UNL     1     -28.453  -5.624 -12.890  1.00  0.00    -0.265 OA
HETATM   10  N4  UNL     1     -29.778  -6.675 -11.394  1.00  0.00    -0.266 N
ATOM     11  H4  UNL     1     -30.686  -7.075 -11.155  1.00  0.00     0.190 HD
BRANCH  10  12
HETATM   12  N5  UNL     1     -28.726  -6.737 -10.432  1.00  0.00    -0.307 N
HETATM   13  C13 UNL     1     -28.691  -7.691  -9.585  1.00  0.00     0.141 C
ATOM     14  H5  UNL     1     -28.002  -6.018 -10.422  1.00  0.00     0.186 HD
BRANCH  13  15
HETATM   15  C14 UNL     1     -27.625  -7.793  -8.577  1.00  0.00     0.106 A
HETATM   16  C15 UNL     1     -27.358  -6.914  -7.551  1.00  0.00     0.173 A
HETATM   17  N6  UNL     1     -26.300  -7.420  -6.894  1.00  0.00    -0.287 N
HETATM   18  C16 UNL     1     -25.934  -8.567  -7.497  1.00  0.00     0.328 A
ATOM     19  H6  UNL     1     -25.851  -7.006  -6.077  1.00  0.00     0.172 HD
HETATM   20  O4  UNL     1     -24.967  -9.320  -7.144  1.00  0.00    -0.246 OA
HETATM   21  N7  UNL     1     -26.742  -8.815  -8.541  1.00  0.00    -0.299 N
HETATM   22  C17 UNL     1     -26.668  -9.954  -9.437  1.00  0.00     0.161 C
BRANCH  16  23
HETATM   23  O3  UNL     1     -28.057  -5.736  -7.266  1.00  0.00    -0.344 OA
ATOM     24  H3  UNL     1     -27.688  -4.930  -6.926  1.00  0.00     0.219 HD
ENDBRANCH  16  23
ENDBRANCH  13  15
ENDBRANCH  10  12
ENDBRANCH   7   8
BRANCH   3  25
HETATM   25  C4  UNL     1     -33.511  -4.458 -15.557  1.00  0.00     0.287 C
HETATM   26  O1  UNL     1     -33.375  -3.669 -16.512  1.00  0.00    -0.264 OA
HETATM   27  N1  UNL     1     -34.747  -4.611 -14.906  1.00  0.00    -0.265 N
ATOM     28  H1  UNL     1     -34.855  -5.268 -14.134  1.00  0.00     0.190 HD
BRANCH  27  29
HETATM   29  N2  UNL     1     -35.825  -3.837 -15.350  1.00  0.00    -0.306 N
HETATM   30  C5  UNL     1     -36.397  -2.898 -14.729  1.00  0.00     0.004 C
HETATM   31  C6  UNL     1     -37.532  -2.221 -15.424  1.00  0.00     0.054 C
HETATM   32  C10 UNL     1     -36.020  -2.433 -13.384  1.00  0.00     0.054 C
HETATM   33  C7  UNL     1     -37.908  -1.004 -14.627  1.00  0.00     0.006 C
HETATM   34  C8  UNL     1     -36.658  -0.196 -14.344  1.00  0.00     0.001 C
HETATM   35  C9  UNL     1     -35.705  -0.940 -13.461  1.00  0.00     0.006 C
ATOM     36  H2  UNL     1     -36.189  -4.055 -16.277  1.00  0.00     0.186 HD
ENDBRANCH  27  29
ENDBRANCH   3  25
TORSDOF 6
ENDMDL