MODEL 1
REMARK VINA RESULT: -6.608084261      0.000      0.000
REMARK  7 active torsions:
REMARK  status: ('A' for Active; 'I' for Inactive)
REMARK    1  A    between atoms: N2_5  and  C3_6
REMARK    2  A    between atoms: C4_10  and  C5_11
REMARK    3  A    between atoms: C5_11  and  N4_12
REMARK    4  A    between atoms: N4_12  and  C6_13
REMARK    5  A    between atoms: C11_26  and  C12_27
REMARK    6  A    between atoms: C12_27  and  N9_28
REMARK    7  A    between atoms: C16_32  and  N10_33
ROOT
HETATM    1  C1  UNL     1     -35.526 -10.356  -9.538  1.00  0.00     0.071 C
HETATM    2  C2  UNL     1     -34.468 -10.122 -10.585  1.00  0.00     0.047 A
HETATM    3  N1  UNL     1     -33.165 -10.501 -10.449  1.00  0.00    -0.294 N
ATOM      4  H1  UNL     1     -32.769 -10.974  -9.637  1.00  0.00     0.187 HD
HETATM    5  N2  UNL     1     -32.475 -10.147 -11.571  1.00  0.00    -0.230 N
HETATM    6  C16 UNL     1     -33.289  -9.566 -12.387  1.00  0.00     0.144 A
HETATM    7  C17 UNL     1     -34.590  -9.531 -11.791  1.00  0.00     0.113 A
HETATM    8  C18 UNL     1     -35.766  -8.990 -12.375  1.00  0.00     0.105 C
HETATM    9  N11 UNL     1     -36.726  -8.582 -12.867  1.00  0.00    -0.191 NA
ENDROOT
BRANCH   6  10
HETATM   10  N10 UNL     1     -32.998  -9.069 -13.537  1.00  0.00    -0.383 N
ATOM     11 2H10 UNL     1     -32.152  -9.286 -14.065  1.00  0.00     0.157 HD
ATOM     12 1H10 UNL     1     -33.567  -8.421 -14.082  1.00  0.00     0.157 HD
ENDBRANCH   6  10
BRANCH   5  13
HETATM   13  C3  UNL     1     -31.046 -10.448 -11.535  1.00  0.00     0.128 A
HETATM   14  S1  UNL     1     -30.300 -11.950 -11.835  1.00  0.00     0.007 SA
HETATM   15  N3  UNL     1     -28.735 -11.408 -11.978  1.00  0.00    -0.325 N
HETATM   16  C4  UNL     1     -28.772 -10.074 -11.788  1.00  0.00     0.060 A
ATOM     17  H3  UNL     1     -27.909 -11.973 -12.171  1.00  0.00     0.174 HD
HETATM   18  C11 UNL     1     -29.995  -9.527 -11.544  1.00  0.00     0.037 A
BRANCH  16  19
HETATM   19  C5  UNL     1     -27.454  -9.276 -11.881  1.00  0.00     0.279 C
BRANCH  19  20
HETATM   20  N4  UNL     1     -26.982  -9.061 -10.610  1.00  0.00    -0.422 NA
BRANCH  20  21
HETATM   21  C6  UNL     1     -26.561  -8.779  -9.553  1.00  0.00     0.204 A
HETATM   22  N5  UNL     1     -25.418  -9.321  -9.020  1.00  0.00    -0.326 N
HETATM   23  C7  UNL     1     -24.948  -9.024  -7.821  1.00  0.00     0.184 A
ATOM     24  H5  UNL     1     -24.900  -9.994  -9.584  1.00  0.00     0.169 HD
HETATM   25  N6  UNL     1     -25.558  -8.131  -6.967  1.00  0.00    -0.337 N
HETATM   26  C8  UNL     1     -26.702  -7.552  -7.451  1.00  0.00     0.139 A
ATOM     27  H6  UNL     1     -25.186  -7.917  -6.042  1.00  0.00     0.168 HD
HETATM   28  N7  UNL     1     -27.519  -6.619  -6.858  1.00  0.00    -0.337 N
HETATM   29  C10 UNL     1     -27.193  -7.858  -8.696  1.00  0.00     0.136 A
HETATM   30  C9  UNL     1     -28.504  -6.370  -7.759  1.00  0.00     0.182 A
ATOM     31  H7  UNL     1     -27.408  -6.201  -5.935  1.00  0.00     0.168 HD
HETATM   32  N8  UNL     1     -28.299  -7.132  -8.860  1.00  0.00    -0.345 N
ATOM     33  H8  UNL     1     -28.897  -7.148  -9.685  1.00  0.00     0.167 HD
ENDBRANCH  20  21
ENDBRANCH  19  20
ENDBRANCH  16  19
BRANCH  18  34
HETATM   34  C12 UNL     1     -30.389  -8.088 -11.369  1.00  0.00     0.076 C
BRANCH  34  35
HETATM   35  N9  UNL     1     -30.318  -7.248 -12.473  1.00  0.00    -0.292 NA
HETATM   36  C13 UNL     1     -31.279  -6.131 -12.513  1.00  0.00     0.096 C
HETATM   37  C14 UNL     1     -30.185  -5.366 -13.268  1.00  0.00     0.030 C
HETATM   38  C15 UNL     1     -29.308  -6.120 -12.258  1.00  0.00     0.096 C
ENDBRANCH  34  35
ENDBRANCH  18  34
ENDBRANCH   5  13
TORSDOF 7
ENDMDL