MODEL 4
REMARK VINA RESULT: -5.973830407      2.528      7.088
REMARK  6 active torsions:
REMARK  status: ('A' for Active; 'I' for Inactive)
REMARK    1  A    between atoms: C3_5  and  C4_6
REMARK    2  A    between atoms: C11_19  and  N4_20
REMARK    3  A    between atoms: N4_20  and  N5_22
REMARK    4  A    between atoms: N5_22  and  C12_23
REMARK    5  A    between atoms: C12_23  and  C13_24
REMARK    6  A    between atoms: C12_23  and  C14_27
ROOT
HETATM    1  C1  UNL     1     -31.374  -3.817 -13.416  1.00  0.00     0.076 C
HETATM    2  C2  UNL     1     -31.026  -5.201 -12.902  1.00  0.00     0.049 A
HETATM    3  N1  UNL     1     -30.087  -5.548 -12.072  1.00  0.00    -0.349 N
ATOM      4  H1  UNL     1     -29.472  -4.834 -11.682  1.00  0.00     0.166 HD
HETATM    5  C3  UNL     1     -29.918  -6.810 -11.727  1.00  0.00     0.113 A
HETATM    6  C11 UNL     1     -30.776  -7.715 -12.285  1.00  0.00     0.118 A
HETATM    7  S2  UNL     1     -31.767  -6.682 -13.271  1.00  0.00    -0.056 SA
ENDROOT
BRANCH   5   8
HETATM    8  C4  UNL     1     -28.824  -7.175 -10.766  1.00  0.00     0.139 A
HETATM    9  N2  UNL     1     -28.790  -6.740  -9.518  1.00  0.00    -0.307 N
HETATM   10  C5  UNL     1     -27.836  -7.038  -8.627  1.00  0.00     0.256 A
ATOM     11  H2  UNL     1     -29.548  -6.131  -9.211  1.00  0.00     0.170 HD
HETATM   12  O1  UNL     1     -27.874  -6.581  -7.448  1.00  0.00    -0.268 OA
HETATM   13  C6  UNL     1     -26.784  -7.873  -9.020  1.00  0.00     0.044 A
HETATM   14  C7  UNL     1     -26.820  -8.314 -10.288  1.00  0.00     0.083 A
HETATM   15  C10 UNL     1     -25.672  -8.294  -8.179  1.00  0.00     0.062 C
HETATM   16  N3  UNL     1     -27.815  -7.976 -11.145  1.00  0.00    -0.334 N
HETATM   17  S1  UNL     1     -25.373  -9.351 -10.537  1.00  0.00    -0.107 SA
ATOM     18  H3  UNL     1     -27.797  -8.338 -12.098  1.00  0.00     0.168 HD
HETATM   19  C8  UNL     1     -24.586  -8.907  -8.938  1.00  0.00     0.054 C
HETATM   20  C9  UNL     1     -23.364  -8.075  -9.138  1.00  0.00     0.022 C
ENDBRANCH   5   8
BRANCH   6  21
HETATM   21  N4  UNL     1     -30.903  -9.135 -12.158  1.00  0.00    -0.295 N
ATOM     22  H4  UNL     1     -31.744  -9.523 -11.731  1.00  0.00     0.183 HD
BRANCH  21  23
HETATM   23  N5  UNL     1     -29.905 -10.000 -12.604  1.00  0.00    -0.124 NA
BRANCH  23  24
HETATM   24  C12 UNL     1     -30.302 -11.370 -12.624  1.00  0.00     0.217 C
BRANCH  24  25
HETATM   25  C13 UNL     1     -31.783 -11.462 -12.615  1.00  0.00     0.254 C
HETATM   26  N6  UNL     1     -32.524 -11.631 -11.405  1.00  0.00    -0.060 NA
HETATM   27  O2  UNL     1     -32.405 -11.390 -13.705  1.00  0.00    -0.275 OA
ENDBRANCH  24  25
BRANCH  24  28
HETATM   28  C14 UNL     1     -29.838 -12.108 -11.361  1.00  0.00     0.151 C
HETATM   29  C15 UNL     1     -28.505 -11.610 -10.896  1.00  0.00     0.036 C
HETATM   30  C16 UNL     1     -27.540 -12.413 -11.716  1.00  0.00     0.029 C
HETATM   31  C17 UNL     1     -28.363 -13.574 -12.182  1.00  0.00     0.168 C
HETATM   32  O3  UNL     1     -29.626 -13.440 -11.616  1.00  0.00    -0.384 OA
ENDBRANCH  24  28
ENDBRANCH  23  24
ENDBRANCH  21  23
ENDBRANCH   6  21
TORSDOF 6
ENDMDL