MODEL 1
REMARK VINA RESULT: -6.200598199      0.000      0.000
REMARK  7 active torsions:
REMARK  status: ('A' for Active; 'I' for Inactive)
REMARK    1  A    between atoms: C2_2  and  N1_4
REMARK    2  A    between atoms: N1_4  and  C4_6
REMARK    3  A    between atoms: C5_9  and  N3_10
REMARK    4  A    between atoms: N3_10  and  C6_12
REMARK    5  A    between atoms: C7_15  and  N5_16
REMARK    6  A    between atoms: C14_29  and  N8_30
REMARK    7  A    between atoms: N8_30  and  N9_32
ROOT
HETATM    1  C4  UNL     1     -31.704  -8.519 -12.459  1.00  0.00     0.681 A
HETATM    2  N2  UNL     1     -30.734  -9.428 -12.567  1.00  0.00    -0.177 N
ATOM      3  H2  UNL     1     -29.981  -9.275 -13.238  1.00  0.00     0.186 HD
HETATM    4  C5  UNL     1     -30.725 -10.541 -11.814  1.00  0.00     0.126 A
HETATM    5  C13 UNL     1     -31.728 -10.771 -10.902  1.00  0.00     0.099 A
HETATM    6  C14 UNL     1     -32.722  -9.813 -10.808  1.00  0.00     0.135 A
HETATM    7  N10 UNL     1     -32.707  -8.708 -11.575  1.00  0.00    -0.176 N
ATOM      8  H10 UNL     1     -33.451  -8.016 -11.489  1.00  0.00     0.186 HD
ENDROOT
BRANCH   4   9
HETATM    9  N3  UNL     1     -29.682 -11.477 -11.959  1.00  0.00    -0.321 N
ATOM     10  H3  UNL     1     -29.881 -12.393 -12.361  1.00  0.00     0.169 HD
BRANCH   9  11
HETATM   11  C6  UNL     1     -28.453 -11.183 -11.581  1.00  0.00     0.182 A
HETATM   12  N4  UNL     1     -28.012 -10.093 -11.000  1.00  0.00    -0.168 N
HETATM   13  C7  UNL     1     -26.741  -9.978 -10.695  1.00  0.00     0.690 A
ATOM     14  H4  UNL     1     -28.657  -9.333 -10.786  1.00  0.00     0.186 HD
HETATM   15  N7  UNL     1     -25.954 -11.016 -11.008  1.00  0.00    -0.157 N
HETATM   16  S1  UNL     1     -27.029 -12.109 -11.717  1.00  0.00     0.039 SA
ATOM     17  H7  UNL     1     -24.951 -11.120 -10.856  1.00  0.00     0.193 HD
BRANCH  13  18
HETATM   18  N5  UNL     1     -26.234  -8.796 -10.048  1.00  0.00    -0.193 N
HETATM   19  C8  UNL     1     -27.065  -7.611 -10.002  1.00  0.00     0.143 C
HETATM   20  C9  UNL     1     -27.421  -7.236  -8.577  1.00  0.00     0.022 C
HETATM   21  C10 UNL     1     -27.096  -8.362  -7.614  1.00  0.00     0.029 C
HETATM   22  C11 UNL     1     -25.621  -8.260  -7.294  1.00  0.00     0.234 C
HETATM   23  N6  UNL     1     -24.938  -9.267  -8.086  1.00  0.00    -0.059 N
HETATM   24  C12 UNL     1     -24.919  -8.907  -9.493  1.00  0.00     0.373 C
ATOM     25  H62 UNL     1     -23.999  -9.448  -7.733  1.00  0.00     0.279 HD
ATOM     26  H61 UNL     1     -25.341 -10.193  -7.943  1.00  0.00     0.279 HD
ENDBRANCH  13  18
ENDBRANCH   9  11
ENDBRANCH   4   9
BRANCH   1  27
HETATM   27  N1  UNL     1     -31.684  -7.467 -13.193  1.00  0.00    -0.222 N
ATOM     28  H1  UNL     1     -31.851  -7.534 -14.197  1.00  0.00     0.178 HD
BRANCH  27  29
HETATM   29  C2  UNL     1     -31.422  -6.187 -12.579  1.00  0.00     0.091 C
HETATM   30  C1  UNL     1     -29.993  -6.075 -12.103  1.00  0.00     0.032 C
HETATM   31  C3  UNL     1     -31.743  -5.108 -13.595  1.00  0.00     0.032 C
ENDBRANCH  27  29
ENDBRANCH   1  27
BRANCH   6  32
HETATM   32  N8  UNL     1     -33.774 -10.034  -9.865  1.00  0.00    -0.304 N
ATOM     33  H8  UNL     1     -33.736  -9.587  -8.949  1.00  0.00     0.182 HD
BRANCH  32  34
HETATM   34  N9  UNL     1     -34.861 -10.865 -10.195  1.00  0.00    -0.230 NA
HETATM   35  C15 UNL     1     -35.970 -10.613  -9.317  1.00  0.00     0.113 C
HETATM   36  C16 UNL     1     -37.105 -10.079 -10.131  1.00  0.00     0.017 C
HETATM   37  C17 UNL     1     -36.447  -9.643 -11.415  1.00  0.00     0.017 C
HETATM   38  C18 UNL     1     -35.319 -10.664 -11.541  1.00  0.00     0.113 C
ENDBRANCH  32  34
ENDBRANCH   6  32
TORSDOF 7
ENDMDL