MODEL 2
REMARK VINA RESULT: -5.904772169      4.986      7.802
REMARK  9 active torsions:
REMARK  status: ('A' for Active; 'I' for Inactive)
REMARK    1  A    between atoms: C2_2  and  C3_3
REMARK    2  A    between atoms: C3_3  and  N1_4
REMARK    3  A    between atoms: C6_12  and  C7_13
REMARK    4  A    between atoms: C11_22  and  N7_23
REMARK    5  A    between atoms: C12_28  and  N9_29
REMARK    6  A    between atoms: N9_29  and  C13_31
REMARK    7  A    between atoms: N10_35  and  C17_36
REMARK    8  A    between atoms: C17_36  and  C18_37
REMARK    9  A    between atoms: C18_37  and  O2_39
ROOT
HETATM    1  C7  UNL     1     -24.367 -12.323 -12.326  1.00  0.00     0.067 A
HETATM    2  C8  UNL     1     -23.313 -12.041 -13.228  1.00  0.00     0.109 A
HETATM    3  N4  UNL     1     -22.589 -13.014 -13.792  1.00  0.00    -0.343 N
ATOM      4  H4  UNL     1     -21.836 -12.775 -14.439  1.00  0.00     0.167 HD
HETATM    5  C9  UNL     1     -22.844 -14.300 -13.514  1.00  0.00     0.189 A
HETATM    6  C10 UNL     1     -22.042 -15.318 -14.143  1.00  0.00     0.137 C
HETATM    7  N5  UNL     1     -21.401 -16.129 -14.665  1.00  0.00    -0.188 NA
HETATM    8  N6  UNL     1     -23.813 -14.618 -12.679  1.00  0.00    -0.319 N
ATOM      9  H6  UNL     1     -23.998 -15.600 -12.474  1.00  0.00     0.169 HD
HETATM   10  C11 UNL     1     -24.582 -13.644 -12.075  1.00  0.00     0.116 A
ENDROOT
BRANCH  10  11
HETATM   11  N7  UNL     1     -25.409 -14.060 -11.245  1.00  0.00    -0.385 N
ATOM     12  H72 UNL     1     -26.023 -14.803 -11.577  1.00  0.00     0.157 HD
ATOM     13  H71 UNL     1     -25.444 -13.741 -10.277  1.00  0.00     0.157 HD
ENDBRANCH  10  11
BRANCH   1  14
HETATM   14  C6  UNL     1     -25.059 -11.184 -11.757  1.00  0.00     0.123 A
HETATM   15  N3  UNL     1     -26.411 -11.106 -12.041  1.00  0.00    -0.325 N
HETATM   16  C5  UNL     1     -27.163 -10.077 -11.645  1.00  0.00     0.154 A
ATOM     17  H3  UNL     1     -26.847 -11.861 -12.570  1.00  0.00     0.169 HD
HETATM   18  N2  UNL     1     -28.495  -9.798 -11.813  1.00  0.00    -0.174 N
HETATM   19  C16 UNL     1     -26.634  -9.038 -10.935  1.00  0.00     0.140 A
HETATM   20  C4  UNL     1     -28.753  -8.640 -11.227  1.00  0.00     0.687 A
ATOM     21  H2  UNL     1     -29.171 -10.382 -12.306  1.00  0.00     0.186 HD
HETATM   22  N1  UNL     1     -29.836  -7.989 -11.125  1.00  0.00    -0.202 N
HETATM   23  N10 UNL     1     -27.585  -8.143 -10.664  1.00  0.00    -0.166 N
ATOM     24  H1  UNL     1     -29.736  -7.113 -10.611  1.00  0.00     0.183 HD
HETATM   25  C12 UNL     1     -25.278  -9.095 -10.637  1.00  0.00     0.135 A
HETATM   26  N8  UNL     1     -24.572 -10.163 -11.063  1.00  0.00    -0.326 N
ATOM     27  H8  UNL     1     -23.579 -10.188 -10.831  1.00  0.00     0.169 HD
BRANCH  22  28
HETATM   28  C3  UNL     1     -31.120  -8.219 -11.566  1.00  0.00     0.105 C
BRANCH  28  29
HETATM   29  C2  UNL     1     -32.071  -8.960 -10.723  1.00  0.00     0.007 C
HETATM   30  C1  UNL     1     -32.072 -10.287 -10.716  1.00  0.00     0.012 C
ENDBRANCH  28  29
ENDBRANCH  22  28
BRANCH  23  31
HETATM   31  C17 UNL     1     -27.447  -6.905  -9.938  1.00  0.00     0.259 C
BRANCH  31  32
HETATM   32  C18 UNL     1     -27.768  -7.071  -8.494  1.00  0.00     0.277 C
HETATM   33  O1  UNL     1     -28.776  -6.498  -8.007  1.00  0.00    -0.263 OA
BRANCH  32  34
HETATM   34  O2  UNL     1     -27.004  -7.837  -7.624  1.00  0.00    -0.325 OA
HETATM   35  C19 UNL     1     -27.349  -9.202  -7.339  1.00  0.00     0.213 C
ENDBRANCH  32  34
ENDBRANCH  31  32
ENDBRANCH  23  31
BRANCH  25  36
HETATM   36  N9  UNL     1     -24.742  -8.177  -9.991  1.00  0.00    -0.370 N
ATOM     37  H9  UNL     1     -25.006  -7.249 -10.320  1.00  0.00     0.161 HD
BRANCH  36  38
HETATM   38  C13 UNL     1     -23.846  -8.144  -8.901  1.00  0.00     0.075 C
HETATM   39  C14 UNL     1     -23.984  -9.394  -8.074  1.00  0.00     0.031 C
HETATM   40  C15 UNL     1     -22.417  -7.862  -9.264  1.00  0.00     0.031 C
ENDBRANCH  36  38
ENDBRANCH  25  36
ENDBRANCH   1  14
TORSDOF 9
ENDMDL