MODEL 2
REMARK VINA RESULT: -5.749907076      1.804      2.780
REMARK  9 active torsions:
REMARK  status: ('A' for Active; 'I' for Inactive)
REMARK    1  A    between atoms: O1_2  and  C2_3
REMARK    2  A    between atoms: C3_4  and  O2_5
REMARK    3  A    between atoms: C5_8  and  C6_9
REMARK    4  A    between atoms: C6_9  and  O3_10
REMARK    5  A    between atoms: C6_9  and  N1_12
REMARK    6  A    between atoms: N1_12  and  N2_14
REMARK    7  A    between atoms: N2_14  and  C7_16
REMARK    8  A    between atoms: C15_29  and  N7_30
REMARK    9  A    between atoms: C18_33  and  O4_34
ROOT
HETATM    1  C7  UNL     1     -27.496  -8.314 -10.535  1.00  0.00     0.095 A
HETATM    2  C8  UNL     1     -26.743  -9.255 -11.268  1.00  0.00     0.096 A
HETATM    3  C9  UNL     1     -27.261  -9.711 -12.500  1.00  0.00     0.104 C
HETATM    4  N3  UNL     1     -27.678 -10.074 -13.532  1.00  0.00    -0.191 NA
HETATM    5  C10 UNL     1     -25.544  -9.733 -10.822  1.00  0.00     0.029 A
HETATM    6  C11 UNL     1     -24.739 -10.711 -11.611  1.00  0.00     0.070 C
HETATM    7  N4  UNL     1     -25.028  -9.323  -9.656  1.00  0.00    -0.346 N
ATOM      8  H4  UNL     1     -24.133  -9.682  -9.326  1.00  0.00     0.167 HD
HETATM    9  C12 UNL     1     -25.716  -8.433  -8.936  1.00  0.00     0.139 A
HETATM   10  N5  UNL     1     -25.171  -8.003  -7.701  1.00  0.00    -0.081 NA
HETATM   11  C13 UNL     1     -26.949  -7.914  -9.353  1.00  0.00     0.115 A
HETATM   12  C14 UNL     1     -27.584  -6.961  -8.511  1.00  0.00     0.105 C
HETATM   13  N6  UNL     1     -28.084  -6.168  -7.799  1.00  0.00    -0.191 NA
ENDROOT
BRANCH   1  14
HETATM   14  N2  UNL     1     -28.586  -7.893 -10.966  1.00  0.00    -0.296 N
ATOM     15  H2  UNL     1     -28.488  -7.402 -11.855  1.00  0.00     0.187 HD
BRANCH  14  16
HETATM   16  N1  UNL     1     -29.889  -7.931 -10.531  1.00  0.00    -0.279 N
ATOM     17  H1  UNL     1     -30.227  -7.208  -9.895  1.00  0.00     0.189 HD
BRANCH  16  18
HETATM   18  C6  UNL     1     -30.750  -8.935 -10.944  1.00  0.00     0.167 C
BRANCH  18  19
HETATM   19  C5  UNL     1     -32.149  -9.050 -11.208  1.00  0.00     0.048 A
HETATM   20  C4  UNL     1     -32.946  -9.772 -10.274  1.00  0.00     0.057 A
HETATM   21  C3  UNL     1     -34.285  -9.966 -10.451  1.00  0.00     0.102 A
HETATM   22  C2  UNL     1     -34.890  -9.445 -11.570  1.00  0.00     0.137 A
HETATM   23  C18 UNL     1     -34.154  -8.725 -12.521  1.00  0.00     0.132 A
HETATM   24  C15 UNL     1     -32.799  -8.552 -12.302  1.00  0.00     0.081 A
BRANCH  21  25
HETATM   25  O2  UNL     1     -35.034 -10.684  -9.502  1.00  0.00    -0.358 OA
ATOM     26  H2  UNL     1     -34.612 -11.313  -8.929  1.00  0.00     0.217 HD
ENDBRANCH  21  25
BRANCH  22  27
HETATM   27  O1  UNL     1     -36.246  -9.637 -11.758  1.00  0.00    -0.351 OA
HETATM   28  C1  UNL     1     -36.798 -10.745 -12.442  1.00  0.00     0.210 C
ENDBRANCH  22  27
BRANCH  23  29
HETATM   29  O4  UNL     1     -34.791  -8.249 -13.590  1.00  0.00    -0.351 OA
HETATM   30  C19 UNL     1     -35.564  -7.175 -13.911  1.00  0.00     0.210 C
ENDBRANCH  23  29
BRANCH  24  31
HETATM   31  N7  UNL     1     -32.135  -7.812 -13.291  1.00  0.00    -0.386 N
HETATM   32  C16 UNL     1     -31.937  -6.369 -13.205  1.00  0.00     0.149 C
HETATM   33  C17 UNL     1     -31.541  -8.482 -14.432  1.00  0.00     0.149 C
ENDBRANCH  24  31
ENDBRANCH  18  19
BRANCH  18  34
HETATM   34  O3  UNL     1     -30.105 -10.071 -11.141  1.00  0.00    -0.344 OA
ATOM     35  H3  UNL     1     -30.529 -10.619 -11.792  1.00  0.00     0.219 HD
ENDBRANCH  18  34
ENDBRANCH  16  18
ENDBRANCH  14  16
ENDBRANCH   1  14
TORSDOF 9
ENDMDL