MODEL 1
REMARK VINA RESULT: -6.054894033      0.000      0.000
REMARK  8 active torsions:
REMARK  status: ('A' for Active; 'I' for Inactive)
REMARK    1  A    between atoms: N1_2  and  C2_4
REMARK    2  A    between atoms: C3_7  and  S1_8
REMARK    3  A    between atoms: S1_8  and  C4_9
REMARK    4  A    between atoms: C4_9  and  C5_10
REMARK    5  A    between atoms: C7_12  and  N3_13
REMARK    6  A    between atoms: C8_18  and  C9_19
REMARK    7  A    between atoms: C13_27  and  N7_28
REMARK    8  A    between atoms: C16_31  and  N8_33
ROOT
HETATM    1  C2  UNL     1     -24.375 -11.579 -11.987  1.00  0.00     0.694 A
HETATM    2  N2  UNL     1     -24.920 -11.360 -13.194  1.00  0.00    -0.169 N
ATOM      3  H2  UNL     1     -24.747 -12.031 -13.942  1.00  0.00     0.186 HD
HETATM    4  C3  UNL     1     -25.685 -10.290 -13.449  1.00  0.00     0.174 A
HETATM    5  N6  UNL     1     -25.892  -9.418 -12.423  1.00  0.00    -0.169 N
ATOM      6  H6  UNL     1     -26.472  -8.598 -12.598  1.00  0.00     0.186 HD
HETATM    7  C13 UNL     1     -25.377  -9.580 -11.200  1.00  0.00     0.696 A
HETATM    8  N9  UNL     1     -24.619 -10.676 -11.016  1.00  0.00    -0.022 N
ATOM      9  H9  UNL     1     -24.208 -10.832 -10.096  1.00  0.00     0.203 HD
ENDROOT
BRANCH   4  10
HETATM   10  S1  UNL     1     -26.418  -9.916 -15.002  1.00  0.00    -0.087 SA
BRANCH  10  11
HETATM   11  C4  UNL     1     -28.179  -9.664 -15.007  1.00  0.00     0.139 C
BRANCH  11  12
HETATM   12  C5  UNL     1     -28.680  -8.694 -14.022  1.00  0.00     0.023 A
HETATM   13  C6  UNL     1     -28.465  -7.367 -14.162  1.00  0.00     0.073 A
HETATM   14  C7  UNL     1     -28.976  -6.491 -13.208  1.00  0.00     0.101 A
HETATM   15  N4  UNL     1     -29.678  -6.948 -12.151  1.00  0.00    -0.332 N
HETATM   16  C8  UNL     1     -29.885  -8.248 -12.016  1.00  0.00     0.087 A
ATOM     17  H4  UNL     1     -30.048  -6.296 -11.459  1.00  0.00     0.168 HD
HETATM   18  N5  UNL     1     -29.398  -9.096 -12.928  1.00  0.00    -0.348 N
ATOM     19  H5  UNL     1     -29.570 -10.093 -12.801  1.00  0.00     0.167 HD
BRANCH  14  20
HETATM   20  N3  UNL     1     -28.764  -5.233 -13.356  1.00  0.00    -0.385 N
ATOM     21  H32 UNL     1     -29.442  -4.647 -13.845  1.00  0.00     0.157 HD
ATOM     22  H31 UNL     1     -27.906  -4.836 -12.975  1.00  0.00     0.157 HD
ENDBRANCH  14  20
BRANCH  16  23
HETATM   23  C9  UNL     1     -30.652  -8.791 -10.867  1.00  0.00     0.053 A
HETATM   24  C10 UNL     1     -32.142  -8.789 -11.154  1.00  0.00     0.012 A
HETATM   25  C11 UNL     1     -32.171 -10.285 -11.120  1.00  0.00     0.002 A
HETATM   26  C12 UNL     1     -30.703 -10.278 -10.758  1.00  0.00     0.012 A
ENDBRANCH  16  23
ENDBRANCH  11  12
ENDBRANCH  10  11
ENDBRANCH   4  10
BRANCH   1  27
HETATM   27  N1  UNL     1     -23.645 -12.609 -11.799  1.00  0.00    -0.230 N
HETATM   28  C1  UNL     1     -23.856 -13.809 -12.541  1.00  0.00     0.165 C
ATOM     29  H1  UNL     1     -22.897 -12.575 -11.105  1.00  0.00     0.177 HD
ENDBRANCH   1  27
BRANCH   7  30
HETATM   30  N7  UNL     1     -25.598  -8.669 -10.143  1.00  0.00    -0.217 N
HETATM   31  C14 UNL     1     -26.596  -7.646 -10.270  1.00  0.00     0.143 C
HETATM   32  C15 UNL     1     -27.522  -7.653  -9.090  1.00  0.00     0.058 C
HETATM   33  C16 UNL     1     -26.840  -7.911  -7.799  1.00  0.00     0.123 C
HETATM   34  C17 UNL     1     -27.432  -9.196  -7.220  1.00  0.00     0.046 C
HETATM   35  C18 UNL     1     -25.353  -7.955  -7.819  1.00  0.00     0.058 C
HETATM   36  C19 UNL     1     -24.799  -8.797  -8.947  1.00  0.00     0.143 C
BRANCH  33  37
HETATM   37  N8  UNL     1     -27.207  -6.869  -6.822  1.00  0.00    -0.071 N
ATOM     38  H83 UNL     1     -26.795  -7.041  -5.905  1.00  0.00     0.275 HD
ATOM     39  H82 UNL     1     -26.754  -5.978  -7.023  1.00  0.00     0.275 HD
ATOM     40  H81 UNL     1     -28.223  -6.781  -6.775  1.00  0.00     0.275 HD
ENDBRANCH  33  37
ENDBRANCH   7  30
TORSDOF 8
ENDMDL