MODEL 1
REMARK VINA RESULT: -6.064792174      0.000      0.000
REMARK  10 active torsions:
REMARK  status: ('A' for Active; 'I' for Inactive)
REMARK       I    between atoms: N1_2  and  C2_4
REMARK    1  A    between atoms: C2_4  and  C3_6
REMARK       I    between atoms: C3_6  and  N2_8
REMARK    2  A    between atoms: N2_8  and  C4_10
REMARK    3  A    between atoms: C4_10  and  C5_11
REMARK       I    between atoms: C5_11  and  N3_13
REMARK    4  A    between atoms: N3_13  and  C6_15
REMARK    5  A    between atoms: C6_15  and  C7_16
REMARK    6  A    between atoms: C7_16  and  N4_17
REMARK       I    between atoms: N4_17  and  C8_19
REMARK    7  A    between atoms: C8_19  and  C9_21
REMARK    8  A    between atoms: C10_22  and  O5_23
REMARK    9  A    between atoms: C12_28  and  O6_29
REMARK   10  A    between atoms: C12_28  and  C13_31
ROOT
HETATM    1  N4  UNL     1      12.530  18.510 -18.098  1.00  0.00    -0.339 N
ATOM      2  H4  UNL     1      12.620  18.893 -17.157  1.00  0.00     0.167 HD
HETATM    3  C8  UNL     1      11.984  17.241 -18.102  1.00  0.00     0.229 C
HETATM    4  O4  UNL     1      11.757  16.550 -19.089  1.00  0.00    -0.273 OA
ENDROOT
BRANCH   1   5
HETATM    5  C7  UNL     1      12.994  19.402 -19.093  1.00  0.00     0.083 C
BRANCH   5   6
HETATM    6  C6  UNL     1      14.229  19.157 -19.839  1.00  0.00     0.167 C
BRANCH   6   7
HETATM    7  N3  UNL     1      14.406  17.844 -20.368  1.00  0.00    -0.355 N
HETATM    8  C5  UNL     1      15.719  17.390 -20.780  1.00  0.00     0.235 C
HETATM    9  O3  UNL     1      16.669  18.189 -20.653  1.00  0.00    -0.272 OA
ATOM     10  H3  UNL     1      13.604  17.221 -20.456  1.00  0.00     0.162 HD
BRANCH   8  11
HETATM   11  C4  UNL     1      15.829  16.017 -21.317  1.00  0.00     0.225 C
BRANCH  11  12
HETATM   12  N2  UNL     1      16.756  15.185 -20.592  1.00  0.00    -0.344 N
HETATM   13  C3  UNL     1      17.941  14.754 -21.230  1.00  0.00     0.309 C
HETATM   14  O2  UNL     1      18.247  15.058 -22.411  1.00  0.00    -0.262 OA
ATOM     15  H2  UNL     1      16.558  14.909 -19.630  1.00  0.00     0.163 HD
BRANCH  13  16
HETATM   16  C2  UNL     1      18.888  13.908 -20.508  1.00  0.00     0.308 C
HETATM   17  N1  UNL     1      19.760  13.007 -21.171  1.00  0.00    -0.357 N
HETATM   18  C1  UNL     1      20.664  12.207 -20.379  1.00  0.00     0.149 C
ATOM     19  H1  UNL     1      19.748  12.925 -22.188  1.00  0.00     0.162 HD
HETATM   20  O1  UNL     1      18.933  13.980 -19.259  1.00  0.00    -0.262 OA
ENDBRANCH  13  16
ENDBRANCH  11  12
ENDBRANCH   8  11
ENDBRANCH   6   7
ENDBRANCH   5   6
ENDBRANCH   1   5
BRANCH   3  21
HETATM   21  C9  UNL     1      11.627  16.636 -16.749  1.00  0.00     0.123 C
HETATM   22  C10 UNL     1      10.388  17.217 -16.141  1.00  0.00     0.148 C
HETATM   23  C11 UNL     1       9.590  16.106 -16.772  1.00  0.00     0.103 C
HETATM   24  S1  UNL     1       8.479  15.236 -15.641  1.00  0.00    -0.086 SA
HETATM   25  C15 UNL     1      10.877  15.357 -17.001  1.00  0.00     0.080 C
HETATM   26  S2  UNL     1       9.077  15.500 -13.616  1.00  0.00    -0.055 SA
HETATM   27  C12 UNL     1      10.369  14.291 -13.255  1.00  0.00     0.150 C
HETATM   28  C14 UNL     1      11.538  14.568 -14.179  1.00  0.00     0.127 C
HETATM   29  S3  UNL     1      11.148  14.025 -15.844  1.00  0.00    -0.158 SA
BRANCH  22  30
HETATM   30  O5  UNL     1      10.035  18.503 -16.533  1.00  0.00    -0.393 OA
ATOM     31  H5  UNL     1       9.201  18.836 -16.221  1.00  0.00     0.210 HD
ENDBRANCH  22  30
BRANCH  27  32
HETATM   32  O6  UNL     1      10.732  14.369 -11.919  1.00  0.00    -0.375 OA
ATOM     33  H6  UNL     1      11.394  13.717 -11.724  1.00  0.00     0.211 HD
ENDBRANCH  27  32
BRANCH  27  34
HETATM   34  C13 UNL     1       9.889  12.874 -13.508  1.00  0.00     0.273 C
HETATM   35  F1  UNL     1      10.859  11.984 -13.042  1.00  0.00    -0.251 F
ENDBRANCH  27  34
ENDBRANCH   3  21
TORSDOF 10
ENDMDL