MODEL 4
REMARK VINA RESULT: -5.720528691      3.159      4.380
REMARK  11 active torsions:
REMARK  status: ('A' for Active; 'I' for Inactive)
REMARK    1  A    between atoms: C4_6  and  C5_7
REMARK       I    between atoms: C5_7  and  N2_9
REMARK    2  A    between atoms: N2_9  and  N3_11
REMARK       I    between atoms: N3_11  and  C6_13
REMARK    3  A    between atoms: C6_13  and  C7_15
REMARK    4  A    between atoms: C7_15  and  C11_32
REMARK    5  A    between atoms: N4_16  and  N5_18
REMARK    6  A    between atoms: N5_18  and  C8_20
REMARK    7  A    between atoms: C8_20  and  N6_22
REMARK    8  A    between atoms: N6_22  and  N7_24
REMARK       I    between atoms: N7_24  and  C9_25
REMARK    9  A    between atoms: C9_25  and  C10_27
REMARK   10  A    between atoms: C10_27  and  O5_28
REMARK   11  A    between atoms: O5_28  and  N8_29
ROOT
HETATM    1  C7  UNL     1       9.181  17.240 -16.643  1.00  0.00     0.134 C
HETATM    2  N4  UNL     1       9.118  16.366 -15.799  1.00  0.00    -0.294 N
ATOM      3  H4  UNL     1       9.812  15.644 -15.993  1.00  0.00     0.187 HD
ENDROOT
BRANCH   1   4
HETATM    4  C6  UNL     1      10.150  17.141 -17.759  1.00  0.00     0.287 C
HETATM    5  N3  UNL     1      11.435  17.546 -17.521  1.00  0.00    -0.262 N
ATOM      6  H3  UNL     1      11.573  18.017 -16.627  1.00  0.00     0.190 HD
HETATM    7  O3  UNL     1       9.718  16.659 -18.847  1.00  0.00    -0.264 OA
BRANCH   5   8
HETATM    8  N2  UNL     1      12.578  17.423 -18.289  1.00  0.00    -0.262 N
HETATM    9  C5  UNL     1      12.808  18.021 -19.548  1.00  0.00     0.286 C
HETATM   10  O2  UNL     1      12.021  18.776 -20.076  1.00  0.00    -0.264 OA
ATOM     11  H2  UNL     1      13.328  16.845 -17.910  1.00  0.00     0.190 HD
BRANCH   9  12
HETATM   12  C4  UNL     1      14.074  17.680 -20.245  1.00  0.00     0.111 A
HETATM   13  C3  UNL     1      14.215  16.351 -20.692  1.00  0.00     0.110 A
HETATM   14  C2  UNL     1      15.411  16.000 -21.262  1.00  0.00     0.253 A
HETATM   15  N1  UNL     1      16.418  16.870 -21.402  1.00  0.00    -0.271 N
HETATM   16  O1  UNL     1      15.634  14.805 -21.700  1.00  0.00    -0.268 OA
HETATM   17  C1  UNL     1      17.676  16.424 -22.040  1.00  0.00     0.164 C
HETATM   18  C14 UNL     1      16.264  18.136 -20.978  1.00  0.00     0.329 A
HETATM   19  N9  UNL     1      15.083  18.512 -20.399  1.00  0.00    -0.303 N
HETATM   20  O8  UNL     1      17.179  18.942 -21.124  1.00  0.00    -0.246 OA
ATOM     21  H9  UNL     1      14.981  19.474 -20.075  1.00  0.00     0.171 HD
ENDBRANCH   9  12
ENDBRANCH   5   8
ENDBRANCH   1   4
BRANCH   1  22
HETATM   22  C11 UNL     1       8.576  18.610 -16.541  1.00  0.00     0.145 C
HETATM   23  C12 UNL     1       8.821  19.092 -15.101  1.00  0.00     0.058 C
HETATM   24  C13 UNL     1       7.020  18.466 -16.571  1.00  0.00     0.058 C
HETATM   25  F1  UNL     1       8.968  19.434 -17.461  1.00  0.00    -0.237 F
ENDBRANCH   1  22
BRANCH   2  26
HETATM   26  N5  UNL     1       8.426  16.051 -14.696  1.00  0.00    -0.274 N
ATOM     27  H5  UNL     1       8.457  16.607 -13.841  1.00  0.00     0.189 HD
BRANCH  26  28
HETATM   28  C8  UNL     1       7.624  14.842 -14.832  1.00  0.00     0.216 C
HETATM   29  S1  UNL     1       6.034  15.027 -15.211  1.00  0.00    -0.037 SA
BRANCH  28  30
HETATM   30  N6  UNL     1       8.183  13.561 -14.752  1.00  0.00    -0.204 N
ATOM     31  H6  UNL     1       7.765  12.798 -15.285  1.00  0.00     0.204 HD
BRANCH  30  32
HETATM   32  N7  UNL     1       9.273  13.316 -13.975  1.00  0.00    -0.282 NA
HETATM   33  C9  UNL     1      10.338  13.055 -13.223  1.00  0.00     0.338 C
HETATM   34  O4  UNL     1      11.030  12.108 -12.936  1.00  0.00    -0.253 OA
BRANCH  33  35
HETATM   35  C10 UNL     1      10.900  14.385 -12.504  1.00  0.00     0.329 C
BRANCH  35  36
HETATM   36  O5  UNL     1      11.325  15.135 -13.598  1.00  0.00    -0.211 OA
BRANCH  36  37
HETATM   37  N8  UNL     1      12.312  15.126 -14.490  1.00  0.00     0.005 N
HETATM   38  O6  UNL     1      12.185  15.599 -15.648  1.00  0.00    -0.511 OA
HETATM   39  O7  UNL     1      13.542  14.640 -14.062  1.00  0.00    -0.511 OA
ENDBRANCH  36  37
ENDBRANCH  35  36
ENDBRANCH  33  35
ENDBRANCH  30  32
ENDBRANCH  28  30
ENDBRANCH  26  28
ENDBRANCH   2  26
TORSDOF 11
ENDMDL