MODEL 5
REMARK VINA RESULT: -5.979418521      3.514      6.917
REMARK  11 active torsions:
REMARK  status: ('A' for Active; 'I' for Inactive)
REMARK    1  A    between atoms: N1_2  and  N2_4
REMARK    2  A    between atoms: N2_4  and  S1_6
REMARK    3  A    between atoms: S1_6  and  C3_9
REMARK    4  A    between atoms: C5_11  and  N3_12
REMARK       I    between atoms: N3_12  and  C6_14
REMARK    5  A    between atoms: C6_14  and  C7_16
REMARK    6  A    between atoms: C7_16  and  O4_17
REMARK    7  A    between atoms: N4_19  and  N5_21
REMARK    8  A    between atoms: C8_24  and  O5_25
REMARK    9  A    between atoms: N6_27  and  C9_28
REMARK   10  A    between atoms: C9_28  and  C10_29
REMARK   11  A    between atoms: C10_29  and  N7_31
ROOT
HETATM    1  C3  UNL     1       6.098  15.709 -15.191  1.00  0.00     0.099 A
HETATM    2  C4  UNL     1       7.311  15.120 -14.799  1.00  0.00     0.060 A
HETATM    3  C5  UNL     1       8.507  15.795 -14.857  1.00  0.00     0.088 A
HETATM    4  C8  UNL     1       8.496  17.113 -15.325  1.00  0.00     0.170 A
HETATM    5  N6  UNL     1       7.347  17.678 -15.699  1.00  0.00    -0.328 N
HETATM    6  C15 UNL     1       6.171  17.006 -15.639  1.00  0.00     0.119 A
ENDROOT
BRANCH   5   7
HETATM    7  C9  UNL     1       7.347  19.044 -16.181  1.00  0.00     0.200 C
BRANCH   7   8
HETATM    8  C10 UNL     1       7.387  19.119 -17.652  1.00  0.00     0.097 C
HETATM    9  S2  UNL     1       6.472  20.224 -18.421  1.00  0.00    -0.064 SA
BRANCH   8  10
HETATM   10  N7  UNL     1       8.231  18.214 -18.347  1.00  0.00    -0.335 N
HETATM   11  C11 UNL     1       9.449  18.511 -18.635  1.00  0.00     0.111 A
HETATM   12  C12 UNL     1       9.928  19.744 -18.254  1.00  0.00     0.110 A
HETATM   13  N9  UNL     1      10.278  17.698 -19.283  1.00  0.00    -0.338 N
HETATM   14  C13 UNL     1      11.234  20.139 -18.529  1.00  0.00     0.192 A
HETATM   15  F1  UNL     1      11.690  21.344 -18.153  1.00  0.00    -0.186 F
HETATM   16  N8  UNL     1      12.019  19.271 -19.187  1.00  0.00    -0.329 N
HETATM   17  C14 UNL     1      11.554  18.069 -19.560  1.00  0.00     0.184 A
ATOM     18  H8  UNL     1      12.980  19.529 -19.407  1.00  0.00     0.169 HD
ATOM     19  H9  UNL     1       9.949  16.778 -19.578  1.00  0.00     0.168 HD
ATOM     20  H7  UNL     1       7.862  17.304 -18.625  1.00  0.00     0.168 HD
ENDBRANCH   8  10
ENDBRANCH   7   8
ENDBRANCH   5   7
BRANCH   4  21
HETATM   21  O5  UNL     1       9.671  17.815 -15.396  1.00  0.00    -0.344 OA
ATOM     22  H5  UNL     1       9.671  18.693 -15.758  1.00  0.00     0.219 HD
ENDBRANCH   4  21
BRANCH   3  23
HETATM   23  N3  UNL     1       9.731  15.240 -14.477  1.00  0.00    -0.316 N
HETATM   24  C6  UNL     1      10.125  14.813 -13.200  1.00  0.00     0.298 C
HETATM   25  O3  UNL     1       9.447  14.849 -12.154  1.00  0.00    -0.263 OA
ATOM     26  H3  UNL     1      10.423  15.132 -15.219  1.00  0.00     0.169 HD
BRANCH  24  27
HETATM   27  C7  UNL     1      11.476  14.257 -13.039  1.00  0.00     0.224 C
HETATM   28  N4  UNL     1      12.527  14.977 -13.277  1.00  0.00    -0.282 N
ATOM     29  H4  UNL     1      12.405  15.943 -13.581  1.00  0.00     0.188 HD
BRANCH  27  30
HETATM   30  O4  UNL     1      11.655  12.963 -12.632  1.00  0.00    -0.341 OA
ATOM     31  H4  UNL     1      12.499  12.667 -12.313  1.00  0.00     0.219 HD
ENDBRANCH  27  30
BRANCH  28  32
HETATM   32  N5  UNL     1      13.802  14.481 -13.135  1.00  0.00    -0.343 N
ATOM     33  H52 UNL     1      13.911  13.562 -12.706  1.00  0.00     0.176 HD
ATOM     34  H51 UNL     1      14.624  15.000 -13.443  1.00  0.00     0.176 HD
ENDBRANCH  28  32
ENDBRANCH  24  27
ENDBRANCH   3  23
BRANCH   1  35
HETATM   35  S1  UNL     1       4.593  14.817 -15.102  1.00  0.00     0.277 S
HETATM   36  O1  UNL     1       3.738  15.490 -14.075  1.00  0.00    -0.199 OA
HETATM   37  O2  UNL     1       3.920  14.941 -16.447  1.00  0.00    -0.199 OA
BRANCH  35  38
HETATM   38  N2  UNL     1       4.910  13.173 -14.723  1.00  0.00    -0.226 N
ATOM     39  H2  UNL     1       5.502  12.893 -13.941  1.00  0.00     0.200 HD
BRANCH  38  40
HETATM   40  N1  UNL     1       4.306  12.273 -15.548  1.00  0.00    -0.327 N
HETATM   41  C1  UNL     1       3.123  11.654 -15.060  1.00  0.00     0.171 C
HETATM   42  C2  UNL     1       5.177  11.412 -16.282  1.00  0.00     0.171 C
ENDBRANCH  38  40
ENDBRANCH  35  38
ENDBRANCH   1  35
TORSDOF 11
ENDMDL