MODEL 4
REMARK VINA RESULT: -5.752874469      2.450      3.509
REMARK  10 active torsions:
REMARK  status: ('A' for Active; 'I' for Inactive)
REMARK    1  A    between atoms: C4_5  and  O1_6
REMARK    2  A    between atoms: O1_6  and  C5_7
REMARK    3  A    between atoms: C5_7  and  C6_9
REMARK    4  A    between atoms: C12_19  and  N1_20
REMARK       I    between atoms: N1_20  and  C13_22
REMARK    5  A    between atoms: C13_22  and  C14_24
REMARK    6  A    between atoms: C14_24  and  N2_25
REMARK    7  A    between atoms: C14_24  and  C16_30
REMARK    8  A    between atoms: C16_30  and  O9_32
REMARK    9  A    between atoms: O9_32  and  C17_33
REMARK       I    between atoms: C17_33  and  N5_35
REMARK   10  A    between atoms: N5_35  and  N6_37
ROOT
HETATM    1  N1  UNL     1       9.122  15.512 -16.740  1.00  0.00    -0.344 N
ATOM      2  H1  UNL     1       9.224  15.821 -15.773  1.00  0.00     0.163 HD
HETATM    3  C13 UNL     1       8.646  14.219 -16.962  1.00  0.00     0.251 C
HETATM    4  O7  UNL     1       8.506  13.800 -18.135  1.00  0.00    -0.271 OA
ENDROOT
BRANCH   1   5
HETATM    5  C12 UNL     1       9.482  16.446 -17.788  1.00  0.00     0.198 C
HETATM    6  C7  UNL     1       8.895  17.779 -17.624  1.00  0.00     0.044 C
HETATM    7  C4  UNL     1       7.459  18.037 -17.737  1.00  0.00     0.149 C
HETATM    8  C8  UNL     1       9.613  18.860 -18.451  1.00  0.00     0.028 C
HETATM    9  C10 UNL     1       9.606  18.339 -16.439  1.00  0.00     0.152 C
HETATM   10  C3  UNL     1       7.092  19.382 -17.157  1.00  0.00     0.077 C
HETATM   11  C2  UNL     1       8.248  20.289 -16.892  1.00  0.00     0.108 C
HETATM   12  C1  UNL     1       8.307  20.728 -15.421  1.00  0.00     0.052 C
HETATM   13  F1  UNL     1       8.179  21.481 -17.620  1.00  0.00    -0.243 F
HETATM   14  C9  UNL     1       9.582  19.674 -17.199  1.00  0.00     0.056 C
HETATM   15  O5  UNL     1      10.877  17.717 -16.493  1.00  0.00    -0.313 OA
HETATM   16  C11 UNL     1      10.935  16.774 -17.507  1.00  0.00     0.283 C
HETATM   17  O6  UNL     1      11.883  16.254 -18.109  1.00  0.00    -0.263 OA
BRANCH   7  18
HETATM   18  O1  UNL     1       6.600  17.006 -17.403  1.00  0.00    -0.306 OA
BRANCH  18  19
HETATM   19  C5  UNL     1       5.738  16.965 -16.348  1.00  0.00     0.360 C
HETATM   20  O2  UNL     1       4.532  16.752 -16.690  1.00  0.00    -0.252 OA
BRANCH  19  21
HETATM   21  C6  UNL     1       6.092  17.135 -14.965  1.00  0.00     0.277 C
HETATM   22  O3  UNL     1       7.135  16.601 -14.516  1.00  0.00    -0.640 OA
HETATM   23  O4  UNL     1       5.319  17.877 -14.090  1.00  0.00    -0.640 OA
ENDBRANCH  19  21
ENDBRANCH  18  19
ENDBRANCH   7  18
ENDBRANCH   1   5
BRANCH   3  24
HETATM   24  C14 UNL     1       8.308  13.350 -15.811  1.00  0.00     0.277 C
BRANCH  24  25
HETATM   25  N2  UNL     1       7.094  13.762 -15.151  1.00  0.00    -0.345 N
HETATM   26  C15 UNL     1       5.926  13.349 -15.482  1.00  0.00     0.198 C
HETATM   27  N3  UNL     1       4.823  13.837 -14.748  1.00  0.00    -0.067 NA
HETATM   28  N4  UNL     1       5.702  12.435 -16.543  1.00  0.00    -0.067 NA
ATOM     29  H2  UNL     1       7.169  14.420 -14.375  1.00  0.00     0.163 HD
ENDBRANCH  24  25
BRANCH  24  30
HETATM   30  C16 UNL     1       9.471  13.406 -14.857  1.00  0.00     0.299 C
HETATM   31  O8  UNL     1      10.320  12.479 -14.795  1.00  0.00    -0.262 OA
BRANCH  30  32
HETATM   32  O9  UNL     1       9.644  14.482 -14.012  1.00  0.00    -0.224 OA
BRANCH  32  33
HETATM   33  C17 UNL     1      10.748  14.633 -13.188  1.00  0.00     0.386 C
HETATM   34  O10 UNL     1      10.558  14.655 -11.948  1.00  0.00    -0.236 OA
HETATM   35  N5  UNL     1      12.068  14.762 -13.692  1.00  0.00    -0.252 N
ATOM     36  H5  UNL     1      12.233  14.745 -14.699  1.00  0.00     0.191 HD
BRANCH  35  37
HETATM   37  N6  UNL     1      13.136  14.911 -12.813  1.00  0.00    -0.341 N
ATOM     38  H62 UNL     1      13.134  14.386 -11.938  1.00  0.00     0.177 HD
ATOM     39  H61 UNL     1      13.904  15.540 -13.047  1.00  0.00     0.177 HD
ENDBRANCH  35  37
ENDBRANCH  32  33
ENDBRANCH  30  32
ENDBRANCH  24  30
ENDBRANCH   3  24
TORSDOF 10
ENDMDL