MODEL 2
REMARK VINA RESULT: -6.626448471      1.188      1.310
REMARK  8 active torsions:
REMARK  status: ('A' for Active; 'I' for Inactive)
REMARK    1  A    between atoms: N1_1  and  C1_4
REMARK       I    between atoms: N3_8  and  C3_10
REMARK    2  A    between atoms: C3_10  and  C4_12
REMARK    3  A    between atoms: C5_15  and  S1_16
REMARK    4  A    between atoms: S1_16  and  N5_17
REMARK    5  A    between atoms: C6_27  and  S3_28
REMARK    6  A    between atoms: S3_28  and  C7_29
REMARK    7  A    between atoms: C7_29  and  C8_30
REMARK       I    between atoms: C8_30  and  N8_32
REMARK    8  A    between atoms: C9_34  and  C10_35
ROOT
HETATM    1  C1  UNL     1      13.109  18.191 -19.665  1.00  0.00     0.124 A
HETATM    2  N2  UNL     1      13.603  17.111 -20.260  1.00  0.00    -0.322 N
ATOM      3  H2  UNL     1      14.424  17.246 -20.850  1.00  0.00     0.169 HD
HETATM    4  C2  UNL     1      13.128  15.857 -20.162  1.00  0.00     0.154 A
HETATM    5  N3  UNL     1      13.688  14.857 -20.790  1.00  0.00    -0.300 N
ATOM      6  H3  UNL     1      13.311  13.914 -20.700  1.00  0.00     0.171 HD
HETATM    7  C3  UNL     1      14.825  15.101 -21.599  1.00  0.00     0.293 C
HETATM    8  O1  UNL     1      14.627  15.568 -22.756  1.00  0.00    -0.264 OA
HETATM    9  S2  UNL     1      11.758  15.689 -19.165  1.00  0.00    -0.045 SA
HETATM   10  C6  UNL     1      11.241  17.150 -18.474  1.00  0.00     0.070 A
HETATM   11  C11 UNL     1      12.019  18.249 -18.833  1.00  0.00     0.101 A
HETATM   12 CL1  UNL     1      11.510  19.795 -18.125  1.00  0.00    -0.078 Cl
ENDROOT
BRANCH   1  13
HETATM   13  N1  UNL     1      13.699  19.346 -19.866  1.00  0.00    -0.384 N
ATOM     14  H12 UNL     1      13.391  19.836 -20.707  1.00  0.00     0.157 HD
ATOM     15  H11 UNL     1      14.397  19.663 -19.192  1.00  0.00     0.157 HD
ENDBRANCH   1  13
BRANCH   7  16
HETATM   16  C4  UNL     1      16.174  14.820 -21.114  1.00  0.00     0.192 A
HETATM   17  N4  UNL     1      17.083  13.971 -21.639  1.00  0.00    -0.311 N
HETATM   18  C5  UNL     1      18.203  13.996 -20.903  1.00  0.00     0.240 A
ATOM     19  H4  UNL     1      16.939  13.398 -22.471  1.00  0.00     0.170 HD
HETATM   20  N6  UNL     1      17.999  14.868 -19.904  1.00  0.00    -0.273 N
HETATM   21  N7  UNL     1      16.782  15.360 -20.034  1.00  0.00    -0.279 N
ATOM     22  H6  UNL     1      18.667  15.109 -19.172  1.00  0.00     0.189 HD
ATOM     23  H7  UNL     1      16.360  16.047 -19.410  1.00  0.00     0.189 HD
BRANCH  18  24
HETATM   24  S1  UNL     1      19.664  13.072 -21.174  1.00  0.00     0.290 S
HETATM   25  O2  UNL     1      20.286  13.336 -22.501  1.00  0.00    -0.198 OA
HETATM   26  O3  UNL     1      19.285  11.606 -21.142  1.00  0.00    -0.198 OA
BRANCH  24  27
HETATM   27  N5  UNL     1      20.801  13.316 -19.890  1.00  0.00    -0.322 N
ATOM     28  H52 UNL     1      21.741  13.686 -20.030  1.00  0.00     0.169 HD
ATOM     29  H51 UNL     1      20.403  13.042 -18.991  1.00  0.00     0.169 HD
ENDBRANCH  24  27
ENDBRANCH  18  24
ENDBRANCH   7  16
BRANCH  10  30
HETATM   30  S3  UNL     1       9.837  17.348 -17.370  1.00  0.00    -0.111 SA
BRANCH  30  31
HETATM   31  C7  UNL     1      10.315  17.172 -15.650  1.00  0.00     0.183 C
BRANCH  31  32
HETATM   32  C8  UNL     1      10.739  15.786 -15.305  1.00  0.00     0.231 C
HETATM   33  O4  UNL     1      10.021  14.866 -15.748  1.00  0.00    -0.272 OA
HETATM   34  N8  UNL     1      11.859  15.595 -14.548  1.00  0.00    -0.330 N
HETATM   35  C9  UNL     1      12.137  14.961 -13.534  1.00  0.00     0.175 C
ATOM     36  H8  UNL     1      12.662  16.105 -14.915  1.00  0.00     0.168 HD
BRANCH  35  37
HETATM   37  C10 UNL     1      11.240  14.141 -12.769  1.00  0.00     0.214 C
HETATM   38  O5  UNL     1      10.332  14.613 -12.063  1.00  0.00    -0.643 OA
HETATM   39  O6  UNL     1      11.371  12.738 -12.805  1.00  0.00    -0.643 OA
ENDBRANCH  35  37
ENDBRANCH  31  32
ENDBRANCH  30  31
ENDBRANCH  10  30
TORSDOF 8
ENDMDL