MODEL 4
REMARK VINA RESULT: -5.566309612      5.659      8.830
REMARK  8 active torsions:
REMARK  status: ('A' for Active; 'I' for Inactive)
REMARK    1  A    between atoms: C2_6  and  N4_7
REMARK    2  A    between atoms: C3_11  and  N6_12
REMARK    3  A    between atoms: N6_12  and  N7_14
REMARK       I    between atoms: N7_14  and  C4_16
REMARK       I    between atoms: C4_16  and  N11_30
REMARK    4  A    between atoms: N8_17  and  N9_19
REMARK    5  A    between atoms: N9_19  and  C5_21
REMARK    6  A    between atoms: C5_21  and  C6_22
REMARK    7  A    between atoms: C6_22  and  N10_23
REMARK       I    between atoms: N10_23  and  C7_25
REMARK    8  A    between atoms: C7_25  and  C8_27
ROOT
HETATM    1  N1  UNL     1       9.352  11.465 -12.490  1.00  0.00    -0.169 NA
HETATM    2  C1  UNL     1      10.001  12.310 -12.924  1.00  0.00     0.221 C
HETATM    3  N2  UNL     1      10.784  13.349 -13.476  1.00  0.00     0.002 N
HETATM    4  N3  UNL     1      11.822  13.966 -12.935  1.00  0.00    -0.100 N
ATOM      5  H3  UNL     1      12.215  13.770 -12.014  1.00  0.00     0.207 HD
HETATM    6  C2  UNL     1      12.274  14.888 -13.793  1.00  0.00     0.728 A
HETATM    7  N5  UNL     1      11.496  14.854 -14.914  1.00  0.00     0.206 N
HETATM    8  C3  UNL     1      11.272  15.378 -16.132  1.00  0.00     0.748 A
HETATM    9  N12 UNL     1      10.217  14.724 -16.635  1.00  0.00    -0.115 N
ATOM     10  H12 UNL     1       9.808  14.902 -17.551  1.00  0.00     0.206 HD
HETATM   11  N13 UNL     1       9.778  13.816 -15.781  1.00  0.00    -0.114 N
ATOM     12  H13 UNL     1       8.990  13.183 -15.917  1.00  0.00     0.206 HD
HETATM   13  C14 UNL     1      10.579  13.890 -14.691  1.00  0.00     0.765 A
ENDROOT
BRANCH   6  14
HETATM   14  N4  UNL     1      13.269  15.698 -13.640  1.00  0.00    -0.232 N
ATOM     15  H42 UNL     1      13.296  16.429 -12.929  1.00  0.00     0.174 HD
ATOM     16  H41 UNL     1      14.137  15.735 -14.174  1.00  0.00     0.174 HD
ENDBRANCH   6  14
BRANCH   8  17
HETATM   17  N6  UNL     1      11.980  16.327 -16.646  1.00  0.00    -0.115 N
ATOM     18  H6  UNL     1      12.825  16.647 -16.171  1.00  0.00     0.206 HD
BRANCH  17  19
HETATM   19  N7  UNL     1      11.591  16.909 -17.844  1.00  0.00    -0.116 N
HETATM   20  C4  UNL     1      12.470  17.197 -18.909  1.00  0.00     0.709 C
HETATM   21  N8  UNL     1      13.241  16.310 -19.374  1.00  0.00    -0.135 N
HETATM   22  N11 UNL     1      12.469  18.507 -19.448  1.00  0.00    -0.211 N
ATOM     23  H8  UNL     1      13.203  15.383 -18.951  1.00  0.00     0.205 HD
HETATM   24  C10 UNL     1      11.580  18.815 -20.528  1.00  0.00     0.167 C
HETATM   25  C13 UNL     1      13.371  19.487 -18.881  1.00  0.00     0.167 C
HETATM   26  C11 UNL     1      11.201  20.278 -20.571  1.00  0.00     0.188 C
HETATM   27  O2  UNL     1      12.254  21.117 -20.262  1.00  0.00    -0.388 OA
HETATM   28  C12 UNL     1      12.786  20.875 -19.012  1.00  0.00     0.188 C
ATOM     29  H7  UNL     1      10.606  17.145 -17.962  1.00  0.00     0.206 HD
BRANCH  21  30
HETATM   30  N9  UNL     1      14.140  16.507 -20.422  1.00  0.00    -0.321 N
ATOM     31  H9  UNL     1      13.964  17.276 -21.070  1.00  0.00     0.180 HD
BRANCH  30  32
HETATM   32  C5  UNL     1      15.289  15.694 -20.639  1.00  0.00     0.159 C
BRANCH  32  33
HETATM   33  C6  UNL     1      15.310  14.976 -21.944  1.00  0.00     0.144 C
BRANCH  33  34
HETATM   34  N10 UNL     1      15.116  13.545 -21.665  1.00  0.00    -0.356 N
HETATM   35  C7  UNL     1      13.816  13.029 -21.426  1.00  0.00     0.241 C
HETATM   36  O1  UNL     1      12.825  13.795 -21.453  1.00  0.00    -0.269 OA
ATOM     37  H10 UNL     1      15.921  12.920 -21.642  1.00  0.00     0.162 HD
BRANCH  35  38
HETATM   38  C8  UNL     1      13.654  11.619 -21.155  1.00  0.00     0.081 C
HETATM   39  C9  UNL     1      12.900  10.882 -21.932  1.00  0.00     0.061 C
HETATM   40 BR1  UNL     1      12.637   9.018 -21.639  1.00  0.00    -0.063 Br
ENDBRANCH  35  38
ENDBRANCH  33  34
ENDBRANCH  32  33
ENDBRANCH  30  32
ENDBRANCH  21  30
ENDBRANCH  17  19
ENDBRANCH   8  17
TORSDOF 8
ENDMDL