MODEL 3
REMARK VINA RESULT: -6.448279296      1.329      1.848
REMARK  8 active torsions:
REMARK  status: ('A' for Active; 'I' for Inactive)
REMARK    1  A    between atoms: N1_1  and  C1_4
REMARK    2  A    between atoms: C2_7  and  C3_8
REMARK    3  A    between atoms: C4_13  and  N5_14
REMARK    4  A    between atoms: C5_21  and  N9_22
REMARK       I    between atoms: N9_22  and  C6_24
REMARK       I    between atoms: C6_24  and  N10_26
REMARK    5  A    between atoms: N10_26  and  C7_28
REMARK    6  A    between atoms: C7_28  and  C8_29
REMARK    7  A    between atoms: C8_29  and  N11_30
REMARK       I    between atoms: N11_30  and  C9_32
REMARK    8  A    between atoms: C9_32  and  C10_34
ROOT
HETATM    1  N5  UNL     1      10.691  15.851 -16.274  1.00  0.00     0.108 N
HETATM    2  N6  UNL     1      11.080  15.691 -17.528  1.00  0.00    -0.191 N
ATOM      3  H6  UNL     1      11.793  15.033 -17.841  1.00  0.00     0.211 HD
HETATM    4  N7  UNL     1      10.408  16.509 -18.313  1.00  0.00    -0.212 N
ATOM      5  H7  UNL     1      10.517  16.586 -19.325  1.00  0.00     0.210 HD
HETATM    6  N8  UNL     1       9.570  17.211 -17.575  1.00  0.00    -0.114 N
ATOM      7  H8  UNL     1       8.920  17.922 -17.909  1.00  0.00     0.207 HD
HETATM    8  C5  UNL     1       9.732  16.818 -16.308  1.00  0.00     0.739 A
ENDROOT
BRANCH   8   9
HETATM    9  N9  UNL     1       9.131  17.232 -15.254  1.00  0.00    -0.138 N
HETATM   10  C6  UNL     1       7.948  16.649 -14.760  1.00  0.00     0.334 C
HETATM   11  O2  UNL     1       7.808  16.261 -13.572  1.00  0.00    -0.247 OA
HETATM   12  N10 UNL     1       6.840  16.483 -15.648  1.00  0.00    -0.341 N
ATOM     13  H10 UNL     1       6.954  16.792 -16.613  1.00  0.00     0.164 HD
ATOM     14  H9  UNL     1       9.530  18.023 -14.747  1.00  0.00     0.189 HD
BRANCH  12  15
HETATM   15  C7  UNL     1       5.596  15.920 -15.279  1.00  0.00     0.144 C
BRANCH  15  16
HETATM   16  C8  UNL     1       4.708  15.558 -16.413  1.00  0.00     0.142 C
BRANCH  16  17
HETATM   17  N11 UNL     1       4.705  14.216 -16.875  1.00  0.00    -0.355 N
HETATM   18  C9  UNL     1       5.703  13.296 -17.132  1.00  0.00     0.254 C
HETATM   19  O3  UNL     1       6.917  13.561 -17.010  1.00  0.00    -0.268 OA
ATOM     20  H11 UNL     1       3.769  13.853 -17.054  1.00  0.00     0.162 HD
BRANCH  18  21
HETATM   21  C10 UNL     1       5.431  11.925 -17.575  1.00  0.00     0.066 A
HETATM   22  C11 UNL     1       5.210  10.988 -16.563  1.00  0.00     0.021 A
HETATM   23  C12 UNL     1       5.008   9.660 -16.880  1.00  0.00     0.018 A
HETATM   24  C13 UNL     1       5.036   9.332 -18.212  1.00  0.00     0.089 A
HETATM   25  N12 UNL     1       5.246  10.240 -19.151  1.00  0.00    -0.359 N
HETATM   26  C14 UNL     1       5.450  11.563 -18.878  1.00  0.00     0.095 A
ATOM     27  H12 UNL     1       5.257   9.938 -20.125  1.00  0.00     0.166 HD
HETATM   28 BR1  UNL     1       5.658  12.816 -20.279  1.00  0.00    -0.030 Br
ENDBRANCH  18  21
ENDBRANCH  16  17
ENDBRANCH  15  16
ENDBRANCH  12  15
ENDBRANCH   8   9
BRANCH   1  29
HETATM   29  C4  UNL     1      11.136  15.169 -15.112  1.00  0.00     0.736 A
HETATM   30  N4  UNL     1      10.482  14.056 -14.702  1.00  0.00    -0.168 N
HETATM   31  C2  UNL     1      10.865  13.366 -13.590  1.00  0.00     0.201 A
ATOM     32  H4  UNL     1       9.681  13.725 -15.239  1.00  0.00     0.186 HD
HETATM   33  N2  UNL     1      11.921  13.799 -12.881  1.00  0.00    -0.171 N
HETATM   34  C1  UNL     1      12.581  14.896 -13.270  1.00  0.00     0.692 A
ATOM     35  H2  UNL     1      12.218  13.292 -12.047  1.00  0.00     0.186 HD
HETATM   36  N13 UNL     1      12.184  15.570 -14.380  1.00  0.00    -0.020 N
ATOM     37  H13 UNL     1      12.697  16.405 -14.663  1.00  0.00     0.203 HD
BRANCH  31  38
HETATM   38  C3  UNL     1      10.162  12.181 -13.152  1.00  0.00     0.299 C
HETATM   39  N3  UNL     1      10.159  11.031 -13.968  1.00  0.00    -0.054 NA
HETATM   40  O1  UNL     1       9.559  12.168 -12.061  1.00  0.00    -0.268 OA
ENDBRANCH  31  38
BRANCH  34  41
HETATM   41  N1  UNL     1      13.579  15.295 -12.589  1.00  0.00    -0.234 N
ATOM     42  H12 UNL     1      13.458  15.631 -11.633  1.00  0.00     0.174 HD
ATOM     43  H11 UNL     1      14.508  15.276 -13.009  1.00  0.00     0.174 HD
ENDBRANCH  34  41
ENDBRANCH   1  29
TORSDOF 8
ENDMDL