MODEL 5
REMARK VINA RESULT: -5.615851287      1.780      2.156
REMARK  8 active torsions:
REMARK  status: ('A' for Active; 'I' for Inactive)
REMARK    1  A    between atoms: O1_2  and  C2_3
REMARK    2  A    between atoms: C2_3  and  C3_5
REMARK    3  A    between atoms: C5_8  and  C6_9
REMARK    4  A    between atoms: C7_14  and  O5_15
REMARK    5  A    between atoms: C9_20  and  C10_21
REMARK    6  A    between atoms: C10_21  and  N3_22
REMARK       I    between atoms: N3_22  and  C11_24
REMARK       I    between atoms: C11_24  and  N5_28
REMARK    7  A    between atoms: N5_28  and  S3_30
REMARK    8  A    between atoms: S3_30  and  C12_33
ROOT
HETATM    1  C3  UNL     1       8.815  15.497 -14.891  1.00  0.00     0.161 C
HETATM    2  C4  UNL     1       9.631  14.923 -13.767  1.00  0.00     0.178 C
HETATM    3  O3  UNL     1       9.480  14.852 -12.565  1.00  0.00    -0.294 OA
HETATM    4  C5  UNL     1      10.675  14.498 -14.788  1.00  0.00     0.165 C
HETATM    5  S1  UNL     1      10.233  12.723 -15.053  1.00  0.00    -0.066 SA
HETATM    6  S2  UNL     1       8.084  12.819 -14.866  1.00  0.00    -0.054 SA
HETATM    7  C7  UNL     1       7.700  14.549 -15.264  1.00  0.00     0.155 C
HETATM    8  C8  UNL     1       7.361  14.611 -16.724  1.00  0.00     0.166 C
HETATM    9  N2  UNL     1       8.381  15.235 -17.484  1.00  0.00    -0.411 N
ATOM     10  H2  UNL     1       8.174  15.898 -18.231  1.00  0.00     0.153 HD
HETATM   11  C9  UNL     1       9.739  14.868 -17.130  1.00  0.00     0.103 C
HETATM   12  C13 UNL     1      10.033  15.414 -15.753  1.00  0.00     0.075 C
ENDROOT
BRANCH  11  13
HETATM   13  C10 UNL     1      10.615  15.543 -18.163  1.00  0.00     0.163 C
BRANCH  13  14
HETATM   14  N3  UNL     1      11.491  16.535 -17.655  1.00  0.00    -0.224 N
HETATM   15  C11 UNL     1      11.789  17.689 -18.434  1.00  0.00     0.681 C
HETATM   16  N4  UNL     1      12.960  18.211 -18.305  1.00  0.00    -0.234 N
HETATM   17  N5  UNL     1      10.853  18.278 -19.337  1.00  0.00    -0.116 N
ATOM     18  H42 UNL     1      13.628  17.791 -17.660  1.00  0.00     0.174 HD
ATOM     19  H41 UNL     1      13.173  19.038 -18.863  1.00  0.00     0.174 HD
ATOM     20  H5  UNL     1      10.458  17.709 -20.086  1.00  0.00     0.197 HD
ATOM     21  H3  UNL     1      11.908  16.422 -16.731  1.00  0.00     0.177 HD
BRANCH  17  22
HETATM   22  S3  UNL     1      10.375  19.922 -19.189  1.00  0.00     0.257 S
HETATM   23  O6  UNL     1      10.691  20.629 -20.469  1.00  0.00    -0.204 OA
HETATM   24  O7  UNL     1      11.214  20.552 -18.115  1.00  0.00    -0.204 OA
BRANCH  22  25
HETATM   25  C12 UNL     1       8.647  20.071 -18.805  1.00  0.00     0.278 C
HETATM   26 CL1  UNL     1       7.864  18.476 -18.779  1.00  0.00    -0.113 Cl
ENDBRANCH  22  25
ENDBRANCH  17  22
ENDBRANCH  13  14
ENDBRANCH  11  13
BRANCH   1  27
HETATM   27  C2  UNL     1       8.388  16.891 -14.621  1.00  0.00     0.279 C
HETATM   28  O2  UNL     1       7.701  17.225 -13.627  1.00  0.00    -0.264 OA
BRANCH  27  29
HETATM   29  O1  UNL     1       8.741  17.939 -15.493  1.00  0.00    -0.325 OA
HETATM   30  C1  UNL     1       8.555  19.295 -15.131  1.00  0.00     0.213 C
ENDBRANCH  27  29
ENDBRANCH   1  27
BRANCH   4  31
HETATM   31  C6  UNL     1      12.028  14.729 -14.296  1.00  0.00     0.259 C
HETATM   32  N1  UNL     1      12.522  13.749 -13.345  1.00  0.00    -0.060 NA
HETATM   33  O4  UNL     1      12.796  15.649 -14.584  1.00  0.00    -0.275 OA
ENDBRANCH   4  31
BRANCH   7  34
HETATM   34  O5  UNL     1       6.596  14.905 -14.473  1.00  0.00    -0.375 OA
ATOM     35  H5  UNL     1       6.146  14.096 -14.261  1.00  0.00     0.211 HD
ENDBRANCH   7  34
TORSDOF 8
ENDMDL