MODEL 3
REMARK VINA RESULT: -6.270622994      2.306      2.983
REMARK  11 active torsions:
REMARK  status: ('A' for Active; 'I' for Inactive)
REMARK    1  A    between atoms: C2_3  and  C3_4
REMARK    2  A    between atoms: C3_4  and  C4_5
REMARK       I    between atoms: C4_5  and  N2_7
REMARK    3  A    between atoms: N2_7  and  N3_8
REMARK       I    between atoms: N3_8  and  C5_10
REMARK    4  A    between atoms: C5_10  and  C6_12
REMARK       I    between atoms: C6_12  and  N4_14
REMARK    5  A    between atoms: N4_14  and  C7_16
REMARK    6  A    between atoms: C7_16  and  C8_17
REMARK    7  A    between atoms: C12_21  and  O4_22
REMARK    8  A    between atoms: C13_26  and  N6_27
REMARK    9  A    between atoms: N6_27  and  C14_29
REMARK   10  A    between atoms: N8_32  and  C15_33
REMARK   11  A    between atoms: C15_33  and  C16_34
ROOT
HETATM    1  C1  UNL     1       8.945  16.234 -14.389  1.00  0.00     0.175 C
HETATM    2  N1  UNL     1       9.100  14.805 -14.270  1.00  0.00    -0.186 N
HETATM    3  C2  UNL     1      10.091  14.165 -13.648  1.00  0.00     0.089 A
HETATM    4  C12 UNL     1       9.909  12.804 -13.745  1.00  0.00     0.179 A
HETATM    5  N5  UNL     1       8.786  12.633 -14.444  1.00  0.00    -0.168 N
ATOM      6  H5  UNL     1       8.378  11.731 -14.690  1.00  0.00     0.186 HD
HETATM    7  C13 UNL     1       8.257  13.864 -14.784  1.00  0.00     0.688 A
ENDROOT
BRANCH   3   8
HETATM    8  C3  UNL     1      11.231  14.749 -12.920  1.00  0.00     0.183 C
BRANCH   8   9
HETATM    9  C4  UNL     1      12.411  14.752 -13.903  1.00  0.00     0.318 C
HETATM   10  O1  UNL     1      13.359  14.012 -13.535  1.00  0.00    -0.255 OA
HETATM   11  N2  UNL     1      12.281  15.541 -15.001  1.00  0.00    -0.283 NA
BRANCH  11  12
HETATM   12  N3  UNL     1      12.160  16.303 -16.064  1.00  0.00    -0.191 N
HETATM   13  C5  UNL     1      11.378  15.768 -17.192  1.00  0.00     0.338 C
HETATM   14  O2  UNL     1      10.854  14.661 -17.164  1.00  0.00    -0.260 OA
ATOM     15  H3  UNL     1      12.591  17.226 -16.106  1.00  0.00     0.205 HD
BRANCH  13  16
HETATM   16  C6  UNL     1      11.289  16.693 -18.350  1.00  0.00     0.311 C
HETATM   17  O3  UNL     1      10.208  16.754 -18.942  1.00  0.00    -0.262 OA
HETATM   18  N4  UNL     1      12.436  17.419 -18.687  1.00  0.00    -0.352 N
ATOM     19  H4  UNL     1      13.260  17.257 -18.108  1.00  0.00     0.162 HD
BRANCH  18  20
HETATM   20  C7  UNL     1      12.584  18.353 -19.742  1.00  0.00     0.131 C
BRANCH  20  21
HETATM   21  C8  UNL     1      12.597  19.779 -19.405  1.00  0.00    -0.035 C
HETATM   22  C9  UNL     1      14.008  20.290 -19.074  1.00  0.00     0.016 C
HETATM   23  C10 UNL     1      11.677  20.344 -18.385  1.00  0.00     0.016 C
HETATM   24  C11 UNL     1      12.206  20.509 -20.734  1.00  0.00     0.016 C
ENDBRANCH  20  21
ENDBRANCH  18  20
ENDBRANCH  13  16
ENDBRANCH  11  12
ENDBRANCH   8   9
ENDBRANCH   3   8
BRANCH   4  25
HETATM   25  O4  UNL     1      10.699  11.758 -13.241  1.00  0.00    -0.344 OA
ATOM     26  H4  UNL     1      10.435  10.918 -12.884  1.00  0.00     0.219 HD
ENDBRANCH   4  25
BRANCH   7  27
HETATM   27  N6  UNL     1       7.176  13.960 -15.399  1.00  0.00    -0.169 N
ATOM     28  H6  UNL     1       7.316  13.702 -16.376  1.00  0.00     0.186 HD
BRANCH  27  29
HETATM   29  C14 UNL     1       5.887  14.291 -15.203  1.00  0.00     0.204 A
HETATM   30  N7  UNL     1       5.540  15.613 -15.083  1.00  0.00    -0.274 N
HETATM   31  N8  UNL     1       4.294  15.991 -14.933  1.00  0.00    -0.238 N
ATOM     32  H7  UNL     1       6.273  16.322 -15.110  1.00  0.00     0.189 HD
HETATM   33  C17 UNL     1       3.309  15.081 -14.894  1.00  0.00     0.344 A
HETATM   34  O5  UNL     1       2.131  15.486 -14.754  1.00  0.00    -0.245 OA
HETATM   35  N9  UNL     1       3.588  13.763 -15.007  1.00  0.00    -0.271 N
HETATM   36  C18 UNL     1       4.851  13.360 -15.159  1.00  0.00     0.295 A
ATOM     37  H9  UNL     1       2.833  13.077 -14.976  1.00  0.00     0.174 HD
HETATM   38  O6  UNL     1       5.199  12.148 -15.269  1.00  0.00    -0.264 OA
BRANCH  31  39
HETATM   39  C15 UNL     1       3.985  17.411 -14.824  1.00  0.00     0.185 C
BRANCH  39  40
HETATM   40  C16 UNL     1       5.303  18.113 -14.612  1.00  0.00     0.244 C
HETATM   41  F1  UNL     1       5.084  19.484 -14.566  1.00  0.00    -0.254 F
ENDBRANCH  39  40
ENDBRANCH  31  39
ENDBRANCH  27  29
ENDBRANCH   7  27
TORSDOF 11
ENDMDL