MODEL 2
REMARK VINA RESULT: -6.102188529      1.620      2.783
REMARK  7 active torsions:
REMARK  status: ('A' for Active; 'I' for Inactive)
REMARK       I    between atoms: C2_2  and  N1_4
REMARK    1  A    between atoms: C4_7  and  C5_8
REMARK       I    between atoms: C5_8  and  N2_10
REMARK    2  A    between atoms: N2_10  and  C6_12
REMARK    3  A    between atoms: N3_15  and  N4_16
REMARK    4  A    between atoms: N4_16  and  S1_18
REMARK    5  A    between atoms: S1_18  and  N5_21
REMARK       I    between atoms: N5_21  and  C8_23
REMARK    6  A    between atoms: C8_23  and  C9_25
REMARK    7  A    between atoms: N6_34  and  O10_35
ROOT
HETATM    1  C6  UNL     1      10.651  15.309 -18.357  1.00  0.00     0.203 A
HETATM    2  C7  UNL     1       9.220  15.766 -18.279  1.00  0.00     0.264 A
HETATM    3  O3  UNL     1       8.419  16.081 -19.210  1.00  0.00    -0.269 OA
HETATM    4  N3  UNL     1       9.227  15.680 -16.864  1.00  0.00    -0.242 N
HETATM    5  C10 UNL     1      10.614  15.370 -16.879  1.00  0.00     0.140 A
HETATM    6  C11 UNL     1      11.545  16.394 -16.245  1.00  0.00     0.037 C
ENDROOT
BRANCH   1   7
HETATM    7  N2  UNL     1      11.393  16.336 -19.058  1.00  0.00    -0.343 N
HETATM    8  C5  UNL     1      12.351  16.104 -20.042  1.00  0.00     0.255 C
HETATM    9  O2  UNL     1      12.598  14.890 -20.363  1.00  0.00    -0.270 OA
ATOM     10  H2  UNL     1      11.199  17.307 -18.811  1.00  0.00     0.163 HD
BRANCH   8  11
HETATM   11  C4  UNL     1      13.109  17.152 -20.751  1.00  0.00     0.285 C
HETATM   12  C3  UNL     1      14.545  16.893 -20.838  1.00  0.00     0.148 C
HETATM   13  N1  UNL     1      15.179  15.775 -20.999  1.00  0.00    -0.313 N
HETATM   14  N6  UNL     1      15.188  18.154 -20.700  1.00  0.00    -0.210 N
HETATM   15  C2  UNL     1      16.588  15.707 -21.065  1.00  0.00     0.219 C
ATOM     16  H1  UNL     1      14.641  14.912 -21.082  1.00  0.00     0.170 HD
HETATM   17  C1  UNL     1      17.472  15.252 -19.966  1.00  0.00     0.117 C
HETATM   18  O1  UNL     1      17.141  16.061 -22.146  1.00  0.00    -0.274 OA
HETATM   19  C12 UNL     1      14.093  19.099 -20.632  1.00  0.00     0.156 C
HETATM   20  O9  UNL     1      13.004  18.390 -20.168  1.00  0.00    -0.337 OA
HETATM   21  C13 UNL     1      14.506  20.189 -19.651  1.00  0.00     0.073 C
HETATM   22  C14 UNL     1      13.812  19.750 -21.978  1.00  0.00     0.073 C
BRANCH  14  23
HETATM   23  O10 UNL     1      16.497  18.476 -20.637  1.00  0.00    -0.283 OA
ATOM     24  H10 UNL     1      17.008  18.872 -19.940  1.00  0.00     0.245 HD
ENDBRANCH  14  23
ENDBRANCH   8  11
ENDBRANCH   1   7
BRANCH   4  25
HETATM   25  N4  UNL     1       8.160  15.871 -15.976  1.00  0.00    -0.204 N
ATOM     26  H4  UNL     1       7.826  16.792 -15.694  1.00  0.00     0.202 HD
BRANCH  25  27
HETATM   27  S1  UNL     1       7.481  14.431 -15.418  1.00  0.00     0.339 S
HETATM   28  O4  UNL     1       6.334  14.773 -14.482  1.00  0.00    -0.181 OA
HETATM   29  O5  UNL     1       6.891  13.559 -16.481  1.00  0.00    -0.181 OA
BRANCH  27  30
HETATM   30  N5  UNL     1       8.655  13.562 -14.508  1.00  0.00    -0.227 N
HETATM   31  C8  UNL     1       9.517  14.192 -13.564  1.00  0.00     0.332 C
HETATM   32  O6  UNL     1       9.401  15.431 -13.398  1.00  0.00    -0.260 OA
ATOM     33  H5  UNL     1       8.737  12.555 -14.650  1.00  0.00     0.183 HD
BRANCH  31  34
HETATM   34  C9  UNL     1      10.507  13.448 -12.807  1.00  0.00     0.271 C
HETATM   35  O7  UNL     1      10.204  12.816 -11.767  1.00  0.00    -0.640 OA
HETATM   36  O8  UNL     1      11.832  13.409 -13.210  1.00  0.00    -0.640 OA
ENDBRANCH  31  34
ENDBRANCH  27  30
ENDBRANCH  25  27
ENDBRANCH   4  25
TORSDOF 7
ENDMDL