MODEL 1
REMARK VINA RESULT: -7.996093434      0.000      0.000
REMARK  9 active torsions:
REMARK  status: ('A' for Active; 'I' for Inactive)
REMARK    1  A    between atoms: C2_3  and  C3_4
REMARK    2  A    between atoms: C3_4  and  N2_5
REMARK    3  A    between atoms: C3_4  and  C16_25
REMARK       I    between atoms: N2_5  and  C4_7
REMARK       I    between atoms: C4_7  and  N3_9
REMARK    4  A    between atoms: N3_9  and  C5_11
REMARK    5  A    between atoms: C8_14  and  O2_15
REMARK    6  A    between atoms: O2_15  and  C9_16
REMARK       I    between atoms: C16_25  and  N5_27
REMARK    7  A    between atoms: N5_27  and  S1_29
REMARK    8  A    between atoms: S1_29  and  C17_32
REMARK    9  A    between atoms: C23_38  and  C24_39
ROOT
HETATM    1  C3  UNL     1      12.749   9.808   9.273  1.00  0.00     0.229 C
ENDROOT
BRANCH   1   2
HETATM    2  C2  UNL     1      13.800   9.210  10.133  1.00  0.00     0.044 A
HETATM    3  N1  UNL     1      13.697   8.459  11.240  1.00  0.00    -0.351 N
HETATM    4  C1  UNL     1      12.455   8.050  11.888  1.00  0.00     0.156 C
HETATM    5  C23 UNL     1      14.918   8.122  11.699  1.00  0.00     0.083 A
HETATM    6  C22 UNL     1      15.857   8.678  10.861  1.00  0.00     0.033 A
HETATM    7  C21 UNL     1      15.154   9.355   9.887  1.00  0.00     0.030 A
BRANCH   5   8
HETATM    8  C24 UNL     1      15.198   7.299  12.888  1.00  0.00     0.282 C
HETATM    9  C25 UNL     1      16.697   7.147  13.069  1.00  0.00     0.097 C
HETATM   10  F1  UNL     1      14.665   7.792  14.040  1.00  0.00    -0.200 F
HETATM   11  F2  UNL     1      14.692   6.012  12.734  1.00  0.00    -0.200 F
ENDBRANCH   5   8
ENDBRANCH   1   2
BRANCH   1  12
HETATM   12  N2  UNL     1      12.757  11.251   9.353  1.00  0.00    -0.324 N
HETATM   13  C4  UNL     1      11.751  11.953  10.113  1.00  0.00     0.321 C
HETATM   14  O1  UNL     1      10.869  11.244  10.693  1.00  0.00    -0.247 OA
HETATM   15  N3  UNL     1      11.804  13.339  10.161  1.00  0.00    -0.309 N
ATOM     16  H3  UNL     1      12.583  13.775   9.666  1.00  0.00     0.170 HD
ATOM     17  H2  UNL     1      13.481  11.780   8.867  1.00  0.00     0.165 HD
BRANCH  15  18
HETATM   18  C5  UNL     1      10.916  14.219  10.810  1.00  0.00     0.036 A
HETATM   19  C6  UNL     1      10.016  15.010  10.148  1.00  0.00     0.032 A
HETATM   20  C7  UNL     1       9.183  15.848  10.875  1.00  0.00     0.039 A
HETATM   21  C8  UNL     1       9.214  15.930  12.266  1.00  0.00     0.076 A
HETATM   22  C14 UNL     1      10.118  15.133  12.940  1.00  0.00     0.039 A
HETATM   23  C15 UNL     1      10.936  14.310  12.222  1.00  0.00     0.032 A
BRANCH  21  24
HETATM   24  O2  UNL     1       8.411  16.752  13.003  1.00  0.00    -0.311 OA
BRANCH  24  25
HETATM   25  C9  UNL     1       8.482  18.116  13.035  1.00  0.00     0.078 A
HETATM   26  C10 UNL     1       7.404  18.888  12.649  1.00  0.00     0.054 A
HETATM   27  C11 UNL     1       7.581  20.258  12.725  1.00  0.00     0.090 A
HETATM   28  N4  UNL     1       8.731  20.828  13.149  1.00  0.00    -0.375 N
HETATM   29  C12 UNL     1       9.778  20.085  13.525  1.00  0.00     0.090 A
ATOM     30  H4  UNL     1       8.802  21.845  13.184  1.00  0.00     0.164 HD
HETATM   31  C13 UNL     1       9.670  18.720  13.474  1.00  0.00     0.054 A
ENDBRANCH  24  25
ENDBRANCH  21  24
ENDBRANCH  15  18
ENDBRANCH   1  12
BRANCH   1  32
HETATM   32  C16 UNL     1      12.979   9.443   7.828  1.00  0.00     0.259 C
HETATM   33  O3  UNL     1      12.794   8.269   7.444  1.00  0.00    -0.270 OA
HETATM   34  N5  UNL     1      13.402  10.429   6.937  1.00  0.00    -0.252 N
ATOM     35  H5  UNL     1      13.546  11.368   7.310  1.00  0.00     0.181 HD
BRANCH  34  36
HETATM   36  S1  UNL     1      13.697  10.195   5.288  1.00  0.00     0.240 S
HETATM   37  O4  UNL     1      12.590   9.380   4.634  1.00  0.00    -0.205 OA
HETATM   38  O5  UNL     1      13.670  11.542   4.558  1.00  0.00    -0.205 OA
BRANCH  36  39
HETATM   39  C17 UNL     1      15.226   9.398   4.987  1.00  0.00     0.072 C
HETATM   40  C18 UNL     1      15.170   7.898   4.868  1.00  0.00     0.033 C
HETATM   41  C19 UNL     1      16.124   9.681   6.196  1.00  0.00     0.033 C
HETATM   42  C20 UNL     1      15.840  10.012   3.737  1.00  0.00     0.033 C
ENDBRANCH  36  39
ENDBRANCH  34  36
ENDBRANCH   1  32
TORSDOF 9
ENDMDL