MODEL 1
REMARK VINA RESULT: -8.075325581      0.000      0.000
REMARK  9 active torsions:
REMARK  status: ('A' for Active; 'I' for Inactive)
REMARK    1  A    between atoms: O1_2  and  C2_3
REMARK    2  A    between atoms: C5_7  and  C6_8
REMARK       I    between atoms: C6_8  and  N1_10
REMARK    3  A    between atoms: C11_16  and  N2_17
REMARK    4  A    between atoms: N2_17  and  C12_19
REMARK    5  A    between atoms: N3_21  and  C14_22
REMARK    6  A    between atoms: N4_24  and  O3_26
REMARK    7  A    between atoms: C17_29  and  C18_30
REMARK    8  A    between atoms: C18_30  and  O4_31
REMARK    9  A    between atoms: C25_40  and  O5_41
ROOT
HETATM    1  C6  UNL     1      16.355   8.662   9.639  1.00  0.00     0.264 C
HETATM    2  O2  UNL     1      16.549   7.970   8.570  1.00  0.00    -0.267 OA
HETATM    3  N1  UNL     1      16.878   9.959   9.779  1.00  0.00    -0.304 N
HETATM    4  C7  UNL     1      17.658  10.583   8.709  1.00  0.00     0.048 A
HETATM    5  C8  UNL     1      17.652  10.388   7.339  1.00  0.00     0.054 A
HETATM    6  C9  UNL     1      18.502  11.117   6.536  1.00  0.00     0.038 A
HETATM    7 CL2  UNL     1      18.509  10.886   4.815  1.00  0.00    -0.084 Cl
HETATM    8  C10 UNL     1      19.338  12.024   7.110  1.00  0.00     0.053 A
HETATM    9  C11 UNL     1      19.393  12.266   8.467  1.00  0.00     0.038 A
HETATM   10  C19 UNL     1      18.515  11.507   9.257  1.00  0.00    -0.002 A
HETATM   11  C20 UNL     1      18.297  11.499  10.721  1.00  0.00     0.074 C
HETATM   12  C21 UNL     1      16.847  10.969  10.793  1.00  0.00     0.037 C
HETATM   13  C22 UNL     1      16.584  10.541  12.193  1.00  0.00     0.039 C
HETATM   14  C23 UNL     1      15.980  12.154  10.380  1.00  0.00     0.039 C
ENDROOT
BRANCH   9  15
HETATM   15  N2  UNL     1      20.233  13.209   9.097  1.00  0.00    -0.383 N
ATOM     16  H2  UNL     1      19.809  13.965   9.635  1.00  0.00     0.160 HD
BRANCH  15  17
HETATM   17  C12 UNL     1      21.643  13.141   9.009  1.00  0.00     0.107 C
HETATM   18  C13 UNL     1      22.237  13.481   7.663  1.00  0.00     0.149 C
HETATM   19  N3  UNL     1      23.398  12.593   7.523  1.00  0.00    -0.367 N
HETATM   20  C16 UNL     1      23.613  11.921   8.784  1.00  0.00     0.133 C
HETATM   21  C17 UNL     1      22.177  11.728   9.220  1.00  0.00     0.051 C
BRANCH  19  22
HETATM   22  C14 UNL     1      24.163  12.433   6.353  1.00  0.00     0.095 C
HETATM   23  C15 UNL     1      25.160  13.462   5.983  1.00  0.00     0.091 C
HETATM   24  N4  UNL     1      24.032  11.412   5.575  1.00  0.00    -0.258 N
ATOM     25  H4  UNL     1      24.627  11.374   4.747  1.00  0.00     0.195 HD
BRANCH  24  26
HETATM   26  O3  UNL     1      23.172  10.386   5.768  1.00  0.00    -0.288 OA
ATOM     27  H3  UNL     1      23.288   9.502   5.441  1.00  0.00     0.244 HD
ENDBRANCH  24  26
ENDBRANCH  19  22
BRANCH  21  28
HETATM   28  C18 UNL     1      22.063  11.289  10.649  1.00  0.00     0.172 C
BRANCH  28  29
HETATM   29  O4  UNL     1      21.863  12.360  11.505  1.00  0.00    -0.400 OA
ATOM     30  H4  UNL     1      22.516  12.389  12.195  1.00  0.00     0.209 HD
ENDBRANCH  28  29
ENDBRANCH  21  28
ENDBRANCH  15  17
ENDBRANCH   9  15
BRANCH   1  31
HETATM   31  C5  UNL     1      15.557   7.968  10.644  1.00  0.00     0.095 A
HETATM   32  C4  UNL     1      16.115   7.354  11.738  1.00  0.00     0.055 A
HETATM   33  C3  UNL     1      15.303   6.717  12.644  1.00  0.00     0.064 A
HETATM   34 CL1  UNL     1      17.867   7.365  11.951  1.00  0.00    -0.083 Cl
HETATM   35  C2  UNL     1      13.933   6.650  12.522  1.00  0.00     0.106 A
HETATM   36  C25 UNL     1      13.384   7.260  11.432  1.00  0.00     0.141 A
HETATM   37  C24 UNL     1      14.164   7.905  10.511  1.00  0.00     0.169 A
HETATM   38  F1  UNL     1      13.605   8.512   9.424  1.00  0.00    -0.202 F
BRANCH  35  39
HETATM   39  O1  UNL     1      13.167   5.999  13.458  1.00  0.00    -0.353 OA
HETATM   40  C1  UNL     1      13.224   6.205  14.835  1.00  0.00     0.210 C
ENDBRANCH  35  39
BRANCH  36  41
HETATM   41  O5  UNL     1      11.986   7.199  11.297  1.00  0.00    -0.350 OA
HETATM   42  C26 UNL     1      11.274   8.355  11.698  1.00  0.00     0.210 C
ENDBRANCH  36  41
ENDBRANCH   1  31
TORSDOF 9
ENDMDL