MODEL 4
REMARK VINA RESULT: -8.672555392      3.031      4.403
REMARK  7 active torsions:
REMARK  status: ('A' for Active; 'I' for Inactive)
REMARK    1  A    between atoms: C1_2  and  C2_4
REMARK    2  A    between atoms: C3_8  and  C4_9
REMARK    3  A    between atoms: C4_9  and  C5_11
REMARK    4  A    between atoms: C8_15  and  C9_16
REMARK    5  A    between atoms: C15_23  and  N3_24
REMARK    6  A    between atoms: N3_24  and  S2_26
REMARK    7  A    between atoms: S2_26  and  C16_29
ROOT
HETATM    1  C5  UNL     1      21.387  10.554  10.613  1.00  0.00     0.021 A
HETATM    2  C6  UNL     1      21.259   9.237  10.993  1.00  0.00     0.058 A
HETATM    3  C7  UNL     1      20.042   8.705  11.320  1.00  0.00     0.130 A
HETATM    4  F1  UNL     1      19.915   7.389  11.696  1.00  0.00    -0.205 F
HETATM    5  C8  UNL     1      18.889   9.452  11.289  1.00  0.00     0.040 A
HETATM    6  C15 UNL     1      19.001  10.799  10.904  1.00  0.00     0.057 A
HETATM    7  C22 UNL     1      20.233  11.306  10.581  1.00  0.00     0.046 A
ENDROOT
BRANCH   1   8
HETATM    8  C4  UNL     1      22.655  11.090  10.311  1.00  0.00     0.202 C
HETATM    9  O2  UNL     1      23.670  10.460  10.784  1.00  0.00    -0.286 OA
BRANCH   8  10
HETATM   10  C3  UNL     1      22.973  12.274   9.523  1.00  0.00     0.099 A
HETATM   11  S1  UNL     1      23.450  12.363   7.896  1.00  0.00    -0.008 SA
HETATM   12  N2  UNL     1      23.653  14.014   7.760  1.00  0.00    -0.320 N
HETATM   13  C2  UNL     1      23.351  14.486   8.975  1.00  0.00     0.130 A
ATOM     14  H2  UNL     1      23.942  14.543   6.937  1.00  0.00     0.174 HD
HETATM   15  C23 UNL     1      22.990  13.594   9.919  1.00  0.00     0.101 A
HETATM   16  N4  UNL     1      22.625  13.966  11.280  1.00  0.00    -0.098 NA
BRANCH  13  17
HETATM   17  C1  UNL     1      23.429  15.955   9.242  1.00  0.00     0.283 C
HETATM   18  N1  UNL     1      24.597  16.539   9.776  1.00  0.00    -0.056 NA
HETATM   19  O1  UNL     1      22.463  16.718   9.002  1.00  0.00    -0.269 OA
ENDBRANCH  13  17
ENDBRANCH   8  10
ENDBRANCH   1   8
BRANCH   6  20
HETATM   20  N3  UNL     1      17.789  11.515  10.894  1.00  0.00    -0.280 N
ATOM     21  H3  UNL     1      17.588  12.042  11.744  1.00  0.00     0.179 HD
BRANCH  20  22
HETATM   22  S2  UNL     1      16.609  11.632   9.676  1.00  0.00     0.263 S
HETATM   23  O3  UNL     1      17.079  10.811   8.470  1.00  0.00    -0.200 OA
HETATM   24  O4  UNL     1      16.460  13.083   9.205  1.00  0.00    -0.200 OA
BRANCH  22  25
HETATM   25  C16 UNL     1      15.026  11.135  10.154  1.00  0.00     0.080 A
HETATM   26  C17 UNL     1      14.307  10.304   9.293  1.00  0.00     0.027 A
HETATM   27  C18 UNL     1      13.076   9.803   9.603  1.00  0.00     0.025 A
HETATM   28  C19 UNL     1      12.510  10.131  10.827  1.00  0.00     0.034 A
HETATM   29 CL2  UNL     1      10.941   9.517  11.291  1.00  0.00    -0.084 Cl
HETATM   30  C20 UNL     1      13.206  10.958  11.702  1.00  0.00     0.025 A
HETATM   31  C21 UNL     1      14.442  11.446  11.364  1.00  0.00     0.027 A
ENDBRANCH  22  25
ENDBRANCH  20  22
ENDBRANCH   6  20
BRANCH   5  32
HETATM   32  C9  UNL     1      17.598   8.891  11.647  1.00  0.00    -0.021 A
HETATM   33  C10 UNL     1      17.030   9.155  12.864  1.00  0.00     0.014 A
HETATM   34  C11 UNL     1      15.805   8.610  13.206  1.00  0.00     0.024 A
HETATM   35  C12 UNL     1      15.140   7.778  12.297  1.00  0.00     0.034 A
HETATM   36 CL1  UNL     1      13.577   7.070  12.699  1.00  0.00    -0.084 Cl
HETATM   37  C13 UNL     1      15.723   7.521  11.077  1.00  0.00     0.024 A
HETATM   38  C14 UNL     1      16.940   8.077  10.763  1.00  0.00     0.014 A
ENDBRANCH   5  32
TORSDOF 7
ENDMDL