MODEL 3
REMARK VINA RESULT: -7.704455983      2.513      5.193
REMARK  10 active torsions:
REMARK  status: ('A' for Active; 'I' for Inactive)
REMARK    1  A    between atoms: C2_2  and  C3_3
REMARK    2  A    between atoms: C3_3  and  C5_5
REMARK    3  A    between atoms: C15_17  and  N1_19
REMARK       I    between atoms: N1_19  and  C17_21
REMARK    4  A    between atoms: C17_21  and  C18_23
REMARK    5  A    between atoms: C21_26  and  C22_27
REMARK    6  A    between atoms: C22_27  and  C23_28
REMARK    7  A    between atoms: C25_34  and  C26_35
REMARK    8  A    between atoms: C26_35  and  O5_36
REMARK    9  A    between atoms: C26_35  and  O6_38
REMARK   10  A    between atoms: C28_40  and  O7_41
ROOT
HETATM    1  C5  UNL     1      19.554   9.552   8.958  1.00  0.00     0.120 C
HETATM    2  C6  UNL     1      19.733   9.430   7.416  1.00  0.00     0.266 C
HETATM    3  O1  UNL     1      20.433   8.394   7.096  1.00  0.00    -0.265 OA
HETATM    4  O2  UNL     1      19.258  10.235   6.491  1.00  0.00    -0.317 OA
HETATM    5  C7  UNL     1      19.544  11.378   5.800  1.00  0.00     0.206 C
HETATM    6  C8  UNL     1      18.955  11.523   4.447  1.00  0.00    -0.004 C
HETATM    7  C9  UNL     1      17.737  11.941   4.149  1.00  0.00    -0.029 C
HETATM    8  C10 UNL     1      16.712  12.346   5.165  1.00  0.00     0.027 C
HETATM    9  C11 UNL     1      16.464  13.768   5.356  1.00  0.00     0.004 C
HETATM   10  C12 UNL     1      16.946  14.471   6.574  1.00  0.00     0.000 C
HETATM   11  C13 UNL     1      16.070  14.289   7.810  1.00  0.00     0.005 C
HETATM   12  C14 UNL     1      16.766  13.338   8.678  1.00  0.00     0.060 C
HETATM   13  C15 UNL     1      16.023  12.288   9.444  1.00  0.00     0.133 C
HETATM   14  C16 UNL     1      15.089  11.547   8.542  1.00  0.00     0.071 C
HETATM   15  O4  UNL     1      16.821  11.613  10.223  1.00  0.00    -0.348 OA
HETATM   16  C25 UNL     1      17.441  10.448  10.236  1.00  0.00     0.209 C
HETATM   17  C28 UNL     1      18.157   9.892   9.099  1.00  0.00     0.166 C
ENDROOT
BRANCH  13  18
HETATM   18  N1  UNL     1      15.124  13.036  10.349  1.00  0.00    -0.329 N
HETATM   19  C17 UNL     1      14.093  12.479  11.114  1.00  0.00     0.224 C
HETATM   20  O3  UNL     1      13.858  11.254  11.060  1.00  0.00    -0.273 OA
ATOM     21  H1  UNL     1      15.268  14.043  10.422  1.00  0.00     0.165 HD
BRANCH  19  22
HETATM   22  C18 UNL     1      13.231  13.288  12.015  1.00  0.00     0.078 C
HETATM   23  C19 UNL     1      11.956  12.561  12.384  1.00  0.00     0.014 C
HETATM   24  C20 UNL     1      11.064  13.733  12.819  1.00  0.00     0.006 C
HETATM   25  C21 UNL     1      11.282  14.700  11.678  1.00  0.00    -0.005 C
HETATM   26  C24 UNL     1      12.764  14.564  11.399  1.00  0.00     0.019 C
BRANCH  25  27
HETATM   27  C22 UNL     1      10.885  16.098  12.015  1.00  0.00     0.122 C
BRANCH  27  28
HETATM   28  C23 UNL     1       9.395  16.255  11.923  1.00  0.00     0.388 C
HETATM   29  F1  UNL     1       8.871  15.464  10.904  1.00  0.00    -0.171 F
HETATM   30  F2  UNL     1       9.054  17.572  11.573  1.00  0.00    -0.171 F
HETATM   31  F3  UNL     1       8.730  16.016  13.102  1.00  0.00    -0.171 F
ENDBRANCH  27  28
ENDBRANCH  25  27
ENDBRANCH  19  22
ENDBRANCH  13  18
BRANCH  16  32
HETATM   32  C26 UNL     1      16.565   9.451  11.000  1.00  0.00     0.287 C
BRANCH  32  33
HETATM   33  O5  UNL     1      15.448   9.007  10.346  1.00  0.00    -0.369 OA
ATOM     34  H5  UNL     1      14.745   8.682  10.895  1.00  0.00     0.212 HD
ENDBRANCH  32  33
BRANCH  32  35
HETATM   35  O6  UNL     1      17.238   8.315  11.425  1.00  0.00    -0.364 OA
HETATM   36  C27 UNL     1      17.429   8.302  12.808  1.00  0.00     0.204 C
ENDBRANCH  32  35
ENDBRANCH  16  32
BRANCH  17  37
HETATM   37  O7  UNL     1      17.498   8.681   8.622  1.00  0.00    -0.392 OA
ATOM     38  H7  UNL     1      16.592   8.838   8.865  1.00  0.00     0.210 HD
ENDBRANCH  17  37
BRANCH   1  39
HETATM   39  C3  UNL     1      20.747  10.203   9.444  1.00  0.00    -0.003 C
HETATM   40  C4  UNL     1      20.747  11.728   9.415  1.00  0.00     0.011 C
BRANCH  39  41
HETATM   41  C2  UNL     1      21.313   9.830  10.791  1.00  0.00     0.001 C
HETATM   42  C1  UNL     1      21.045   8.416  11.235  1.00  0.00     0.005 C
ENDBRANCH  39  41
ENDBRANCH   1  39
TORSDOF 10
ENDMDL