MODEL 4
REMARK VINA RESULT: -8.626867419      5.127      8.764
REMARK  9 active torsions:
REMARK  status: ('A' for Active; 'I' for Inactive)
REMARK    1  A    between atoms: O1_2  and  C2_3
REMARK    2  A    between atoms: C5_6  and  C6_7
REMARK    3  A    between atoms: C6_7  and  N1_8
REMARK       I    between atoms: N1_8  and  C7_9
REMARK    4  A    between atoms: C7_9  and  C8_11
REMARK    5  A    between atoms: C9_12  and  C10_13
REMARK       I    between atoms: C10_13  and  N2_15
REMARK    6  A    between atoms: N2_15  and  C11_17
REMARK    7  A    between atoms: N4_27  and  C17_28
REMARK    8  A    between atoms: C23_35  and  C24_36
REMARK    9  A    between atoms: C26_40  and  O5_41
ROOT
HETATM    1  C8  UNL     1      18.465  10.363  10.827  1.00  0.00     0.114 A
HETATM    2  C9  UNL     1      17.926  11.600  10.896  1.00  0.00     0.136 A
HETATM    3  N3  UNL     1      18.934  12.422  10.453  1.00  0.00    -0.287 N
ATOM      4  H3  UNL     1      18.845  13.436  10.384  1.00  0.00     0.188 HD
HETATM    5  N4  UNL     1      20.006  11.779  10.134  1.00  0.00    -0.250 N
HETATM    6  C23 UNL     1      19.774  10.489  10.346  1.00  0.00     0.141 A
ENDROOT
BRANCH   1   7
HETATM    7  C7  UNL     1      17.858   9.073  11.180  1.00  0.00     0.330 C
HETATM    8  N1  UNL     1      17.019   8.430  10.376  1.00  0.00    -0.378 NA
HETATM    9  O2  UNL     1      18.208   8.622  12.332  1.00  0.00    -0.251 OA
BRANCH   8  10
HETATM   10  C6  UNL     1      16.082   7.787   9.997  1.00  0.00     0.198 C
BRANCH  10  11
HETATM   11  C5  UNL     1      14.653   7.859  10.367  1.00  0.00    -0.004 A
HETATM   12  C4  UNL     1      13.754   8.418   9.467  1.00  0.00     0.017 A
HETATM   13  C3  UNL     1      12.401   8.534   9.715  1.00  0.00     0.040 A
HETATM   14  C2  UNL     1      11.926   8.063  10.928  1.00  0.00     0.101 A
HETATM   15  C26 UNL     1      12.789   7.501  11.848  1.00  0.00     0.099 A
HETATM   16  C25 UNL     1      14.159   7.398  11.566  1.00  0.00     0.053 A
BRANCH  14  17
HETATM   17  O1  UNL     1      10.580   8.143  11.253  1.00  0.00    -0.353 OA
HETATM   18  C1  UNL     1       9.785   9.129  10.634  1.00  0.00     0.210 C
ENDBRANCH  14  17
BRANCH  15  19
HETATM   19  O5  UNL     1      12.287   7.041  13.048  1.00  0.00    -0.358 OA
ATOM     20  H5  UNL     1      12.548   7.470  13.854  1.00  0.00     0.217 HD
ENDBRANCH  15  19
ENDBRANCH  10  11
ENDBRANCH   8  10
ENDBRANCH   1   7
BRANCH   2  21
HETATM   21  C10 UNL     1      16.635  12.138  11.294  1.00  0.00     0.275 C
HETATM   22  O3  UNL     1      16.678  13.203  11.963  1.00  0.00    -0.266 OA
HETATM   23  N2  UNL     1      15.416  11.532  10.966  1.00  0.00    -0.320 N
ATOM     24  H2  UNL     1      15.470  10.672  10.419  1.00  0.00     0.169 HD
BRANCH  23  25
HETATM   25  C11 UNL     1      14.118  11.980  11.308  1.00  0.00     0.058 A
HETATM   26  C12 UNL     1      13.660  12.262  12.568  1.00  0.00     0.031 A
HETATM   27  C13 UNL     1      12.355  12.703  12.812  1.00  0.00     0.004 A
HETATM   28  C14 UNL     1      11.466  12.875  11.797  1.00  0.00     0.026 A
HETATM   29  C15 UNL     1      11.893  12.601  10.519  1.00  0.00     0.058 A
HETATM   30 CL1  UNL     1      10.742  12.824   9.207  1.00  0.00    -0.082 Cl
HETATM   31  C16 UNL     1      13.177  12.169  10.288  1.00  0.00     0.082 A
HETATM   32 CL2  UNL     1      13.634  11.841   8.613  1.00  0.00    -0.080 Cl
ENDBRANCH  23  25
ENDBRANCH   2  21
BRANCH   6  33
HETATM   33  C24 UNL     1      20.664   9.363  10.136  1.00  0.00     0.284 C
HETATM   34  N5  UNL     1      21.602   8.985  11.129  1.00  0.00    -0.056 NA
HETATM   35  O4  UNL     1      20.650   8.678   9.082  1.00  0.00    -0.269 OA
ENDBRANCH   6  33
BRANCH   5  36
HETATM   36  C17 UNL     1      21.225  12.376   9.639  1.00  0.00     0.057 A
HETATM   37  C18 UNL     1      21.980  13.163  10.455  1.00  0.00     0.034 A
HETATM   38  C19 UNL     1      23.153  13.718   9.955  1.00  0.00     0.044 A
HETATM   39  C20 UNL     1      23.533  13.468   8.654  1.00  0.00     0.116 A
HETATM   40  F1  UNL     1      24.671  14.004   8.162  1.00  0.00    -0.206 F
HETATM   41  C21 UNL     1      22.771  12.672   7.823  1.00  0.00     0.044 A
HETATM   42  C22 UNL     1      21.621  12.141   8.350  1.00  0.00     0.034 A
ENDBRANCH   5  36
TORSDOF 9
ENDMDL