MODEL 2
REMARK VINA RESULT: -8.018650908      1.361      2.117
REMARK  9 active torsions:
REMARK  status: ('A' for Active; 'I' for Inactive)
REMARK    1  A    between atoms: O1_2  and  C2_3
REMARK    2  A    between atoms: C2_3  and  C3_5
REMARK    3  A    between atoms: C5_9  and  N1_10
REMARK    4  A    between atoms: N1_10  and  C6_12
REMARK    5  A    between atoms: C6_12  and  O3_13
REMARK    6  A    between atoms: C12_22  and  C13_23
REMARK       I    between atoms: C13_23  and  N3_25
REMARK    7  A    between atoms: N3_25  and  N4_27
REMARK       I    between atoms: N4_27  and  C14_29
REMARK    8  A    between atoms: C14_29  and  C15_31
REMARK    9  A    between atoms: C21_37  and  C22_38
ROOT
HETATM    1  C6  UNL     1      16.486  11.522   9.647  1.00  0.00     0.149 C
HETATM    2  C7  UNL     1      15.129  11.057   9.553  1.00  0.00     0.021 C
HETATM    3  C8  UNL     1      14.760  10.327   8.500  1.00  0.00     0.016 C
HETATM    4  C9  UNL     1      15.625   9.928   7.369  1.00  0.00     0.069 C
HETATM    5  N2  UNL     1      13.424   9.846   8.433  1.00  0.00    -0.366 N
ATOM      6  H2  UNL     1      13.169   9.295   7.614  1.00  0.00     0.165 HD
HETATM    7  C10 UNL     1      12.525  10.042   9.298  1.00  0.00    -0.003 C
HETATM    8  C11 UNL     1      11.137   9.469   9.084  1.00  0.00     0.064 C
HETATM    9  C12 UNL     1      12.823  10.762  10.511  1.00  0.00     0.134 C
HETATM   10  C21 UNL     1      14.122  11.417  10.583  1.00  0.00     0.057 C
ENDROOT
BRANCH   1  11
HETATM   11  N1  UNL     1      17.589  11.374   8.846  1.00  0.00    -0.329 N
ATOM     12  H1  UNL     1      17.547  11.555   7.843  1.00  0.00     0.168 HD
BRANCH  11  13
HETATM   13  C5  UNL     1      18.851  10.937   9.503  1.00  0.00     0.100 A
HETATM   14  S1  UNL     1      19.207   9.437  10.213  1.00  0.00    -0.057 SA
HETATM   15  C4  UNL     1      20.792   9.746  10.738  1.00  0.00     0.094 A
HETATM   16  C3  UNL     1      21.002  11.036  10.338  1.00  0.00     0.092 A
HETATM   17 CL1  UNL     1      21.921   8.673  11.598  1.00  0.00    -0.075 Cl
HETATM   18  C23 UNL     1      19.989  11.661   9.691  1.00  0.00     0.086 A
HETATM   19 CL3  UNL     1      20.153  13.354   9.116  1.00  0.00    -0.080 Cl
BRANCH  16  20
HETATM   20  C2  UNL     1      22.316  11.683  10.644  1.00  0.00     0.297 C
HETATM   21  O2  UNL     1      22.379  12.545  11.560  1.00  0.00    -0.259 OA
BRANCH  20  22
HETATM   22  O1  UNL     1      23.463  11.372   9.962  1.00  0.00    -0.322 OA
HETATM   23  C1  UNL     1      23.761  11.852   8.664  1.00  0.00     0.213 C
ENDBRANCH  20  22
ENDBRANCH  16  20
ENDBRANCH  11  13
ENDBRANCH   1  11
BRANCH   1  24
HETATM   24  O3  UNL     1      16.729  12.242  10.711  1.00  0.00    -0.346 OA
ATOM     25  H3  UNL     1      16.042  12.173  11.364  1.00  0.00     0.219 HD
ENDBRANCH   1  24
BRANCH  10  26
HETATM   26  C22 UNL     1      14.703  11.332  11.985  1.00  0.00     0.125 C
HETATM   27 CL2  UNL     1      14.651   9.718  12.665  1.00  0.00    -0.130 Cl
ENDBRANCH  10  26
BRANCH   9  28
HETATM   28  C13 UNL     1      11.699  11.649  10.970  1.00  0.00     0.246 C
HETATM   29  O4  UNL     1      10.913  11.343  11.898  1.00  0.00    -0.271 OA
HETATM   30  N3  UNL     1      11.530  12.883  10.315  1.00  0.00    -0.267 N
ATOM     31  H3  UNL     1      12.175  13.121   9.560  1.00  0.00     0.190 HD
BRANCH  30  32
HETATM   32  N4  UNL     1      10.526  13.801  10.642  1.00  0.00    -0.263 N
HETATM   33  C14 UNL     1      10.699  14.927  11.460  1.00  0.00     0.270 C
HETATM   34  O5  UNL     1      11.832  15.152  11.948  1.00  0.00    -0.266 OA
ATOM     35  H4  UNL     1       9.595  13.638  10.257  1.00  0.00     0.190 HD
BRANCH  33  36
HETATM   36  C15 UNL     1       9.602  15.833  11.756  1.00  0.00     0.033 A
HETATM   37  C16 UNL     1       8.742  16.335  10.817  1.00  0.00     0.017 A
HETATM   38  C17 UNL     1       7.726  17.192  11.171  1.00  0.00     0.001 A
HETATM   39  C18 UNL     1       7.522  17.588  12.476  1.00  0.00     0.000 A
HETATM   40  C19 UNL     1       8.379  17.092  13.427  1.00  0.00     0.001 A
HETATM   41  C20 UNL     1       9.383  16.244  13.076  1.00  0.00     0.017 A
ENDBRANCH  33  36
ENDBRANCH  30  32
ENDBRANCH   9  28
TORSDOF 9
ENDMDL