MODEL 4
REMARK VINA RESULT: -7.324724507      2.023      2.830
REMARK  11 active torsions:
REMARK  status: ('A' for Active; 'I' for Inactive)
REMARK    1  A    between atoms: O1_2  and  C2_3
REMARK    2  A    between atoms: C4_5  and  N1_6
REMARK    3  A    between atoms: N1_6  and  C5_8
REMARK    4  A    between atoms: C5_8  and  N2_10
REMARK    5  A    between atoms: N2_10  and  C6_12
REMARK    6  A    between atoms: C14_21  and  C15_22
REMARK    7  A    between atoms: C15_22  and  O3_24
REMARK    8  A    between atoms: O3_24  and  C16_25
REMARK    9  A    between atoms: C17_26  and  O4_27
REMARK   10  A    between atoms: C17_26  and  N3_29
REMARK       I    between atoms: N3_29  and  C18_31
REMARK   11  A    between atoms: C18_31  and  C19_33
ROOT
HETATM    1  C2  UNL     1      20.379  11.824   5.902  1.00  0.00     0.086 A
HETATM    2  C3  UNL     1      19.163  11.344   5.473  1.00  0.00     0.067 A
HETATM    3  C4  UNL     1      18.645  10.111   5.876  1.00  0.00     0.036 A
HETATM    4  C12 UNL     1      19.398   9.375   6.732  1.00  0.00     0.030 A
HETATM    5  C13 UNL     1      20.639   9.867   7.170  1.00  0.00     0.023 A
HETATM    6  C14 UNL     1      21.150  11.083   6.773  1.00  0.00     0.073 A
ENDROOT
BRANCH   6   7
HETATM    7  C15 UNL     1      22.437  11.550   7.260  1.00  0.00     0.300 C
HETATM    8  O2  UNL     1      23.522  11.246   6.733  1.00  0.00    -0.259 OA
BRANCH   7   9
HETATM    9  O3  UNL     1      22.469  12.394   8.389  1.00  0.00    -0.283 OA
BRANCH   9  10
HETATM   10  C16 UNL     1      23.274  12.027   9.482  1.00  0.00     0.201 C
HETATM   11  C17 UNL     1      22.737  11.046  10.379  1.00  0.00     0.165 C
BRANCH  11  12
HETATM   12  O4  UNL     1      23.633  10.204  10.878  1.00  0.00    -0.345 OA
ATOM     13  H4  UNL     1      23.944   9.549  10.264  1.00  0.00     0.219 HD
ENDBRANCH  11  12
BRANCH  11  14
HETATM   14  N3  UNL     1      21.446  10.815  10.825  1.00  0.00    -0.301 N
HETATM   15  C18 UNL     1      20.709   9.646  10.722  1.00  0.00     0.277 C
HETATM   16  O5  UNL     1      21.209   8.635  10.104  1.00  0.00    -0.266 OA
ATOM     17  H3  UNL     1      20.983  11.599  11.285  1.00  0.00     0.171 HD
BRANCH  15  18
HETATM   18  C19 UNL     1      19.359   9.475  11.277  1.00  0.00     0.142 A
HETATM   19  N4  UNL     1      19.054   8.231  11.779  1.00  0.00    -0.326 N
HETATM   20  C20 UNL     1      17.870   7.990  12.329  1.00  0.00     0.189 A
ATOM     21  H4  UNL     1      19.746   7.485  11.728  1.00  0.00     0.168 HD
HETATM   22  F1  UNL     1      17.579   6.743  12.827  1.00  0.00    -0.186 F
HETATM   23  C21 UNL     1      16.882   8.952  12.434  1.00  0.00     0.064 A
HETATM   24  C22 UNL     1      17.145  10.202  11.947  1.00  0.00     0.049 A
HETATM   25  C23 UNL     1      18.413  10.417  11.372  1.00  0.00     0.148 A
HETATM   26  F2  UNL     1      18.651  11.696  10.934  1.00  0.00    -0.203 F
ENDBRANCH  15  18
ENDBRANCH  11  14
ENDBRANCH   9  10
ENDBRANCH   7   9
ENDBRANCH   6   7
BRANCH   1  27
HETATM   27  O1  UNL     1      20.870  13.051   5.483  1.00  0.00    -0.355 OA
HETATM   28  C1  UNL     1      19.961  13.959   4.891  1.00  0.00     0.210 C
ENDBRANCH   1  27
BRANCH   3  29
HETATM   29  N1  UNL     1      17.396   9.733   5.325  1.00  0.00    -0.333 N
ATOM     30  H1  UNL     1      17.433   9.334   4.388  1.00  0.00     0.168 HD
BRANCH  29  31
HETATM   31  C5  UNL     1      16.129   9.830   5.882  1.00  0.00     0.176 C
HETATM   32  S1  UNL     1      14.824   9.325   4.998  1.00  0.00    -0.041 SA
BRANCH  31  33
HETATM   33  N2  UNL     1      15.864  10.291   7.162  1.00  0.00    -0.333 N
ATOM     34  H2  UNL     1      16.122  11.264   7.327  1.00  0.00     0.168 HD
BRANCH  33  35
HETATM   35  C6  UNL     1      15.295   9.635   8.275  1.00  0.00     0.034 A
HETATM   36  C7  UNL     1      14.321  10.124   9.101  1.00  0.00     0.031 A
HETATM   37  C8  UNL     1      13.789   9.403  10.169  1.00  0.00     0.021 A
HETATM   38  C9  UNL     1      14.250   8.135  10.429  1.00  0.00     0.011 A
HETATM   39 BR1  UNL     1      13.522   7.156  11.886  1.00  0.00    -0.051 Br
HETATM   40  C10 UNL     1      15.231   7.600   9.626  1.00  0.00     0.021 A
HETATM   41  C11 UNL     1      15.729   8.331   8.590  1.00  0.00     0.031 A
ENDBRANCH  33  35
ENDBRANCH  31  33
ENDBRANCH  29  31
ENDBRANCH   3  29
TORSDOF 11
ENDMDL