MODEL 1
REMARK VINA RESULT: -7.449853185      0.000      0.000
REMARK  9 active torsions:
REMARK  status: ('A' for Active; 'I' for Inactive)
REMARK    1  A    between atoms: C2_2  and  O1_4
REMARK    2  A    between atoms: O1_4  and  C4_5
REMARK    3  A    between atoms: C5_8  and  N2_9
REMARK    4  A    between atoms: N2_9  and  C6_11
REMARK    5  A    between atoms: N3_14  and  C9_15
REMARK    6  A    between atoms: C9_15  and  N4_17
REMARK    7  A    between atoms: N4_17  and  C10_19
REMARK    8  A    between atoms: C13_22  and  S2_23
REMARK    9  A    between atoms: C17_29  and  C18_30
ROOT
HETATM    1  C6  UNL     1      19.934  11.498   8.815  1.00  0.00     0.118 C
HETATM    2  C7  UNL     1      19.049  12.661   8.572  1.00  0.00     0.047 C
HETATM    3  C8  UNL     1      18.919  12.568   7.029  1.00  0.00     0.128 C
HETATM    4  N3  UNL     1      18.805  11.140   6.814  1.00  0.00    -0.341 N
HETATM    5  C17 UNL     1      19.449  10.421   7.881  1.00  0.00     0.210 C
ENDROOT
BRANCH   1   6
HETATM    6  N2  UNL     1      20.052  11.098  10.185  1.00  0.00    -0.368 N
ATOM      7  H2  UNL     1      20.872  11.408  10.706  1.00  0.00     0.161 HD
BRANCH   6   8
HETATM    8  C5  UNL     1      19.110  10.307  10.850  1.00  0.00     0.125 A
HETATM    9  N1  UNL     1      17.862  10.716  11.126  1.00  0.00    -0.321 N
HETATM   10  C4  UNL     1      16.941   9.978  11.761  1.00  0.00     0.166 A
ATOM     11  H1  UNL     1      17.596  11.656  10.832  1.00  0.00     0.169 HD
HETATM   12  C21 UNL     1      17.339   8.711  12.142  1.00  0.00     0.086 A
HETATM   13  C20 UNL     1      18.613   8.239  11.883  1.00  0.00     0.056 A
HETATM   14 CL2  UNL     1      16.197   7.689  12.974  1.00  0.00    -0.080 Cl
HETATM   15  C19 UNL     1      19.527   9.025  11.231  1.00  0.00     0.079 A
HETATM   16 CL1  UNL     1      21.162   8.456  10.883  1.00  0.00    -0.080 Cl
BRANCH  10  17
HETATM   17  O1  UNL     1      15.655  10.412  12.040  1.00  0.00    -0.330 OA
BRANCH  17  18
HETATM   18  C2  UNL     1      15.044  11.527  11.477  1.00  0.00     0.122 C
HETATM   19  C1  UNL     1      13.958  11.990  12.454  1.00  0.00     0.040 C
HETATM   20  C3  UNL     1      14.315  11.092  10.217  1.00  0.00     0.040 C
ENDBRANCH  17  18
ENDBRANCH  10  17
ENDBRANCH   6   8
ENDBRANCH   1   6
BRANCH   5  21
HETATM   21  C18 UNL     1      20.603   9.609   7.381  1.00  0.00     0.199 C
HETATM   22  O4  UNL     1      20.424   8.383   7.225  1.00  0.00    -0.646 OA
HETATM   23  O5  UNL     1      21.817  10.182   7.105  1.00  0.00    -0.646 OA
ENDBRANCH   5  21
BRANCH   4  24
HETATM   24  C9  UNL     1      18.133  10.571   5.676  1.00  0.00     0.175 C
HETATM   25  S1  UNL     1      18.143  11.451   4.307  1.00  0.00    -0.041 SA
BRANCH  24  26
HETATM   26  N4  UNL     1      17.539   9.292   5.748  1.00  0.00    -0.333 N
ATOM     27  H4  UNL     1      18.006   8.561   5.213  1.00  0.00     0.168 HD
BRANCH  26  28
HETATM   28  C10 UNL     1      16.397   8.888   6.454  1.00  0.00     0.034 A
HETATM   29  C11 UNL     1      15.132   8.796   5.912  1.00  0.00     0.031 A
HETATM   30  C12 UNL     1      14.087   8.346   6.719  1.00  0.00     0.025 A
HETATM   31  C13 UNL     1      14.289   7.998   8.030  1.00  0.00     0.059 A
HETATM   32  C15 UNL     1      15.555   8.096   8.560  1.00  0.00     0.025 A
HETATM   33  C16 UNL     1      16.602   8.534   7.794  1.00  0.00     0.031 A
BRANCH  31  34
HETATM   34  S2  UNL     1      12.980   7.441   9.016  1.00  0.00     0.171 S
HETATM   35  C14 UNL     1      13.387   7.459  10.752  1.00  0.00     0.167 C
HETATM   36  O2  UNL     1      11.716   8.247   8.782  1.00  0.00    -0.223 OA
HETATM   37  O3  UNL     1      12.642   6.023   8.601  1.00  0.00    -0.223 OA
ENDBRANCH  31  34
ENDBRANCH  26  28
ENDBRANCH  24  26
ENDBRANCH   4  24
TORSDOF 9
ENDMDL