MODEL 1
REMARK VINA RESULT: -7.709456152      0.000      0.000
REMARK  13 active torsions:
REMARK  status: ('A' for Active; 'I' for Inactive)
REMARK    1  A    between atoms: C2_2  and  C3_3
REMARK    2  A    between atoms: C2_2  and  C5_7
REMARK    3  A    between atoms: C5_7  and  O1_9
REMARK    4  A    between atoms: C5_7  and  C7_11
REMARK    5  A    between atoms: C12_17  and  O3_18
REMARK    6  A    between atoms: O3_18  and  C13_19
REMARK    7  A    between atoms: C13_19  and  C14_21
REMARK    8  A    between atoms: C14_21  and  C15_22
REMARK    9  A    between atoms: C14_21  and  N1_29
REMARK   10  A    between atoms: C15_22  and  C16_23
REMARK       I    between atoms: N1_29  and  C22_31
REMARK   11  A    between atoms: C22_31  and  O6_33
REMARK   12  A    between atoms: O6_33  and  C23_34
REMARK   13  A    between atoms: C28_39  and  O7_41
ROOT
HETATM    1  C7  UNL     1      16.181   8.842   8.012  1.00  0.00     0.156 C
HETATM    2  C8  UNL     1      14.988   8.016   8.333  1.00  0.00     0.035 C
HETATM    3  C9  UNL     1      14.677   8.147   9.838  1.00  0.00     0.013 C
HETATM    4  C10 UNL     1      15.935   7.793  10.542  1.00  0.00     0.051 C
HETATM    5  C11 UNL     1      16.937   8.894  10.150  1.00  0.00     0.158 C
HETATM    6  O2  UNL     1      17.273   8.598   8.850  1.00  0.00    -0.374 OA
HETATM    7  C12 UNL     1      18.042   8.582  11.132  1.00  0.00     0.164 C
HETATM    8  C27 UNL     1      17.353   8.323  12.404  1.00  0.00     0.073 C
HETATM    9  C28 UNL     1      15.922   7.935  12.013  1.00  0.00     0.063 C
HETATM   10  C29 UNL     1      14.897   8.887  12.546  1.00  0.00     0.046 C
ENDROOT
BRANCH   7  11
HETATM   11  O3  UNL     1      19.039   9.560  11.156  1.00  0.00    -0.312 OA
BRANCH  11  12
HETATM   12  C13 UNL     1      20.382   9.307  10.772  1.00  0.00     0.282 C
HETATM   13  O4  UNL     1      20.843   8.255  11.259  1.00  0.00    -0.263 OA
BRANCH  12  14
HETATM   14  C14 UNL     1      21.096  10.229   9.881  1.00  0.00     0.190 C
BRANCH  14  15
HETATM   15  C15 UNL     1      20.270  10.567   8.654  1.00  0.00     0.074 C
BRANCH  15  16
HETATM   16  C16 UNL     1      20.982  11.329   7.632  1.00  0.00    -0.056 A
HETATM   17  C17 UNL     1      22.120  10.779   7.047  1.00  0.00     0.007 A
HETATM   18  C18 UNL     1      22.817  11.489   6.094  1.00  0.00     0.001 A
HETATM   19  C19 UNL     1      22.384  12.746   5.720  1.00  0.00     0.000 A
HETATM   20  C20 UNL     1      21.258  13.308   6.288  1.00  0.00     0.001 A
HETATM   21  C21 UNL     1      20.566  12.592   7.241  1.00  0.00     0.007 A
ENDBRANCH  15  16
ENDBRANCH  14  15
BRANCH  14  22
HETATM   22  N1  UNL     1      21.346  11.528  10.518  1.00  0.00    -0.323 N
HETATM   23  C22 UNL     1      22.681  11.943  10.780  1.00  0.00     0.362 C
HETATM   24  O5  UNL     1      23.672  11.213  10.464  1.00  0.00    -0.238 OA
ATOM     25  H1  UNL     1      20.564  12.132  10.772  1.00  0.00     0.165 HD
BRANCH  23  26
HETATM   26  O6  UNL     1      22.966  13.154  11.388  1.00  0.00    -0.294 OA
BRANCH  26  27
HETATM   27  C23 UNL     1      22.817  14.355  10.631  1.00  0.00     0.061 C
HETATM   28  C24 UNL     1      21.355  14.714  10.485  1.00  0.00     0.046 C
HETATM   29  C25 UNL     1      23.536  15.455  11.355  1.00  0.00     0.046 C
HETATM   30  C26 UNL     1      23.403  14.199   9.234  1.00  0.00     0.046 C
ENDBRANCH  26  27
ENDBRANCH  23  26
ENDBRANCH  14  22
ENDBRANCH  12  14
ENDBRANCH  11  12
ENDBRANCH   7  11
BRANCH   9  31
HETATM   31  O7  UNL     1      15.671   6.684  12.578  1.00  0.00    -0.390 OA
ATOM     32  H7  UNL     1      15.777   6.751  13.519  1.00  0.00     0.210 HD
ENDBRANCH   9  31
BRANCH   1  33
HETATM   33  C5  UNL     1      16.715   8.609   6.611  1.00  0.00     0.089 C
HETATM   34  C6  UNL     1      16.287   7.266   6.134  1.00  0.00     0.049 C
BRANCH  33  35
HETATM   35  C2  UNL     1      16.516   9.740   5.679  1.00  0.00     0.090 C
HETATM   36  C1  UNL     1      16.106   9.431   4.285  1.00  0.00     0.019 C
BRANCH  35  37
HETATM   37  C3  UNL     1      17.661  10.751   5.681  1.00  0.00     0.246 C
HETATM   38  C4  UNL     1      17.472  11.850   4.690  1.00  0.00     0.090 C
HETATM   39  F1  UNL     1      18.865  10.140   5.598  1.00  0.00    -0.206 F
HETATM   40  F2  UNL     1      17.598  11.336   6.959  1.00  0.00    -0.206 F
ENDBRANCH  35  37
ENDBRANCH  33  35
BRANCH  33  41
HETATM   41  O1  UNL     1      18.137   8.489   6.839  1.00  0.00    -0.387 OA
ATOM     42  H1  UNL     1      18.294   7.616   7.180  1.00  0.00     0.210 HD
ENDBRANCH  33  41
ENDBRANCH   1  33
TORSDOF 13
ENDMDL