MODEL 2
REMARK VINA RESULT: -8.733057559      6.178      9.285
REMARK  9 active torsions:
REMARK  status: ('A' for Active; 'I' for Inactive)
REMARK    1  A    between atoms: O1_2  and  C2_3
REMARK    2  A    between atoms: C5_6  and  N1_7
REMARK       I    between atoms: N1_7  and  C6_9
REMARK    3  A    between atoms: C6_9  and  C7_11
REMARK    4  A    between atoms: C7_11  and  O3_12
REMARK    5  A    between atoms: O3_12  and  C8_13
REMARK    6  A    between atoms: C8_13  and  C9_15
REMARK    7  A    between atoms: C11_20  and  C12_21
REMARK    8  A    between atoms: C18_30  and  O7_31
REMARK    9  A    between atoms: C18_30  and  C19_33
ROOT
HETATM    1  C9  UNL     1      11.532  10.662   9.501  1.00  0.00     0.244 C
HETATM    2  C10 UNL     1      11.243   9.164   9.508  1.00  0.00     0.239 C
HETATM    3  O5  UNL     1      10.268   8.655   8.927  1.00  0.00    -0.272 OA
HETATM    4  N2  UNL     1      12.198   8.417  10.243  1.00  0.00    -0.330 N
ATOM      5  H2  UNL     1      12.147   7.409  10.396  1.00  0.00     0.165 HD
HETATM    6  C11 UNL     1      13.273   9.283  10.760  1.00  0.00     0.265 C
HETATM    7  O6  UNL     1      12.667  10.169  11.587  1.00  0.00    -0.321 OA
HETATM    8  C18 UNL     1      11.771  11.018  10.910  1.00  0.00     0.215 C
ENDROOT
BRANCH   1   9
HETATM    9  C8  UNL     1      10.443  11.259   8.778  1.00  0.00     0.278 C
HETATM   10  O4  UNL     1       9.257  11.164   9.263  1.00  0.00    -0.264 OA
BRANCH   9  11
HETATM   11  O3  UNL     1      10.473  11.970   7.576  1.00  0.00    -0.311 OA
BRANCH  11  12
HETATM   12  C7  UNL     1      10.620  11.225   6.377  1.00  0.00     0.281 C
BRANCH  12  13
HETATM   13  C6  UNL     1      12.003  10.720   6.163  1.00  0.00     0.246 C
HETATM   14  N1  UNL     1      12.262   9.319   6.213  1.00  0.00    -0.325 N
ATOM     15  H1  UNL     1      11.462   8.714   6.399  1.00  0.00     0.169 HD
HETATM   16  O2  UNL     1      12.903  11.530   5.947  1.00  0.00    -0.271 OA
BRANCH  14  17
HETATM   17  C5  UNL     1      13.491   8.689   6.035  1.00  0.00     0.035 A
HETATM   18  C4  UNL     1      14.247   8.669   4.887  1.00  0.00     0.032 A
HETATM   19  C3  UNL     1      15.446   7.953   4.861  1.00  0.00     0.039 A
HETATM   20  C2  UNL     1      15.909   7.254   5.959  1.00  0.00     0.068 A
HETATM   21  C26 UNL     1      15.152   7.284   7.089  1.00  0.00     0.039 A
HETATM   22  C25 UNL     1      13.974   7.973   7.150  1.00  0.00     0.032 A
BRANCH  20  23
HETATM   23  O1  UNL     1      17.105   6.541   5.929  1.00  0.00    -0.356 OA
HETATM   24  C1  UNL     1      17.086   5.116   5.873  1.00  0.00     0.210 C
ENDBRANCH  20  23
ENDBRANCH  14  17
ENDBRANCH  12  13
ENDBRANCH  11  12
ENDBRANCH   9  11
ENDBRANCH   1   9
BRANCH   8  25
HETATM   25  O7  UNL     1      10.562  10.897  11.612  1.00  0.00    -0.360 OA
ATOM     26  H7  UNL     1      10.503  11.610  12.237  1.00  0.00     0.213 HD
ENDBRANCH   8  25
BRANCH   8  27
HETATM   27  C19 UNL     1      12.266  12.415  11.139  1.00  0.00     0.005 A
HETATM   28  C20 UNL     1      13.483  12.899  10.823  1.00  0.00     0.015 A
HETATM   29  C21 UNL     1      13.850  14.221  11.082  1.00  0.00     0.043 A
HETATM   30  C22 UNL     1      12.958  15.070  11.677  1.00  0.00     0.116 A
HETATM   31  F1  UNL     1      13.273  16.374  11.952  1.00  0.00    -0.206 F
HETATM   32  C23 UNL     1      11.710  14.597  12.007  1.00  0.00     0.043 A
HETATM   33  C24 UNL     1      11.370  13.300  11.746  1.00  0.00     0.015 A
ENDBRANCH   8  27
BRANCH   6  34
HETATM   34  C12 UNL     1      14.348   8.458  11.241  1.00  0.00     0.034 A
HETATM   35  C13 UNL     1      14.315   7.493  12.212  1.00  0.00     0.046 A
HETATM   36 CL1  UNL     1      12.769   7.116  12.937  1.00  0.00    -0.084 Cl
HETATM   37  C14 UNL     1      15.414   6.799  12.648  1.00  0.00     0.024 A
HETATM   38  C15 UNL     1      16.645   7.069  12.092  1.00  0.00     0.003 A
HETATM   39  C16 UNL     1      16.738   8.031  11.109  1.00  0.00     0.024 A
HETATM   40  C17 UNL     1      15.622   8.715  10.687  1.00  0.00     0.046 A
HETATM   41 CL2  UNL     1      15.836   9.949   9.460  1.00  0.00    -0.084 Cl
ENDBRANCH   6  34
TORSDOF 9
ENDMDL