MODEL 2
REMARK VINA RESULT: -7.380572998      1.441      1.775
REMARK  5 active torsions:
REMARK  status: ('A' for Active; 'I' for Inactive)
REMARK    1  A    between atoms: C3_3  and  C4_4
REMARK    2  A    between atoms: N1_5  and  N2_7
REMARK       I    between atoms: N2_7  and  C5_9
REMARK    3  A    between atoms: C5_9  and  C6_11
REMARK    4  A    between atoms: C6_11  and  N3_12
REMARK       I    between atoms: N3_12  and  C7_14
REMARK       I    between atoms: C7_14  and  N4_16
REMARK    5  A    between atoms: N4_16  and  C8_18
ROOT
HETATM    1  N2  UNL     1      20.576  10.406  11.217  1.00  0.00    -0.269 N
ATOM      2  H2  UNL     1      20.192  10.731  12.105  1.00  0.00     0.190 HD
HETATM    3  C5  UNL     1      20.377   9.083  10.824  1.00  0.00     0.253 C
HETATM    4  O1  UNL     1      20.873   8.687   9.717  1.00  0.00    -0.270 OA
ENDROOT
BRANCH   3   5
HETATM    5  C6  UNL     1      19.633   8.086  11.595  1.00  0.00     0.228 C
BRANCH   5   6
HETATM    6  N3  UNL     1      18.469   8.584  12.266  1.00  0.00    -0.334 N
HETATM    7  C7  UNL     1      17.133   8.395  11.758  1.00  0.00     0.321 C
HETATM    8  O2  UNL     1      17.051   7.751  10.689  1.00  0.00    -0.247 OA
HETATM    9  N4  UNL     1      16.059   8.931  12.476  1.00  0.00    -0.307 N
ATOM     10  H4  UNL     1      16.306   9.430  13.330  1.00  0.00     0.170 HD
ATOM     11  H3  UNL     1      18.591   9.094  13.141  1.00  0.00     0.164 HD
BRANCH   9  12
HETATM   12  C8  UNL     1      14.681   8.877  12.181  1.00  0.00     0.058 A
HETATM   13  C9  UNL     1      13.993   9.847  11.520  1.00  0.00     0.031 A
HETATM   14  C10 UNL     1      12.626   9.699  11.275  1.00  0.00     0.002 A
HETATM   15  C11 UNL     1      11.932   8.582  11.687  1.00  0.00     0.002 A
HETATM   16  C12 UNL     1      12.616   7.603  12.351  1.00  0.00     0.026 A
HETATM   17  C13 UNL     1      13.955   7.750  12.589  1.00  0.00     0.060 A
HETATM   18 CL1  UNL     1      14.803   6.462  13.450  1.00  0.00    -0.082 Cl
ENDBRANCH   9  12
ENDBRANCH   5   6
ENDBRANCH   3   5
BRANCH   1  19
HETATM   19  N1  UNL     1      21.304  11.300  10.402  1.00  0.00    -0.308 N
HETATM   20  C4  UNL     1      22.543  11.552  10.603  1.00  0.00     0.126 C
ATOM     21  H1  UNL     1      20.827  11.761   9.627  1.00  0.00     0.186 HD
BRANCH  20  22
HETATM   22  C3  UNL     1      23.265  12.488   9.732  1.00  0.00     0.030 A
HETATM   23  C2  UNL     1      23.573  13.806   9.941  1.00  0.00    -0.024 A
HETATM   24  C1  UNL     1      23.143  14.473  11.235  1.00  0.00     0.051 C
HETATM   25  C15 UNL     1      24.252  14.437   8.961  1.00  0.00     0.047 A
HETATM   26  C14 UNL     1      24.572  13.706   7.852  1.00  0.00     0.093 A
HETATM   27 BR1  UNL     1      24.800  16.305   9.025  1.00  0.00    -0.048 Br
HETATM   28  S1  UNL     1      23.927  12.173   8.192  1.00  0.00    -0.075 SA
HETATM   29 CL2  UNL     1      25.442  14.187   6.391  1.00  0.00    -0.075 Cl
ENDBRANCH  20  22
ENDBRANCH   1  19
TORSDOF 5
ENDMDL