MODEL 3
REMARK VINA RESULT: -8.648676696      5.013     10.825
REMARK  7 active torsions:
REMARK  status: ('A' for Active; 'I' for Inactive)
REMARK       I    between atoms: C1_2  and  N1_3
REMARK    1  A    between atoms: C1_2  and  C16_25
REMARK    2  A    between atoms: N1_3  and  O2_5
REMARK    3  A    between atoms: O2_5  and  C2_6
REMARK    4  A    between atoms: C2_6  and  C3_8
REMARK    5  A    between atoms: C6_11  and  C7_12
REMARK       I    between atoms: C7_12  and  N2_14
REMARK    6  A    between atoms: N2_14  and  C8_16
REMARK       I    between atoms: C16_25  and  N3_27
REMARK    7  A    between atoms: N3_27  and  C17_29
ROOT
HETATM    1  C2  UNL     1      16.196  10.280  11.933  1.00  0.00     0.315 C
HETATM    2  O3  UNL     1      15.792   9.126  11.689  1.00  0.00    -0.257 OA
ENDROOT
BRANCH   1   3
HETATM    3  O2  UNL     1      17.529  10.487  12.201  1.00  0.00    -0.192 OA
BRANCH   3   4
HETATM    4  N1  UNL     1      18.514  10.620  11.292  1.00  0.00    -0.217 N
HETATM    5  C1  UNL     1      19.505   9.607  11.184  1.00  0.00     0.333 C
HETATM    6  O1  UNL     1      19.459   8.581  11.945  1.00  0.00    -0.260 OA
ATOM      7  H1  UNL     1      18.549  11.441  10.687  1.00  0.00     0.198 HD
BRANCH   5   8
HETATM    8  C16 UNL     1      20.588   9.682  10.234  1.00  0.00     0.316 C
HETATM    9  O5  UNL     1      21.329   8.695  10.044  1.00  0.00    -0.262 OA
HETATM   10  N3  UNL     1      20.822  10.869   9.510  1.00  0.00    -0.314 N
ATOM     11  H3  UNL     1      20.202  11.660   9.682  1.00  0.00     0.169 HD
BRANCH  10  12
HETATM   12  C17 UNL     1      21.855  11.038   8.561  1.00  0.00     0.113 A
HETATM   13  C18 UNL     1      23.099  11.550   8.920  1.00  0.00     0.146 A
HETATM   14  F1  UNL     1      23.303  11.887  10.212  1.00  0.00    -0.204 F
HETATM   15  C19 UNL     1      24.072  11.696   7.961  1.00  0.00     0.045 A
HETATM   16  C20 UNL     1      23.862  11.349   6.635  1.00  0.00     0.006 A
HETATM   17  C21 UNL     1      22.622  10.844   6.306  1.00  0.00     0.045 A
HETATM   18  C22 UNL     1      21.636  10.694   7.262  1.00  0.00     0.146 A
HETATM   19  F2  UNL     1      20.404  10.191   6.935  1.00  0.00    -0.204 F
ENDBRANCH  10  12
ENDBRANCH   5   8
ENDBRANCH   3   4
ENDBRANCH   1   3
BRANCH   1  20
HETATM   20  C3  UNL     1      15.278  11.388  11.933  1.00  0.00     0.041 A
HETATM   21  C4  UNL     1      15.682  12.707  11.900  1.00  0.00     0.018 A
HETATM   22  C5  UNL     1      14.748  13.716  11.910  1.00  0.00     0.018 A
HETATM   23  C6  UNL     1      13.390  13.480  11.952  1.00  0.00     0.032 A
HETATM   24  C14 UNL     1      12.994  12.173  11.984  1.00  0.00     0.018 A
HETATM   25  C15 UNL     1      13.926  11.133  11.975  1.00  0.00     0.018 A
BRANCH  23  26
HETATM   26  C7  UNL     1      12.423  14.611  11.960  1.00  0.00     0.256 C
HETATM   27  O4  UNL     1      12.876  15.735  11.628  1.00  0.00    -0.267 OA
HETATM   28  N2  UNL     1      11.096  14.437  12.315  1.00  0.00    -0.323 N
ATOM     29  H2  UNL     1      10.823  13.490  12.575  1.00  0.00     0.169 HD
BRANCH  28  30
HETATM   30  C8  UNL     1      10.085  15.401  12.362  1.00  0.00     0.035 A
HETATM   31  C9  UNL     1       9.518  15.878  11.165  1.00  0.00     0.031 A
HETATM   32  C10 UNL     1       8.531  16.835  11.133  1.00  0.00     0.026 A
HETATM   33  C11 UNL     1       8.051  17.369  12.298  1.00  0.00     0.034 A
HETATM   34 CL1  UNL     1       6.786  18.590  12.192  1.00  0.00    -0.084 Cl
HETATM   35  C12 UNL     1       8.567  16.940  13.470  1.00  0.00     0.026 A
HETATM   36  C13 UNL     1       9.573  15.966  13.499  1.00  0.00     0.031 A
ENDBRANCH  28  30
ENDBRANCH  23  26
ENDBRANCH   1  20
TORSDOF 7
ENDMDL