MODEL 2
REMARK VINA RESULT: -7.714778809      6.770      9.053
REMARK  8 active torsions:
REMARK  status: ('A' for Active; 'I' for Inactive)
REMARK    1  A    between atoms: C2_2  and  C4_4
REMARK    2  A    between atoms: C11_13  and  O3_14
REMARK    3  A    between atoms: C12_16  and  O4_17
REMARK    4  A    between atoms: C16_22  and  O5_23
REMARK    5  A    between atoms: C18_27  and  C19_28
REMARK    6  A    between atoms: C19_28  and  C21_30
REMARK    7  A    between atoms: C21_30  and  C22_31
REMARK    8  A    between atoms: C22_31  and  C23_32
ROOT
HETATM    1  C4  UNL     1      19.958   9.879  10.337  1.00  0.00     0.167 C
HETATM    2  O1  UNL     1      19.720   9.136   9.152  1.00  0.00    -0.311 OA
HETATM    3  C5  UNL     1      20.522   9.399   8.063  1.00  0.00     0.264 C
HETATM    4  O2  UNL     1      20.734   8.491   7.234  1.00  0.00    -0.265 OA
HETATM    5  C6  UNL     1      21.092  10.789   7.953  1.00  0.00     0.095 C
HETATM    6  C7  UNL     1      21.254  11.074   6.499  1.00  0.00     0.016 C
HETATM    7  C8  UNL     1      21.235  12.499   6.118  1.00  0.00     0.013 C
HETATM    8  C9  UNL     1      20.326  13.384   6.981  1.00  0.00    -0.007 C
HETATM    9  C10 UNL     1      20.453  14.772   6.405  1.00  0.00     0.018 C
HETATM   10  C11 UNL     1      18.902  13.004   6.558  1.00  0.00     0.155 C
HETATM   11  C12 UNL     1      18.015  12.486   7.608  1.00  0.00     0.148 C
HETATM   12  C13 UNL     1      18.761  11.355   8.262  1.00  0.00     0.046 C
HETATM   13  C14 UNL     1      20.149  11.715   8.669  1.00  0.00    -0.008 C
HETATM   14  C15 UNL     1      20.196  11.327  10.142  1.00  0.00     0.065 C
HETATM   15  C16 UNL     1      21.455  11.694  10.783  1.00  0.00     0.188 C
HETATM   16  C17 UNL     1      22.160  12.830  10.139  1.00  0.00     0.130 C
HETATM   17  F1  UNL     1      23.320  13.069  10.859  1.00  0.00    -0.207 F
HETATM   18  C18 UNL     1      21.780  13.552   9.091  1.00  0.00    -0.013 C
HETATM   19  C25 UNL     1      20.531  13.179   8.431  1.00  0.00     0.042 C
ENDROOT
BRANCH  18  20
HETATM   20  C19 UNL     1      22.764  14.603   8.750  1.00  0.00    -0.074 C
HETATM   21  C20 UNL     1      22.352  16.033   8.884  1.00  0.00     0.044 C
BRANCH  20  22
HETATM   22  C21 UNL     1      23.613  14.354   7.530  1.00  0.00     0.038 C
BRANCH  22  23
HETATM   23  C22 UNL     1      24.910  13.648   7.897  1.00  0.00     0.037 C
BRANCH  23  24
HETATM   24  C23 UNL     1      24.730  12.212   7.506  1.00  0.00     0.048 C
HETATM   25  C24 UNL     1      24.782  11.861   6.235  1.00  0.00     0.263 C
HETATM   26  F2  UNL     1      24.617  10.566   5.898  1.00  0.00    -0.173 F
HETATM   27  F3  UNL     1      24.994  12.782   5.296  1.00  0.00    -0.173 F
ENDBRANCH  23  24
ENDBRANCH  22  23
ENDBRANCH  20  22
ENDBRANCH  18  20
BRANCH  15  28
HETATM   28  O5  UNL     1      22.403  10.653  10.905  1.00  0.00    -0.388 OA
ATOM     29  H5  UNL     1      22.936  10.675  11.690  1.00  0.00     0.210 HD
ENDBRANCH  15  28
BRANCH  10  30
HETATM   30  O3  UNL     1      18.887  12.115   5.477  1.00  0.00    -0.392 OA
ATOM     31  H3  UNL     1      18.049  11.678   5.380  1.00  0.00     0.210 HD
ENDBRANCH  10  30
BRANCH   1  32
HETATM   32  C2  UNL     1      18.936   9.527  11.361  1.00  0.00    -0.064 C
HETATM   33  C1  UNL     1      17.990  10.300  11.812  1.00  0.00     0.016 C
HETATM   34  C3  UNL     1      19.069   8.114  11.904  1.00  0.00     0.045 C
ENDBRANCH   1  32
BRANCH  11  35
HETATM   35  O4  UNL     1      17.418  13.381   8.453  1.00  0.00    -0.393 OA
ATOM     36  H4  UNL     1      16.477  13.329   8.572  1.00  0.00     0.210 HD
ENDBRANCH  11  35
TORSDOF 8
ENDMDL