MODEL 5
REMARK VINA RESULT: -7.072233083      3.102      4.466
REMARK  7 active torsions:
REMARK  status: ('A' for Active; 'I' for Inactive)
REMARK    1  A    between atoms: C2_2  and  C3_3
REMARK    2  A    between atoms: C3_3  and  C4_4
REMARK    3  A    between atoms: C4_4  and  C5_5
REMARK    4  A    between atoms: C9_9  and  C10_10
REMARK       I    between atoms: C10_10  and  N1_12
REMARK    5  A    between atoms: N1_12  and  C11_14
REMARK    6  A    between atoms: C12_21  and  C13_22
REMARK    7  A    between atoms: C13_22  and  O3_24
ROOT
HETATM    1  C4  UNL     1      12.844  10.936  10.959  1.00  0.00     0.011 C
HETATM    2  C8  UNL     1      12.662   9.523  11.575  1.00  0.00     0.002 C
HETATM    3  C9  UNL     1      13.372   8.340  11.186  1.00  0.00     0.026 C
HETATM    4  C12 UNL     1      13.981   8.261   9.875  1.00  0.00     0.160 C
HETATM    5  C15 UNL     1      13.379   9.358   9.027  1.00  0.00     0.010 A
HETATM    6  C16 UNL     1      13.426   9.074   7.641  1.00  0.00     0.146 A
HETATM    7  F1  UNL     1      13.792   7.836   7.215  1.00  0.00    -0.204 F
HETATM    8  C17 UNL     1      13.111  10.016   6.726  1.00  0.00     0.074 A
HETATM    9 CL1  UNL     1      13.175   9.622   5.010  1.00  0.00    -0.081 Cl
HETATM   10  C18 UNL     1      12.749  11.251   7.160  1.00  0.00     0.051 A
HETATM   11  C19 UNL     1      12.714  11.496   8.519  1.00  0.00     0.043 A
HETATM   12 CL2  UNL     1      12.489  13.173   8.909  1.00  0.00    -0.084 Cl
HETATM   13  C20 UNL     1      13.005  10.604   9.540  1.00  0.00    -0.013 A
ENDROOT
BRANCH   3  14
HETATM   14  C10 UNL     1      14.103   7.640  12.290  1.00  0.00     0.266 C
HETATM   15  O1  UNL     1      13.914   6.442  12.471  1.00  0.00    -0.267 OA
HETATM   16  N1  UNL     1      14.985   8.339  13.100  1.00  0.00    -0.153 N
ATOM     17  H1  UNL     1      14.596   8.783  13.933  1.00  0.00     0.187 HD
BRANCH  16  18
HETATM   18  C11 UNL     1      16.252   8.481  12.900  1.00  0.00     0.710 A
HETATM   19  N2  UNL     1      16.989   9.581  12.772  1.00  0.00    -0.117 N
HETATM   20  N3  UNL     1      18.276   9.254  12.575  1.00  0.00     0.006 NA
ATOM     21  H2  UNL     1      16.629  10.534  12.817  1.00  0.00     0.202 HD
HETATM   22  N4  UNL     1      18.332   7.936  12.582  1.00  0.00     0.006 NA
HETATM   23  N5  UNL     1      17.105   7.442  12.780  1.00  0.00    -0.117 N
ATOM     24  H5  UNL     1      16.858   6.454  12.830  1.00  0.00     0.202 HD
ENDBRANCH  16  18
ENDBRANCH   3  14
BRANCH   4  25
HETATM   25  C13 UNL     1      15.467   8.332   9.759  1.00  0.00     0.271 C
HETATM   26  O2  UNL     1      16.081   7.239   9.632  1.00  0.00    -0.264 OA
BRANCH  25  27
HETATM   27  O3  UNL     1      16.248   9.453   9.777  1.00  0.00    -0.326 OA
HETATM   28  C14 UNL     1      17.442   9.541   9.023  1.00  0.00     0.213 C
ENDBRANCH  25  27
ENDBRANCH   4  25
BRANCH   1  29
HETATM   29  C3  UNL     1      14.034  11.436  11.673  1.00  0.00     0.018 C
BRANCH  29  30
HETATM   30  C2  UNL     1      14.975  12.436  11.154  1.00  0.00    -0.003 C
HETATM   31  C1  UNL     1      14.672  13.784  11.877  1.00  0.00     0.005 C
ENDBRANCH  29  30
ENDBRANCH   1  29
BRANCH   1  32
HETATM   32  C5  UNL     1      11.540  11.479  11.476  1.00  0.00    -0.006 C
HETATM   33  C6  UNL     1      10.544  10.280  11.637  1.00  0.00     0.011 C
HETATM   34  C7  UNL     1      11.221  12.366  12.543  1.00  0.00     0.011 C
ENDBRANCH   1  32
TORSDOF 7
ENDMDL