MODEL 1
REMARK VINA RESULT: -7.373697330      0.000      0.000
REMARK  8 active torsions:
REMARK  status: ('A' for Active; 'I' for Inactive)
REMARK    1  A    between atoms: C3_3  and  C5_5
REMARK    2  A    between atoms: C9_9  and  O1_10
REMARK    3  A    between atoms: C10_12  and  C11_13
REMARK    4  A    between atoms: C11_13  and  C12_14
REMARK    5  A    between atoms: C11_13  and  N1_17
REMARK    6  A    between atoms: C12_14  and  C13_15
REMARK       I    between atoms: N1_17  and  C15_19
REMARK    7  A    between atoms: C15_19  and  C16_21
REMARK    8  A    between atoms: C19_28  and  O4_29
ROOT
HETATM    1  C1  UNL     1      16.937   9.287   8.768  1.00  0.00     0.016 C
HETATM    2  C2  UNL     1      15.668   8.912   8.808  1.00  0.00    -0.067 C
HETATM    3  C3  UNL     1      15.135   8.168   7.659  1.00  0.00    -0.021 C
HETATM    4  C4  UNL     1      15.693   6.806   7.427  1.00  0.00     0.020 C
HETATM    5  C7  UNL     1      13.640   8.029   7.792  1.00  0.00     0.017 C
HETATM    6  C8  UNL     1      13.109   9.356   8.194  1.00  0.00     0.043 C
HETATM    7  C9  UNL     1      13.579   9.897   9.505  1.00  0.00     0.100 C
HETATM    8  C10 UNL     1      12.453   9.870  10.462  1.00  0.00     0.180 C
HETATM    9  O3  UNL     1      12.730   9.516  11.733  1.00  0.00    -0.375 OA
HETATM   10  C17 UNL     1      13.695   8.695  12.054  1.00  0.00     0.133 C
HETATM   11  C18 UNL     1      14.568   9.419  13.099  1.00  0.00     0.101 C
HETATM   12  C19 UNL     1      15.992   9.190  12.675  1.00  0.00     0.167 C
HETATM   13  O5  UNL     1      16.444  10.068  11.731  1.00  0.00    -0.354 OA
HETATM   14  C20 UNL     1      15.569  10.440  10.768  1.00  0.00     0.189 C
HETATM   15  C21 UNL     1      14.884   9.289  10.022  1.00  0.00     0.045 C
HETATM   16  C22 UNL     1      14.682   8.213  11.013  1.00  0.00     0.041 C
HETATM   17  C23 UNL     1      15.790   7.863  11.923  1.00  0.00     0.052 C
HETATM   18  C24 UNL     1      17.045   7.308  11.459  1.00  0.00     0.016 C
ENDROOT
BRANCH   8  19
HETATM   19  C11 UNL     1      11.640  11.134  10.572  1.00  0.00     0.116 C
BRANCH  19  20
HETATM   20  C12 UNL     1      11.193  11.337  12.009  1.00  0.00     0.027 C
BRANCH  20  21
HETATM   21  C13 UNL     1      11.354  12.728  12.516  1.00  0.00    -0.002 C
HETATM   22  C14 UNL     1      12.824  13.117  12.349  1.00  0.00     0.005 C
ENDBRANCH  20  21
ENDBRANCH  19  20
BRANCH  19  23
HETATM   23  N1  UNL     1      10.512  11.275   9.751  1.00  0.00    -0.346 N
HETATM   24  C15 UNL     1      10.557  12.073   8.588  1.00  0.00     0.325 C
HETATM   25  O2  UNL     1      11.579  12.714   8.195  1.00  0.00    -0.263 OA
ATOM     26  H1  UNL     1       9.648  10.794   9.998  1.00  0.00     0.163 HD
BRANCH  24  27
HETATM   27  C16 UNL     1       9.354  12.232   7.691  1.00  0.00     0.472 C
HETATM   28  F1  UNL     1       9.403  13.413   6.990  1.00  0.00    -0.162 F
HETATM   29  F2  UNL     1       8.177  12.056   8.349  1.00  0.00    -0.162 F
HETATM   30  F3  UNL     1       9.457  11.182   6.769  1.00  0.00    -0.162 F
ENDBRANCH  24  27
ENDBRANCH  19  23
ENDBRANCH   8  19
BRANCH   7  31
HETATM   31  O1  UNL     1      13.863  11.264   9.239  1.00  0.00    -0.386 OA
ATOM     32  H1  UNL     1      13.148  11.737   9.650  1.00  0.00     0.210 HD
ENDBRANCH   7  31
BRANCH   3  33
HETATM   33  C5  UNL     1      15.389   8.919   6.338  1.00  0.00     0.009 C
HETATM   34  C6  UNL     1      15.693   7.914   5.250  1.00  0.00     0.006 C
ENDBRANCH   3  33
BRANCH  12  35
HETATM   35  O4  UNL     1      16.866   9.055  13.720  1.00  0.00    -0.365 OA
ATOM     36  H4  UNL     1      16.984   8.158  14.009  1.00  0.00     0.213 HD
ENDBRANCH  12  35
TORSDOF 8
ENDMDL