MODEL 1
REMARK VINA RESULT: -8.188972082      0.000      0.000
REMARK  8 active torsions:
REMARK  status: ('A' for Active; 'I' for Inactive)
REMARK    1  A    between atoms: C5_5  and  O1_6
REMARK    2  A    between atoms: C7_9  and  N1_10
REMARK       I    between atoms: N1_10  and  C9_12
REMARK    3  A    between atoms: C9_12  and  O3_14
REMARK    4  A    between atoms: O3_14  and  C10_15
REMARK    5  A    between atoms: C13_18  and  C14_19
REMARK       I    between atoms: C14_19  and  N2_21
REMARK    6  A    between atoms: N2_21  and  C15_23
REMARK    7  A    between atoms: C15_23  and  N3_24
REMARK       I    between atoms: N3_24  and  C16_26
REMARK    8  A    between atoms: C16_26  and  C17_28
ROOT
HETATM    1  C10 UNL     1      16.839   9.263  12.376  1.00  0.00     0.081 A
HETATM    2  C11 UNL     1      17.299  10.442  11.797  1.00  0.00     0.038 A
HETATM    3  C12 UNL     1      18.565  10.559  11.318  1.00  0.00     0.020 A
HETATM    4  C13 UNL     1      19.464   9.483  11.394  1.00  0.00     0.032 A
HETATM    5  C18 UNL     1      19.041   8.307  11.960  1.00  0.00     0.020 A
HETATM    6  C19 UNL     1      17.732   8.213  12.444  1.00  0.00     0.038 A
ENDROOT
BRANCH   1   7
HETATM    7  O3  UNL     1      15.567   9.123  12.862  1.00  0.00    -0.261 OA
BRANCH   7   8
HETATM    8  C9  UNL     1      14.449   9.518  12.172  1.00  0.00     0.372 C
HETATM    9  N1  UNL     1      13.701   8.568  11.442  1.00  0.00    -0.297 N
HETATM   10  C8  UNL     1      14.142   7.192  11.440  1.00  0.00     0.162 C
HETATM   11  O2  UNL     1      14.106  10.723  12.198  1.00  0.00    -0.238 OA
BRANCH   9  12
HETATM   12  C7  UNL     1      12.544   8.983  10.736  1.00  0.00     0.047 A
HETATM   13  C2  UNL     1      12.703   9.369   9.416  1.00  0.00    -0.035 A
HETATM   14  C1  UNL     1      14.020   9.362   8.744  1.00  0.00     0.050 C
HETATM   15  C3  UNL     1      11.579   9.771   8.715  1.00  0.00     0.012 A
HETATM   16  C4  UNL     1      10.324   9.807   9.261  1.00  0.00     0.037 A
HETATM   17  C5  UNL     1      10.179   9.421  10.573  1.00  0.00     0.067 A
HETATM   18  C6  UNL     1      11.287   9.015  11.295  1.00  0.00     0.066 A
BRANCH  17  19
HETATM   19  O1  UNL     1       8.949   9.433  11.184  1.00  0.00    -0.361 OA
ATOM     20  H1  UNL     1       8.721   8.784  11.839  1.00  0.00     0.217 HD
ENDBRANCH  17  19
ENDBRANCH   9  12
ENDBRANCH   7   8
ENDBRANCH   1   7
BRANCH   4  21
HETATM   21  C14 UNL     1      20.815   9.634  10.872  1.00  0.00     0.252 C
HETATM   22  O4  UNL     1      21.316   8.720  10.136  1.00  0.00    -0.268 OA
HETATM   23  N2  UNL     1      21.589  10.764  11.157  1.00  0.00    -0.341 N
ATOM     24  H2  UNL     1      21.225  11.516  11.741  1.00  0.00     0.164 HD
BRANCH  23  25
HETATM   25  C15 UNL     1      22.943  10.833  10.591  1.00  0.00     0.249 C
BRANCH  25  26
HETATM   26  N3  UNL     1      22.936  11.406   9.280  1.00  0.00    -0.341 N
HETATM   27  C16 UNL     1      24.158  11.620   8.619  1.00  0.00     0.273 C
HETATM   28  O5  UNL     1      25.279  11.319   9.156  1.00  0.00    -0.269 OA
ATOM     29  H3  UNL     1      22.056  11.657   8.831  1.00  0.00     0.164 HD
BRANCH  27  30
HETATM   30  C17 UNL     1      24.176  12.215   7.255  1.00  0.00     0.269 C
HETATM   31 CL1  UNL     1      24.355  10.945   6.019  1.00  0.00    -0.073 Cl
HETATM   32 CL2  UNL     1      25.443  13.442   7.095  1.00  0.00    -0.073 Cl
HETATM   33 CL3  UNL     1      22.595  13.004   6.947  1.00  0.00    -0.073 Cl
ENDBRANCH  27  30
ENDBRANCH  25  26
ENDBRANCH  23  25
ENDBRANCH   4  21
TORSDOF 8
ENDMDL