MODEL 2
REMARK VINA RESULT: -8.000661897      5.096      9.604
REMARK  8 active torsions:
REMARK  status: ('A' for Active; 'I' for Inactive)
REMARK    1  A    between atoms: C2_2  and  C3_3
REMARK    2  A    between atoms: C5_9  and  N3_10
REMARK    3  A    between atoms: N3_10  and  C6_12
REMARK    4  A    between atoms: C6_12  and  C7_13
REMARK    5  A    between atoms: C13_23  and  N5_24
REMARK    6  A    between atoms: C17_31  and  C18_32
REMARK    7  A    between atoms: C18_32  and  C19_33
REMARK    8  A    between atoms: C19_33  and  O2_36
ROOT
HETATM    1  C3  UNL     1      15.033   8.637  12.096  1.00  0.00     0.233 C
HETATM    2  F1  UNL     1      14.719   9.215  13.303  1.00  0.00    -0.215 F
HETATM    3  N1  UNL     1      16.474   8.606  11.897  1.00  0.00    -0.104 N
HETATM    4  C4  UNL     1      16.760   8.999  10.620  1.00  0.00     0.259 A
HETATM    5  N2  UNL     1      18.021   9.066  10.145  1.00  0.00    -0.154 N
ATOM      6  H2  UNL     1      18.180   9.365   9.182  1.00  0.00     0.188 HD
HETATM    7  C5  UNL     1      19.053   8.750  10.907  1.00  0.00     0.695 A
HETATM    8  N4  UNL     1      18.828   8.360  12.168  1.00  0.00    -0.022 N
ATOM      9  H4  UNL     1      19.609   8.112  12.775  1.00  0.00     0.203 HD
HETATM   10  C13 UNL     1      17.555   8.296  12.635  1.00  0.00     0.698 A
HETATM   11  O1  UNL     1      15.590   9.288   9.978  1.00  0.00    -0.304 OA
HETATM   12  C14 UNL     1      14.660   9.638  11.024  1.00  0.00     0.127 C
HETATM   13  C15 UNL     1      13.302   9.539  10.465  1.00  0.00     0.044 C
HETATM   14  C16 UNL     1      12.335  10.327  11.322  1.00  0.00     0.008 C
HETATM   15  C17 UNL     1      12.582  11.797  11.063  1.00  0.00    -0.012 C
HETATM   16  C22 UNL     1      14.033  12.044  10.757  1.00  0.00     0.008 C
HETATM   17  C23 UNL     1      14.961  11.047  11.425  1.00  0.00     0.044 C
ENDROOT
BRANCH   7  18
HETATM   18  N3  UNL     1      20.277   8.808  10.466  1.00  0.00    -0.225 N
ATOM     19  H3  UNL     1      20.995   8.265  10.947  1.00  0.00     0.177 HD
BRANCH  18  20
HETATM   20  C6  UNL     1      20.662   9.600   9.335  1.00  0.00     0.142 C
BRANCH  20  21
HETATM   21  C7  UNL     1      20.885  11.060   9.718  1.00  0.00     0.009 C
HETATM   22  C8  UNL     1      21.919  11.164  10.790  1.00  0.00     0.007 C
HETATM   23  C9  UNL     1      23.334  11.116  10.275  1.00  0.00     0.006 C
HETATM   24  C10 UNL     1      23.490  12.318   9.335  1.00  0.00     0.079 C
HETATM   25  C11 UNL     1      22.586  12.063   8.164  1.00  0.00     0.244 C
HETATM   26  F2  UNL     1      22.973  10.940   7.449  1.00  0.00    -0.206 F
HETATM   27  F3  UNL     1      22.687  13.157   7.298  1.00  0.00    -0.206 F
HETATM   28  C12 UNL     1      21.145  11.919   8.524  1.00  0.00     0.085 C
ENDBRANCH  20  21
ENDBRANCH  18  20
ENDBRANCH   7  18
BRANCH  10  29
HETATM   29  N5  UNL     1      17.371   7.932  13.859  1.00  0.00    -0.234 N
ATOM     30  H52 UNL     1      17.478   8.633  14.592  1.00  0.00     0.174 HD
ATOM     31  H51 UNL     1      17.114   6.961  14.039  1.00  0.00     0.174 HD
ENDBRANCH  10  29
BRANCH   1  32
HETATM   32  C2  UNL     1      14.341   7.345  11.962  1.00  0.00     0.066 C
HETATM   33  C1  UNL     1      14.228   6.508  13.208  1.00  0.00     0.010 C
ENDBRANCH   1  32
BRANCH  15  34
HETATM   34  C18 UNL     1      12.083  12.679  12.181  1.00  0.00     0.041 C
BRANCH  34  35
HETATM   35  C19 UNL     1      11.412  13.921  11.702  1.00  0.00     0.051 C
HETATM   36  C20 UNL     1      12.380  15.056  11.451  1.00  0.00     0.045 C
HETATM   37  C21 UNL     1      10.507  14.398  12.848  1.00  0.00     0.045 C
BRANCH  35  38
HETATM   38  O2  UNL     1      10.598  13.735  10.605  1.00  0.00    -0.391 OA
ATOM     39  H2  UNL     1      10.138  14.518  10.326  1.00  0.00     0.210 HD
ENDBRANCH  35  38
ENDBRANCH  34  35
ENDBRANCH  15  34
TORSDOF 8
ENDMDL