MODEL 1
REMARK VINA RESULT: -7.336861050      0.000      0.000
REMARK  8 active torsions:
REMARK  status: ('A' for Active; 'I' for Inactive)
REMARK    1  A    between atoms: C2_2  and  C3_3
REMARK    2  A    between atoms: C2_2  and  N3_21
REMARK    3  A    between atoms: C3_3  and  O1_4
REMARK    4  A    between atoms: O1_4  and  C4_5
REMARK       I    between atoms: C4_5  and  N1_7
REMARK    5  A    between atoms: C7_10  and  C8_11
REMARK    6  A    between atoms: C8_11  and  C9_12
REMARK    7  A    between atoms: C9_12  and  O3_13
REMARK    8  A    between atoms: N2_15  and  O4_17
ROOT
HETATM    1  C4  UNL     1      18.189   8.423  12.189  1.00  0.00     0.362 C
HETATM    2  O2  UNL     1      18.559   7.239  12.337  1.00  0.00    -0.238 OA
HETATM    3  N1  UNL     1      19.130   9.306  11.534  1.00  0.00    -0.328 N
HETATM    4  C5  UNL     1      18.704  10.681  11.357  1.00  0.00     0.128 C
HETATM    5  C6  UNL     1      19.583  11.213  10.214  1.00  0.00     0.025 C
HETATM    6  C7  UNL     1      20.989  11.192  10.747  1.00  0.00    -0.004 C
HETATM    7  C10 UNL     1      21.474   9.783  10.947  1.00  0.00     0.025 C
HETATM    8  C11 UNL     1      20.376   8.783  11.121  1.00  0.00     0.128 C
ENDROOT
BRANCH   1   9
HETATM    9  O1  UNL     1      16.990   8.810  12.624  1.00  0.00    -0.302 OA
BRANCH   9  10
HETATM   10  C3  UNL     1      15.937   8.119  13.151  1.00  0.00     0.205 C
BRANCH  10  11
HETATM   11  C2  UNL     1      14.976   7.401  12.293  1.00  0.00     0.108 C
HETATM   12  C1  UNL     1      13.996   6.469  12.930  1.00  0.00     0.034 C
BRANCH  11  13
HETATM   13  N3  UNL     1      14.236   8.244  11.405  1.00  0.00    -0.339 N
HETATM   14  C12 UNL     1      13.559   9.342  11.916  1.00  0.00     0.063 C
HETATM   15  C13 UNL     1      12.055   9.267  11.880  1.00  0.00     0.044 C
HETATM   16  C14 UNL     1      11.519   8.458  10.737  1.00  0.00     0.006 C
HETATM   17  C15 UNL     1      11.995   8.901   9.390  1.00  0.00     0.023 C
HETATM   18  C16 UNL     1      13.475   8.967   9.242  1.00  0.00     0.135 C
HETATM   19 BR1  UNL     1      13.895   8.637   7.365  1.00  0.00    -0.084 Br
HETATM   20  C17 UNL     1      14.238   7.960  10.046  1.00  0.00     0.269 C
HETATM   21  F1  UNL     1      13.744   6.691   9.728  1.00  0.00    -0.199 F
HETATM   22 CL1  UNL     1      15.927   7.986   9.426  1.00  0.00    -0.058 Cl
ENDBRANCH  11  13
ENDBRANCH  10  11
ENDBRANCH   9  10
ENDBRANCH   1   9
BRANCH   6  23
HETATM   23  C8  UNL     1      21.891  11.941   9.760  1.00  0.00     0.090 C
BRANCH  23  24
HETATM   24  C9  UNL     1      23.172  12.268  10.431  1.00  0.00     0.135 C
HETATM   25  N2  UNL     1      23.257  13.289  11.211  1.00  0.00    -0.251 N
ATOM     26  H2  UNL     1      24.139  13.513  11.673  1.00  0.00     0.196 HD
BRANCH  24  27
HETATM   27  O3  UNL     1      24.263  11.441  10.190  1.00  0.00    -0.348 OA
ATOM     28  H3  UNL     1      24.823  11.219  10.924  1.00  0.00     0.219 HD
ENDBRANCH  24  27
BRANCH  25  29
HETATM   29  O4  UNL     1      22.148  14.070  11.413  1.00  0.00    -0.288 OA
ATOM     30  H4  UNL     1      21.304  13.651  11.534  1.00  0.00     0.244 HD
ENDBRANCH  25  29
ENDBRANCH  23  24
ENDBRANCH   6  23
TORSDOF 8
ENDMDL