MODEL 4
REMARK VINA RESULT: -7.052705165      2.432      5.662
REMARK  10 active torsions:
REMARK  status: ('A' for Active; 'I' for Inactive)
REMARK    1  A    between atoms: C2_2  and  C3_3
REMARK    2  A    between atoms: C4_4  and  C5_5
REMARK    3  A    between atoms: N2_8  and  C6_9
REMARK    4  A    between atoms: C6_9  and  C7_13
REMARK    5  A    between atoms: C7_13  and  N4_14
REMARK    6  A    between atoms: C7_13  and  C13_23
REMARK       I    between atoms: N4_14  and  C8_16
REMARK    7  A    between atoms: C8_16  and  O3_18
REMARK    8  A    between atoms: O3_18  and  C9_19
REMARK    9  A    between atoms: C16_26  and  C17_27
REMARK   10  A    between atoms: C17_27  and  O5_29
ROOT
HETATM    1  C6  UNL     1      20.733 -41.376  -7.274  1.00  0.00     0.098 C
HETATM    2  N3  UNL     1      20.362 -41.001  -8.416  1.00  0.00    -0.387 N
ATOM      3  H31 UNL     1      19.523 -41.364  -8.868  1.00  0.00     0.157 HD
ATOM      4  H32 UNL     1      20.905 -40.311  -8.935  1.00  0.00     0.157 HD
ENDROOT
BRANCH   1   5
HETATM    5  N2  UNL     1      21.888 -40.875  -6.651  1.00  0.00    -0.341 N
HETATM    6  C4  UNL     1      22.037 -39.794  -5.639  1.00  0.00     0.182 C
HETATM    7  C3  UNL     1      23.334 -39.490  -6.289  1.00  0.00     0.050 C
HETATM    8  C16 UNL     1      23.314 -41.013  -6.557  1.00  0.00     0.192 C
BRANCH   6   9
HETATM    9  C5  UNL     1      20.954 -38.813  -5.686  1.00  0.00     0.254 C
HETATM   10  N1  UNL     1      20.214 -38.504  -4.525  1.00  0.00    -0.060 NA
HETATM   11  O1  UNL     1      20.618 -38.196  -6.747  1.00  0.00    -0.275 OA
ENDBRANCH   6   9
BRANCH   7  12
HETATM   12  C2  UNL     1      24.509 -39.132  -5.432  1.00  0.00     0.005 C
HETATM   13  C1  UNL     1      24.941 -37.729  -5.687  1.00  0.00     0.005 C
ENDBRANCH   7  12
BRANCH   8  14
HETATM   14  C17 UNL     1      24.061 -41.389  -7.764  1.00  0.00     0.282 C
HETATM   15  O4  UNL     1      25.305 -41.306  -7.806  1.00  0.00    -0.263 OA
BRANCH  14  16
HETATM   16  O5  UNL     1      23.439 -41.852  -8.917  1.00  0.00    -0.325 OA
HETATM   17  C18 UNL     1      23.701 -43.135  -9.460  1.00  0.00     0.213 C
ENDBRANCH  14  16
ENDBRANCH   8  14
ENDBRANCH   1   5
BRANCH   1  18
HETATM   18  C7  UNL     1      19.943 -42.379  -6.519  1.00  0.00     0.157 C
BRANCH  18  19
HETATM   19  N4  UNL     1      18.561 -42.007  -6.618  1.00  0.00    -0.325 N
HETATM   20  C8  UNL     1      17.761 -41.477  -5.607  1.00  0.00     0.362 C
HETATM   21  O2  UNL     1      18.258 -41.288  -4.473  1.00  0.00    -0.238 OA
ATOM     22  H4  UNL     1      18.116 -42.145  -7.525  1.00  0.00     0.165 HD
BRANCH  20  23
HETATM   23  O3  UNL     1      16.445 -41.155  -5.812  1.00  0.00    -0.294 OA
BRANCH  23  24
HETATM   24  C9  UNL     1      15.961 -39.863  -6.097  1.00  0.00     0.061 C
HETATM   25  C10 UNL     1      17.073 -38.832  -6.163  1.00  0.00     0.046 C
HETATM   26  C11 UNL     1      15.316 -39.914  -7.467  1.00  0.00     0.046 C
HETATM   27  C12 UNL     1      14.923 -39.403  -5.111  1.00  0.00     0.046 C
ENDBRANCH  23  24
ENDBRANCH  20  23
ENDBRANCH  18  19
BRANCH  18  28
HETATM   28  C13 UNL     1      20.263 -43.724  -7.067  1.00  0.00     0.008 C
HETATM   29  C14 UNL     1      21.625 -44.232  -6.645  1.00  0.00     0.012 C
HETATM   30  C15 UNL     1      19.183 -44.737  -6.720  1.00  0.00     0.012 C
ENDBRANCH  18  28
ENDBRANCH   1  18
TORSDOF 10
ENDMDL