MODEL 5
REMARK VINA RESULT: -7.218015720      2.101      3.213
REMARK  12 active torsions:
REMARK  status: ('A' for Active; 'I' for Inactive)
REMARK    1  A    between atoms: C2_2  and  C3_3
REMARK    2  A    between atoms: C4_4  and  C5_5
REMARK    3  A    between atoms: C5_5  and  C6_6
REMARK    4  A    between atoms: C6_6  and  C7_7
REMARK    5  A    between atoms: C9_9  and  O1_10
REMARK    6  A    between atoms: C10_12  and  O2_13
REMARK    7  A    between atoms: C11_15  and  O3_16
REMARK    8  A    between atoms: C13_19  and  C14_20
REMARK    9  A    between atoms: C14_20  and  C15_21
REMARK   10  A    between atoms: C14_20  and  O4_25
REMARK   11  A    between atoms: C15_21  and  N1_22
REMARK   12  A    between atoms: O4_25  and  C18_26
ROOT
HETATM    1  C7  UNL     1      22.091 -39.124  -7.538  1.00  0.00     0.125 C
HETATM    2  C8  UNL     1      22.799 -40.403  -7.153  1.00  0.00     0.075 C
HETATM    3  C9  UNL     1      21.602 -41.125  -6.507  1.00  0.00     0.115 C
HETATM    4  C10 UNL     1      20.721 -41.772  -7.488  1.00  0.00     0.183 C
HETATM    5  C11 UNL     1      19.369 -41.256  -7.721  1.00  0.00     0.150 C
HETATM    6  C12 UNL     1      18.973 -40.032  -6.929  1.00  0.00     0.044 C
HETATM    7  C13 UNL     1      19.576 -40.233  -5.544  1.00  0.00     0.055 C
HETATM    8  C20 UNL     1      21.031 -39.966  -5.733  1.00  0.00     0.166 C
HETATM    9  O6  UNL     1      21.305 -38.817  -6.465  1.00  0.00    -0.377 OA
ENDROOT
BRANCH   7  10
HETATM   10  C14 UNL     1      18.901 -39.466  -4.468  1.00  0.00     0.176 C
BRANCH  10  11
HETATM   11  C15 UNL     1      18.179 -38.241  -4.951  1.00  0.00     0.090 C
BRANCH  11  12
HETATM   12  N1  UNL     1      17.018 -37.949  -4.207  1.00  0.00    -0.399 N
HETATM   13  C16 UNL     1      15.760 -38.319  -4.722  1.00  0.00     0.148 C
HETATM   14  C17 UNL     1      17.091 -37.083  -3.107  1.00  0.00     0.148 C
ENDBRANCH  11  12
ENDBRANCH  10  11
BRANCH  10  15
HETATM   15  O4  UNL     1      17.994 -40.370  -3.832  1.00  0.00    -0.310 OA
BRANCH  15  16
HETATM   16  C18 UNL     1      18.078 -40.650  -2.484  1.00  0.00     0.255 C
HETATM   17  C19 UNL     1      17.368 -41.775  -1.827  1.00  0.00     0.126 C
HETATM   18  O5  UNL     1      18.810 -39.892  -1.794  1.00  0.00    -0.266 OA
ENDBRANCH  15  16
ENDBRANCH  10  15
ENDBRANCH   7  10
BRANCH   5  19
HETATM   19  O3  UNL     1      19.094 -40.937  -9.067  1.00  0.00    -0.393 OA
ATOM     20  H3  UNL     1      19.513 -41.510  -9.698  1.00  0.00     0.210 HD
ENDBRANCH   5  19
BRANCH   3  21
HETATM   21  O1  UNL     1      22.173 -42.033  -5.601  1.00  0.00    -0.384 OA
ATOM     22  H1  UNL     1      22.702 -42.612  -6.137  1.00  0.00     0.210 HD
ENDBRANCH   3  21
BRANCH   4  23
HETATM   23  O2  UNL     1      21.452 -41.851  -8.703  1.00  0.00    -0.390 OA
ATOM     24  H2  UNL     1      21.302 -41.035  -9.166  1.00  0.00     0.210 HD
ENDBRANCH   4  23
BRANCH   1  25
HETATM   25  C6  UNL     1      23.005 -38.046  -7.987  1.00  0.00     0.036 C
BRANCH  25  26
HETATM   26  C5  UNL     1      23.615 -37.214  -6.901  1.00  0.00     0.029 C
BRANCH  26  27
HETATM   27  C4  UNL     1      24.870 -37.877  -6.488  1.00  0.00    -0.027 C
HETATM   28  C3  UNL     1      24.906 -38.555  -5.357  1.00  0.00    -0.005 C
BRANCH  28  29
HETATM   29  C2  UNL     1      26.111 -39.234  -4.891  1.00  0.00    -0.011 C
HETATM   30  C1  UNL     1      26.374 -40.443  -5.342  1.00  0.00     0.011 C
ENDBRANCH  28  29
ENDBRANCH  26  27
ENDBRANCH  25  26
ENDBRANCH   1  25
TORSDOF 12
ENDMDL