MODEL 5
REMARK VINA RESULT: -7.785202565      2.436      5.525
REMARK  10 active torsions:
REMARK  status: ('A' for Active; 'I' for Inactive)
REMARK    1  A    between atoms: C2_2  and  C3_3
REMARK    2  A    between atoms: C3_3  and  C4_5
REMARK    3  A    between atoms: C4_5  and  C5_6
REMARK    4  A    between atoms: C5_6  and  C7_8
REMARK    5  A    between atoms: C9_11  and  C10_12
REMARK    6  A    between atoms: C10_12  and  O4_14
REMARK    7  A    between atoms: C12_16  and  C13_17
REMARK    8  A    between atoms: C13_17  and  C14_18
REMARK    9  A    between atoms: C15_21  and  O6_22
REMARK   10  A    between atoms: C19_27  and  O7_28
ROOT
HETATM    1  C7  UNL     1      22.637 -40.105  -6.968  1.00  0.00     0.155 C
HETATM    2  O2  UNL     1      22.094 -41.337  -7.173  1.00  0.00    -0.372 OA
HETATM    3  C8  UNL     1      22.779 -42.424  -6.731  1.00  0.00     0.168 C
HETATM    4  C9  UNL     1      22.144 -43.624  -7.381  1.00  0.00     0.051 C
HETATM    5  C12 UNL     1      22.591 -43.665  -8.609  1.00  0.00    -0.028 C
HETATM    6  C15 UNL     1      23.563 -42.517  -8.854  1.00  0.00     0.155 C
HETATM    7  C16 UNL     1      24.114 -42.448  -7.427  1.00  0.00     0.059 C
HETATM    8  C17 UNL     1      24.904 -41.240  -7.143  1.00  0.00     0.022 C
HETATM    9  C18 UNL     1      25.899 -41.594  -6.048  1.00  0.00     0.013 C
HETATM   10  C19 UNL     1      24.098 -40.039  -6.830  1.00  0.00     0.151 C
ENDROOT
BRANCH   1  11
HETATM   11  C5  UNL     1      21.858 -39.484  -5.822  1.00  0.00     0.020 C
HETATM   12  C6  UNL     1      21.597 -38.030  -5.974  1.00  0.00     0.013 C
BRANCH  11  13
HETATM   13  C4  UNL     1      20.553 -40.249  -5.783  1.00  0.00     0.085 C
BRANCH  13  14
HETATM   14  C3  UNL     1      19.614 -39.786  -4.768  1.00  0.00     0.127 C
HETATM   15  O1  UNL     1      19.859 -39.712  -3.589  1.00  0.00    -0.298 OA
BRANCH  14  16
HETATM   16  C2  UNL     1      18.251 -39.374  -5.214  1.00  0.00     0.074 C
HETATM   17  C1  UNL     1      17.949 -39.801  -6.628  1.00  0.00     0.013 C
ENDBRANCH  14  16
ENDBRANCH  13  14
ENDBRANCH  11  13
ENDBRANCH   1  11
BRANCH  10  18
HETATM   18  O7  UNL     1      24.505 -39.603  -5.558  1.00  0.00    -0.393 OA
ATOM     19  H7  UNL     1      24.225 -40.187  -4.863  1.00  0.00     0.210 HD
ENDBRANCH  10  18
BRANCH   4  20
HETATM   20  C10 UNL     1      21.223 -44.467  -6.637  1.00  0.00     0.291 C
HETATM   21  O3  UNL     1      21.581 -45.380  -5.870  1.00  0.00    -0.260 OA
BRANCH  20  22
HETATM   22  O4  UNL     1      19.829 -44.305  -6.734  1.00  0.00    -0.323 OA
HETATM   23  C11 UNL     1      18.932 -45.380  -6.524  1.00  0.00     0.213 C
ENDBRANCH  20  22
ENDBRANCH   4  20
BRANCH   5  24
HETATM   24  C13 UNL     1      22.234 -44.679  -9.623  1.00  0.00     0.137 C
BRANCH  24  25
HETATM   25  C14 UNL     1      20.930 -44.334 -10.277  1.00  0.00     0.235 C
HETATM   26  N1  UNL     1      19.997 -45.388 -10.469  1.00  0.00    -0.062 NA
HETATM   27  O5  UNL     1      20.636 -43.181 -10.656  1.00  0.00    -0.277 OA
ENDBRANCH  24  25
ENDBRANCH   5  24
BRANCH   6  28
HETATM   28  O6  UNL     1      24.506 -42.847  -9.783  1.00  0.00    -0.391 OA
ATOM     29  H6  UNL     1      24.225 -42.623 -10.661  1.00  0.00     0.210 HD
ENDBRANCH   6  28
TORSDOF 10
ENDMDL