MODEL 4
REMARK VINA RESULT: -7.921331364      3.493      5.451
REMARK  9 active torsions:
REMARK  status: ('A' for Active; 'I' for Inactive)
REMARK    1  A    between atoms: C2_2  and  C3_3
REMARK    2  A    between atoms: C2_2  and  C4_6
REMARK    3  A    between atoms: C7_9  and  O3_10
REMARK    4  A    between atoms: C8_12  and  O4_13
REMARK    5  A    between atoms: O4_13  and  C9_14
REMARK    6  A    between atoms: C9_14  and  C10_16
REMARK    7  A    between atoms: C10_16  and  C11_17
REMARK    8  A    between atoms: C10_16  and  O6_19
REMARK    9  A    between atoms: C16_25  and  C17_26
ROOT
HETATM    1  C4  UNL     1      20.626 -44.492  -6.838  1.00  0.00     0.042 C
HETATM    2  C5  UNL     1      19.793 -43.254  -6.836  1.00  0.00     0.013 C
HETATM    3  C6  UNL     1      20.678 -42.003  -6.620  1.00  0.00     0.044 C
HETATM    4  C7  UNL     1      21.715 -42.000  -7.673  1.00  0.00     0.121 C
HETATM    5  C8  UNL     1      22.806 -40.969  -7.470  1.00  0.00     0.268 C
HETATM    6  C14 UNL     1      24.024 -41.686  -7.940  1.00  0.00     0.292 C
HETATM    7  O7  UNL     1      25.193 -41.169  -7.993  1.00  0.00    -0.262 OA
HETATM    8  O8  UNL     1      23.639 -42.977  -8.289  1.00  0.00    -0.310 OA
HETATM    9  C15 UNL     1      22.537 -43.263  -7.515  1.00  0.00     0.184 C
HETATM   10  C16 UNL     1      21.692 -44.440  -7.924  1.00  0.00     0.128 C
ENDROOT
BRANCH   5  11
HETATM   11  O4  UNL     1      22.885 -40.553  -6.143  1.00  0.00    -0.301 OA
BRANCH  11  12
HETATM   12  C9  UNL     1      23.034 -39.220  -5.779  1.00  0.00     0.288 C
HETATM   13  O5  UNL     1      22.096 -38.764  -5.071  1.00  0.00    -0.262 OA
BRANCH  12  14
HETATM   14  C10 UNL     1      24.210 -38.436  -6.207  1.00  0.00     0.220 C
BRANCH  14  15
HETATM   15  C11 UNL     1      23.770 -37.109  -6.843  1.00  0.00     0.038 C
HETATM   16  C12 UNL     1      24.783 -36.024  -6.566  1.00  0.00     0.008 C
ENDBRANCH  14  15
BRANCH  14  17
HETATM   17  O6  UNL     1      25.164 -38.265  -5.259  1.00  0.00    -0.381 OA
HETATM   18  C13 UNL     1      26.005 -39.327  -5.029  1.00  0.00     0.202 C
ENDBRANCH  14  17
ENDBRANCH  12  14
ENDBRANCH  11  12
ENDBRANCH   5  11
BRANCH   4  19
HETATM   19  O3  UNL     1      21.204 -41.798  -8.928  1.00  0.00    -0.384 OA
ATOM     20  H3  UNL     1      21.770 -41.270  -9.479  1.00  0.00     0.210 HD
ENDBRANCH   4  19
BRANCH  10  21
HETATM   21  C17 UNL     1      21.152 -44.308  -9.270  1.00  0.00     0.180 C
HETATM   22  O9  UNL     1      19.952 -44.196  -9.615  1.00  0.00    -0.648 OA
HETATM   23  O10 UNL     1      22.060 -44.301 -10.345  1.00  0.00    -0.648 OA
ENDBRANCH  10  21
BRANCH   1  24
HETATM   24  C2  UNL     1      19.873 -45.721  -6.797  1.00  0.00     0.014 C
HETATM   25  C1  UNL     1      18.577 -45.715  -6.448  1.00  0.00     0.026 C
BRANCH  24  26
HETATM   26  C3  UNL     1      20.401 -47.029  -7.116  1.00  0.00     0.204 C
HETATM   27  O1  UNL     1      20.903 -47.769  -6.265  1.00  0.00    -0.644 OA
HETATM   28  O2  UNL     1      20.355 -47.492  -8.418  1.00  0.00    -0.644 OA
ENDBRANCH  24  26
ENDBRANCH   1  24
TORSDOF 9
ENDMDL