MODEL 5
REMARK VINA RESULT: -7.154323673      1.166      1.342
REMARK  9 active torsions:
REMARK  status: ('A' for Active; 'I' for Inactive)
REMARK    1  A    between atoms: C2_2  and  C3_3
REMARK    2  A    between atoms: C5_6  and  C6_7
REMARK    3  A    between atoms: C6_7  and  C7_9
REMARK    4  A    between atoms: C7_9  and  C8_10
REMARK    5  A    between atoms: C8_10  and  N1_11
REMARK    6  A    between atoms: N1_11  and  C9_14
REMARK    7  A    between atoms: C12_18  and  O4_19
REMARK    8  A    between atoms: C17_28  and  C19_30
REMARK    9  A    between atoms: C19_30  and  O6_32
ROOT
HETATM    1  C3  UNL     1      24.448 -39.208  -6.519  1.00  0.00     0.181 C
HETATM    2  C4  UNL     1      24.877 -38.092  -7.411  1.00  0.00     0.084 C
HETATM    3  O1  UNL     1      23.607 -38.685  -5.535  1.00  0.00    -0.336 OA
HETATM    4  C5  UNL     1      22.660 -39.684  -5.288  1.00  0.00     0.234 C
HETATM    5  C11 UNL     1      22.493 -40.321  -6.623  1.00  0.00     0.156 C
HETATM    6  O3  UNL     1      23.791 -40.238  -7.137  1.00  0.00    -0.333 OA
HETATM    7  C12 UNL     1      21.514 -39.748  -7.553  1.00  0.00     0.187 C
HETATM    8  C13 UNL     1      20.258 -40.467  -7.371  1.00  0.00    -0.049 C
HETATM    9  C14 UNL     1      19.055 -40.020  -7.676  1.00  0.00     0.017 C
HETATM   10  C15 UNL     1      20.574 -41.795  -6.780  1.00  0.00     0.096 C
HETATM   11  C16 UNL     1      22.046 -41.748  -6.461  1.00  0.00     0.239 C
HETATM   12  N2  UNL     1      22.330 -42.574  -7.641  1.00  0.00    -0.048 N
ATOM     13  H21 UNL     1      23.012 -43.331  -7.581  1.00  0.00     0.279 HD
ATOM     14  H22 UNL     1      22.839 -42.178  -8.431  1.00  0.00     0.279 HD
HETATM   15  C17 UNL     1      20.936 -42.875  -7.766  1.00  0.00     0.218 C
HETATM   16  C18 UNL     1      20.383 -42.707  -9.158  1.00  0.00     0.058 C
ENDROOT
BRANCH   4  17
HETATM   17  C6  UNL     1      21.484 -39.078  -4.680  1.00  0.00     0.160 C
HETATM   18  O2  UNL     1      21.369 -37.865  -4.702  1.00  0.00    -0.295 OA
BRANCH  17  19
HETATM   19  C7  UNL     1      20.376 -39.816  -4.016  1.00  0.00     0.108 C
BRANCH  19  20
HETATM   20  C8  UNL     1      19.261 -38.928  -3.583  1.00  0.00     0.239 C
BRANCH  20  21
HETATM   21  N1  UNL     1      18.731 -39.329  -2.297  1.00  0.00    -0.075 N
ATOM     22  H12 UNL     1      19.480 -39.497  -1.626  1.00  0.00     0.277 HD
ATOM     23  H11 UNL     1      18.267 -38.549  -1.830  1.00  0.00     0.277 HD
BRANCH  21  24
HETATM   24  C9  UNL     1      17.854 -40.473  -2.399  1.00  0.00     0.228 C
HETATM   25  C10 UNL     1      17.919 -41.361  -1.188  1.00  0.00     0.034 C
ENDBRANCH  21  24
ENDBRANCH  20  21
ENDBRANCH  19  20
ENDBRANCH  17  19
ENDBRANCH   4  17
BRANCH   7  26
HETATM   26  O4  UNL     1      21.395 -38.373  -7.526  1.00  0.00    -0.388 OA
ATOM     27  H4  UNL     1      21.542 -37.930  -8.354  1.00  0.00     0.210 HD
ENDBRANCH   7  26
BRANCH   1  28
HETATM   28  C2  UNL     1      25.601 -39.818  -5.772  1.00  0.00     0.030 C
HETATM   29  C1  UNL     1      25.933 -41.078  -5.885  1.00  0.00     0.012 C
ENDBRANCH   1  28
BRANCH  15  30
HETATM   30  C19 UNL     1      20.549 -44.206  -7.233  1.00  0.00     0.295 C
HETATM   31  O5  UNL     1      21.408 -45.118  -7.250  1.00  0.00    -0.262 OA
BRANCH  30  32
HETATM   32  O6  UNL     1      19.308 -44.485  -6.723  1.00  0.00    -0.325 OA
HETATM   33  C20 UNL     1      18.914 -45.788  -6.272  1.00  0.00     0.213 C
ENDBRANCH  30  32
ENDBRANCH  15  30
TORSDOF 9
ENDMDL