MODEL 1
REMARK VINA RESULT: -7.799128953      0.000      0.000
REMARK  8 active torsions:
REMARK  status: ('A' for Active; 'I' for Inactive)
REMARK    1  A    between atoms: C3_4  and  S2_5
REMARK    2  A    between atoms: S2_5  and  N1_8
REMARK    3  A    between atoms: C6_11  and  C7_12
REMARK    4  A    between atoms: C7_12  and  O4_14
REMARK    5  A    between atoms: O4_14  and  C8_15
REMARK    6  A    between atoms: C8_15  and  C10_17
REMARK    7  A    between atoms: C10_17  and  C11_18
REMARK    8  A    between atoms: C11_18  and  N2_19
ROOT
HETATM    1  C1  UNL     1      18.899 -38.906  -5.832  1.00  0.00     0.058 C
HETATM    2  C2  UNL     1      20.191 -39.563  -6.260  1.00  0.00     0.005 A
HETATM    3  S1  UNL     1      21.718 -38.866  -6.419  1.00  0.00    -0.079 SA
HETATM    4  C3  UNL     1      22.616 -40.270  -6.941  1.00  0.00     0.134 A
HETATM    5  C6  UNL     1      21.657 -41.231  -6.967  1.00  0.00     0.094 A
HETATM    6  C13 UNL     1      20.396 -40.859  -6.612  1.00  0.00     0.077 A
HETATM    7  N5  UNL     1      19.246 -41.767  -6.584  1.00  0.00    -0.100 NA
ENDROOT
BRANCH   5   8
HETATM    8  C7  UNL     1      21.935 -42.644  -7.364  1.00  0.00     0.297 C
HETATM    9  O3  UNL     1      22.460 -43.464  -6.614  1.00  0.00    -0.259 OA
BRANCH   8  10
HETATM   10  O4  UNL     1      21.613 -43.129  -8.635  1.00  0.00    -0.312 OA
BRANCH  10  11
HETATM   11  C8  UNL     1      21.756 -44.503  -8.976  1.00  0.00     0.129 C
HETATM   12  C9  UNL     1      22.604 -44.619 -10.217  1.00  0.00     0.040 C
BRANCH  11  13
HETATM   13  C10 UNL     1      20.446 -45.194  -9.100  1.00  0.00     0.051 C
BRANCH  13  14
HETATM   14  C11 UNL     1      20.280 -45.994 -10.351  1.00  0.00     0.124 C
BRANCH  14  15
HETATM   15  N2  UNL     1      18.916 -46.264 -10.728  1.00  0.00    -0.367 N
HETATM   16  C12 UNL     1      18.688 -47.290 -11.473  1.00  0.00     0.196 C
HETATM   17  N3  UNL     1      19.731 -48.145 -11.922  1.00  0.00    -0.067 NA
HETATM   18  N4  UNL     1      17.342 -47.577 -11.860  1.00  0.00    -0.067 NA
ATOM     19  H2  UNL     1      18.154 -45.661 -10.415  1.00  0.00     0.161 HD
ENDBRANCH  14  15
ENDBRANCH  13  14
ENDBRANCH  11  13
ENDBRANCH  10  11
ENDBRANCH   8  10
ENDBRANCH   5   8
BRANCH   4  20
HETATM   20  S2  UNL     1      24.336 -40.236  -7.300  1.00  0.00     0.250 S
HETATM   21  O1  UNL     1      24.830 -38.986  -7.906  1.00  0.00    -0.205 OA
HETATM   22  O2  UNL     1      24.644 -41.426  -8.219  1.00  0.00    -0.205 OA
BRANCH  20  23
HETATM   23  N1  UNL     1      25.198 -40.549  -5.848  1.00  0.00    -0.214 NA
HETATM   24  C4  UNL     1      26.078 -41.681  -6.001  1.00  0.00     0.129 C
HETATM   25  C5  UNL     1      25.967 -39.388  -5.473  1.00  0.00     0.129 C
ENDBRANCH  20  23
ENDBRANCH   4  20
TORSDOF 8
ENDMDL