MODEL 1
REMARK VINA RESULT: -8.521728596      0.000      0.000
REMARK  9 active torsions:
REMARK  status: ('A' for Active; 'I' for Inactive)
REMARK    1  A    between atoms: C2_2  and  C3_3
REMARK    2  A    between atoms: C3_3  and  N1_4
REMARK    3  A    between atoms: N1_4  and  C4_5
REMARK       I    between atoms: N1_4  and  C7_8
REMARK    4  A    between atoms: C4_5  and  C5_6
REMARK       I    between atoms: C7_8  and  N2_10
REMARK    5  A    between atoms: C9_12  and  C10_13
REMARK    6  A    between atoms: C10_13  and  C11_14
REMARK    7  A    between atoms: C11_14  and  O2_15
REMARK    8  A    between atoms: O2_15  and  C12_16
REMARK    9  A    between atoms: C16_24  and  N4_25
ROOT
HETATM    1  N1  UNL     1      17.649 -39.086  -5.271  1.00  0.00    -0.306 N
HETATM    2  C7  UNL     1      19.010 -38.950  -5.507  1.00  0.00     0.333 C
HETATM    3  O1  UNL     1      19.517 -37.850  -5.038  1.00  0.00    -0.246 OA
HETATM    4  N2  UNL     1      19.900 -39.818  -6.166  1.00  0.00    -0.268 N
HETATM    5  C8  UNL     1      19.619 -40.988  -6.820  1.00  0.00     0.110 A
HETATM    6  C9  UNL     1      20.770 -41.564  -7.330  1.00  0.00    -0.022 A
HETATM    7  C14 UNL     1      21.761 -40.710  -6.966  1.00  0.00     0.073 A
HETATM    8  C15 UNL     1      23.117 -40.861  -7.289  1.00  0.00     0.273 C
HETATM    9  O4  UNL     1      23.438 -42.029  -7.510  1.00  0.00    -0.267 OA
HETATM   10  N3  UNL     1      24.072 -39.913  -7.383  1.00  0.00    -0.155 N
ATOM     11  H3  UNL     1      24.984 -40.206  -7.733  1.00  0.00     0.187 HD
HETATM   12  C16 UNL     1      23.928 -38.613  -7.056  1.00  0.00     0.681 C
HETATM   13  N5  UNL     1      23.029 -38.049  -6.214  1.00  0.00    -0.154 N
ATOM     14  H5  UNL     1      23.182 -37.068  -5.976  1.00  0.00     0.187 HD
HETATM   15  C17 UNL     1      21.947 -38.647  -5.652  1.00  0.00     0.288 C
HETATM   16  O5  UNL     1      21.589 -38.273  -4.523  1.00  0.00    -0.265 OA
HETATM   17  C18 UNL     1      21.226 -39.646  -6.249  1.00  0.00     0.128 A
ENDROOT
BRANCH   1  18
HETATM   18  C3  UNL     1      17.043 -37.924  -4.536  1.00  0.00     0.159 C
BRANCH  18  19
HETATM   19  C2  UNL     1      15.819 -38.232  -3.833  1.00  0.00    -0.017 C
HETATM   20  C1  UNL     1      14.745 -37.442  -3.868  1.00  0.00     0.008 C
ENDBRANCH  18  19
ENDBRANCH   1  18
BRANCH   1  21
HETATM   21  C4  UNL     1      16.803 -40.134  -5.673  1.00  0.00     0.095 C
BRANCH  21  22
HETATM   22  C5  UNL     1      16.110 -40.032  -6.964  1.00  0.00     0.007 C
HETATM   23  C6  UNL     1      14.900 -39.639  -7.225  1.00  0.00     0.012 C
ENDBRANCH  21  22
ENDBRANCH   1  21
BRANCH   6  24
HETATM   24  C10 UNL     1      20.880 -42.813  -8.107  1.00  0.00     0.068 C
BRANCH  24  25
HETATM   25  C11 UNL     1      20.267 -42.709  -9.482  1.00  0.00     0.183 C
BRANCH  25  26
HETATM   26  O2  UNL     1      20.878 -43.488 -10.456  1.00  0.00    -0.321 OA
BRANCH  26  27
HETATM   27  C12 UNL     1      22.003 -44.248 -10.355  1.00  0.00     0.254 C
HETATM   28  C13 UNL     1      23.311 -43.636 -10.715  1.00  0.00     0.126 C
HETATM   29  O3  UNL     1      21.900 -45.424  -9.965  1.00  0.00    -0.266 OA
ENDBRANCH  26  27
ENDBRANCH  25  26
ENDBRANCH  24  25
ENDBRANCH   6  24
BRANCH  12  30
HETATM   30  N4  UNL     1      24.772 -37.825  -7.631  1.00  0.00    -0.234 N
ATOM     31  H42 UNL     1      25.730 -37.835  -7.282  1.00  0.00     0.174 HD
ATOM     32  H41 UNL     1      24.377 -37.269  -8.390  1.00  0.00     0.174 HD
ENDBRANCH  12  30
TORSDOF 9
ENDMDL