MODEL 2
REMARK VINA RESULT: -7.616365508      1.240      3.345
REMARK  11 active torsions:
REMARK  status: ('A' for Active; 'I' for Inactive)
REMARK    1  A    between atoms: C2_2  and  S1_3
REMARK    2  A    between atoms: S1_3  and  C3_4
REMARK    3  A    between atoms: C3_4  and  N2_11
REMARK    4  A    between atoms: N1_5  and  C4_7
REMARK    5  A    between atoms: C4_7  and  C5_8
REMARK    6  A    between atoms: C5_8  and  O1_9
REMARK    7  A    between atoms: N2_11  and  C7_13
REMARK    8  A    between atoms: C7_13  and  C8_14
REMARK    9  A    between atoms: C8_14  and  N3_15
REMARK   10  A    between atoms: N3_15  and  C9_17
REMARK   11  A    between atoms: C10_20  and  N5_21
ROOT
HETATM    1  C9  UNL     1      21.213 -39.738  -7.324  1.00  0.00     0.138 A
HETATM    2  N4  UNL     1      22.279 -38.990  -7.666  1.00  0.00    -0.176 N
ATOM      3  H4  UNL     1      22.755 -39.116  -8.559  1.00  0.00     0.186 HD
HETATM    4  C10 UNL     1      22.686 -38.069  -6.776  1.00  0.00     0.680 A
HETATM    5  N6  UNL     1      22.084 -37.883  -5.605  1.00  0.00    -0.175 N
ATOM      6  H6  UNL     1      22.450 -37.165  -4.980  1.00  0.00     0.186 HD
HETATM    7  C12 UNL     1      20.996 -38.610  -5.196  1.00  0.00     0.142 A
HETATM    8  N7  UNL     1      20.344 -38.502  -4.080  1.00  0.00    -0.339 N
ATOM      9  H7  UNL     1      20.633 -37.811  -3.387  1.00  0.00     0.168 HD
HETATM   10  C13 UNL     1      19.309 -39.283  -3.837  1.00  0.00     0.049 A
HETATM   11  C14 UNL     1      18.422 -39.325  -2.621  1.00  0.00     0.076 C
HETATM   12  S2  UNL     1      19.238 -40.237  -5.264  1.00  0.00    -0.070 SA
HETATM   13  C15 UNL     1      20.568 -39.554  -6.093  1.00  0.00     0.095 A
ENDROOT
BRANCH   1  14
HETATM   14  N3  UNL     1      20.711 -40.655  -8.077  1.00  0.00    -0.373 N
ATOM     15  H3  UNL     1      19.943 -40.381  -8.689  1.00  0.00     0.161 HD
BRANCH  14  16
HETATM   16  C8  UNL     1      21.126 -42.015  -8.134  1.00  0.00     0.141 C
BRANCH  16  17
HETATM   17  C7  UNL     1      19.999 -43.006  -8.136  1.00  0.00     0.141 C
BRANCH  17  18
HETATM   18  N2  UNL     1      19.691 -43.469  -9.491  1.00  0.00    -0.369 N
ATOM     19  H2  UNL     1      19.143 -42.867 -10.104  1.00  0.00     0.161 HD
BRANCH  18  20
HETATM   20  C3  UNL     1      20.126 -44.719  -9.975  1.00  0.00     0.136 C
HETATM   21  N1  UNL     1      19.311 -45.621 -10.427  1.00  0.00    -0.369 N
ATOM     22  H1  UNL     1      18.309 -45.431 -10.440  1.00  0.00     0.161 HD
BRANCH  20  23
HETATM   23  S1  UNL     1      21.875 -45.081  -9.966  1.00  0.00    -0.095 SA
BRANCH  23  24
HETATM   24  C2  UNL     1      22.771 -43.866 -10.960  1.00  0.00     0.078 C
HETATM   25  C1  UNL     1      23.958 -43.381 -10.174  1.00  0.00     0.016 C
ENDBRANCH  23  24
ENDBRANCH  20  23
BRANCH  21  26
HETATM   26  C4  UNL     1      19.804 -46.892 -10.913  1.00  0.00     0.148 C
BRANCH  26  27
HETATM   27  C5  UNL     1      18.735 -47.930 -11.068  1.00  0.00     0.186 C
BRANCH  27  28
HETATM   28  O1  UNL     1      17.748 -47.546 -11.975  1.00  0.00    -0.394 OA
HETATM   29  C6  UNL     1      16.478 -47.604 -11.381  1.00  0.00     0.201 C
ENDBRANCH  27  28
ENDBRANCH  26  27
ENDBRANCH  21  26
ENDBRANCH  18  20
ENDBRANCH  17  18
ENDBRANCH  16  17
ENDBRANCH  14  16
ENDBRANCH   1  14
BRANCH   4  30
HETATM   30  N5  UNL     1      23.734 -37.307  -7.073  1.00  0.00    -0.230 N
HETATM   31  C11 UNL     1      24.893 -37.878  -7.710  1.00  0.00     0.165 C
ATOM     32  H5  UNL     1      23.718 -36.313  -6.848  1.00  0.00     0.177 HD
ENDBRANCH   4  30
TORSDOF 11
ENDMDL