MODEL 2
REMARK VINA RESULT: -7.511374972      2.490      5.549
REMARK  11 active torsions:
REMARK  status: ('A' for Active; 'I' for Inactive)
REMARK    1  A    between atoms: C2_2  and  C3_4
REMARK    2  A    between atoms: C3_4  and  C4_5
REMARK    3  A    between atoms: C4_5  and  O2_6
REMARK    4  A    between atoms: C6_12  and  C7_13
REMARK    5  A    between atoms: C7_13  and  C8_14
REMARK    6  A    between atoms: C8_14  and  O4_15
REMARK    7  A    between atoms: C9_17  and  C10_18
REMARK    8  A    between atoms: C13_22  and  C14_23
REMARK    9  A    between atoms: C14_23  and  O5_24
REMARK   10  A    between atoms: O5_24  and  C15_25
REMARK   11  A    between atoms: C15_25  and  C16_27
ROOT
HETATM    1  C10 UNL     1      23.506 -42.052  -7.175  1.00  0.00    -0.006 C
HETATM    2  C11 UNL     1      24.292 -42.495  -6.228  1.00  0.00     0.090 C
HETATM    3  C12 UNL     1      23.773 -43.312  -5.178  1.00  0.00     0.087 C
HETATM    4  N2  UNL     1      23.351 -43.988  -4.315  1.00  0.00    -0.192 NA
ENDROOT
BRANCH   1   5
HETATM    5  C9  UNL     1      22.057 -42.387  -7.182  1.00  0.00     0.054 C
HETATM    6  C6  UNL     1      21.749 -43.222  -8.366  1.00  0.00    -0.002 C
HETATM    7  C5  UNL     1      20.309 -43.242  -8.693  1.00  0.00     0.246 C
HETATM    8  N1  UNL     1      19.428 -42.742  -7.710  1.00  0.00    -0.325 N
HETATM    9  O3  UNL     1      19.838 -43.663  -9.757  1.00  0.00    -0.268 OA
HETATM   10  C4  UNL     1      19.741 -41.508  -6.962  1.00  0.00     0.147 C
ATOM     11  H1  UNL     1      18.561 -43.241  -7.513  1.00  0.00     0.165 HD
HETATM   12  C13 UNL     1      21.188 -41.215  -6.866  1.00  0.00     0.078 C
BRANCH   6  13
HETATM   13  C7  UNL     1      22.656 -43.157  -9.531  1.00  0.00     0.066 C
BRANCH  13  14
HETATM   14  C8  UNL     1      23.093 -44.401 -10.187  1.00  0.00     0.168 C
BRANCH  14  15
HETATM   15  O4  UNL     1      22.162 -44.793 -11.190  1.00  0.00    -0.401 OA
ATOM     16  H4  UNL     1      21.614 -45.503 -10.879  1.00  0.00     0.209 HD
ENDBRANCH  14  15
ENDBRANCH  13  14
ENDBRANCH   6  13
BRANCH  10  17
HETATM   17  C3  UNL     1      18.891 -40.454  -7.633  1.00  0.00     0.139 C
BRANCH  17  18
HETATM   18  C2  UNL     1      18.033 -39.797  -6.591  1.00  0.00     0.127 C
HETATM   19  C1  UNL     1      16.568 -39.980  -6.527  1.00  0.00     0.091 C
HETATM   20  O1  UNL     1      18.561 -39.084  -5.763  1.00  0.00    -0.298 OA
ENDBRANCH  17  18
ENDBRANCH  10  17
BRANCH  10  21
HETATM   21  O2  UNL     1      19.165 -41.709  -5.702  1.00  0.00    -0.370 OA
ATOM     22  H2  UNL     1      19.112 -40.847  -5.307  1.00  0.00     0.212 HD
ENDBRANCH  10  21
BRANCH  12  23
HETATM   23  C14 UNL     1      21.646 -39.894  -7.388  1.00  0.00     0.189 C
BRANCH  23  24
HETATM   24  O5  UNL     1      22.086 -39.012  -6.403  1.00  0.00    -0.320 OA
BRANCH  24  25
HETATM   25  C15 UNL     1      23.308 -38.393  -6.284  1.00  0.00     0.266 C
HETATM   26  O6  UNL     1      24.076 -38.777  -5.358  1.00  0.00    -0.264 OA
BRANCH  25  27
HETATM   27  C16 UNL     1      23.754 -37.301  -7.196  1.00  0.00     0.037 C
HETATM   28  C17 UNL     1      24.588 -36.258  -6.494  1.00  0.00     0.025 C
HETATM   29  C18 UNL     1      22.552 -36.654  -7.873  1.00  0.00     0.025 C
HETATM   30  C19 UNL     1      24.599 -37.898  -8.293  1.00  0.00     0.025 C
ENDBRANCH  25  27
ENDBRANCH  24  25
ENDBRANCH  23  24
ENDBRANCH  12  23
ENDBRANCH   1   5
TORSDOF 11
ENDMDL