MODEL 2
REMARK VINA RESULT: -9.383355324      1.098      1.228
REMARK  10 active torsions:
REMARK  status: ('A' for Active; 'I' for Inactive)
REMARK    1  A    between atoms: C2_2  and  O1_3
REMARK    2  A    between atoms: C3_5  and  C4_6
REMARK    3  A    between atoms: C4_6  and  C5_7
REMARK    4  A    between atoms: C5_7  and  C7_9
REMARK    5  A    between atoms: C7_9  and  O2_10
REMARK    6  A    between atoms: C7_9  and  C8_12
REMARK    7  A    between atoms: C8_12  and  O3_13
REMARK    8  A    between atoms: C8_12  and  C9_15
REMARK    9  A    between atoms: C12_21  and  C13_22
REMARK   10  A    between atoms: C14_23  and  C15_24
ROOT
HETATM    1  C9  UNL     1      20.449 -47.751  -9.814  1.00  0.00     0.228 A
HETATM    2  O4  UNL     1      19.552 -48.932  -9.887  1.00  0.00    -0.332 OA
HETATM    3  C10 UNL     1      20.919 -49.035 -10.134  1.00  0.00     0.272 A
HETATM    4  O5  UNL     1      21.593 -49.833  -9.161  1.00  0.00    -0.271 OA
HETATM    5  C11 UNL     1      22.142 -51.070  -9.462  1.00  0.00     0.277 C
HETATM    6  O6  UNL     1      21.906 -52.122  -8.807  1.00  0.00    -0.264 OA
HETATM    7  C12 UNL     1      23.055 -51.183 -10.613  1.00  0.00     0.186 C
HETATM    8  C18 UNL     1      22.631 -50.206 -11.646  1.00  0.00     0.217 C
HETATM    9  O7  UNL     1      23.375 -50.008 -12.641  1.00  0.00    -0.288 OA
HETATM   10  C19 UNL     1      21.365 -49.518 -11.459  1.00  0.00     0.261 C
HETATM   11  O8  UNL     1      20.645 -49.339 -12.479  1.00  0.00    -0.283 OA
ENDROOT
BRANCH   1  12
HETATM   12  C8  UNL     1      20.052 -46.717 -10.813  1.00  0.00     0.182 C
BRANCH  12  13
HETATM   13  C7  UNL     1      20.506 -45.351 -10.309  1.00  0.00     0.153 C
BRANCH  13  14
HETATM   14  C5  UNL     1      21.016 -45.391  -8.895  1.00  0.00     0.016 C
HETATM   15  C6  UNL     1      19.959 -45.006  -7.908  1.00  0.00     0.013 C
BRANCH  14  16
HETATM   16  C4  UNL     1      22.145 -44.380  -8.804  1.00  0.00     0.036 C
BRANCH  16  17
HETATM   17  C3  UNL     1      22.168 -43.837  -7.429  1.00  0.00     0.005 C
HETATM   18  C2  UNL     1      22.965 -42.854  -7.127  1.00  0.00     0.035 C
HETATM   19  C1  UNL     1      23.853 -42.274  -8.153  1.00  0.00     0.075 C
BRANCH  18  20
HETATM   20  O1  UNL     1      22.992 -42.341  -5.849  1.00  0.00    -0.366 OA
ATOM     21  H1  UNL     1      22.297 -42.570  -5.244  1.00  0.00     0.217 HD
ENDBRANCH  18  20
ENDBRANCH  16  17
ENDBRANCH  14  16
ENDBRANCH  13  14
BRANCH  13  22
HETATM   22  O2  UNL     1      19.484 -44.442 -10.436  1.00  0.00    -0.393 OA
ATOM     23  H2  UNL     1      19.495 -43.819  -9.719  1.00  0.00     0.210 HD
ENDBRANCH  13  22
ENDBRANCH  12  13
BRANCH  12  24
HETATM   24  O3  UNL     1      18.671 -46.624 -10.977  1.00  0.00    -0.390 OA
ATOM     25  H3  UNL     1      18.531 -45.926 -11.607  1.00  0.00     0.210 HD
ENDBRANCH  12  24
ENDBRANCH   1  12
BRANCH   7  26
HETATM   26  C13 UNL     1      24.470 -51.031 -10.253  1.00  0.00    -0.008 C
HETATM   27  C14 UNL     1      25.389 -51.897 -10.612  1.00  0.00    -0.026 C
BRANCH  27  28
HETATM   28  C15 UNL     1      26.826 -51.779 -10.269  1.00  0.00    -0.001 C
HETATM   29  C16 UNL     1      27.704 -51.683 -11.495  1.00  0.00     0.013 C
HETATM   30  C17 UNL     1      27.116 -50.637  -9.338  1.00  0.00     0.013 C
ENDBRANCH  27  28
ENDBRANCH   7  26
TORSDOF 10
ENDMDL