MODEL 2
REMARK VINA RESULT: -7.213412468      1.181      5.532
REMARK  7 active torsions:
REMARK  status: ('A' for Active; 'I' for Inactive)
REMARK    1  A    between atoms: C2_2  and  N1_4
REMARK    2  A    between atoms: N1_4  and  C4_6
REMARK    3  A    between atoms: C5_9  and  N3_10
REMARK    4  A    between atoms: N3_10  and  C6_12
REMARK    5  A    between atoms: C6_12  and  C7_13
REMARK    6  A    between atoms: C15_24  and  N5_25
REMARK    7  A    between atoms: N5_25  and  C16_27
ROOT
HETATM    1  C4  UNL     1      17.595  10.207 -20.575  1.00  0.00     0.707 A
HETATM    2  N2  UNL     1      17.778   8.898 -20.811  1.00  0.00    -0.022 N
ATOM      3  H2  UNL     1      17.026   8.350 -21.229  1.00  0.00     0.203 HD
HETATM    4  C5  UNL     1      18.937   8.305 -20.505  1.00  0.00     0.707 A
HETATM    5  N4  UNL     1      19.947   9.019 -19.949  1.00  0.00    -0.021 N
ATOM      6  H4  UNL     1      20.826   8.555 -19.719  1.00  0.00     0.203 HD
HETATM    7  C15 UNL     1      19.804  10.330 -19.697  1.00  0.00     0.712 A
HETATM    8  N8  UNL     1      18.632  10.900 -20.015  1.00  0.00    -0.021 N
ATOM      9  H8  UNL     1      18.510  11.896 -19.830  1.00  0.00     0.203 HD
ENDROOT
BRANCH   4  10
HETATM   10  N3  UNL     1      19.138   7.051 -20.720  1.00  0.00    -0.225 N
ATOM     11  H3  UNL     1      20.087   6.685 -20.656  1.00  0.00     0.177 HD
BRANCH  10  12
HETATM   12  C6  UNL     1      18.072   6.154 -21.047  1.00  0.00     0.143 C
BRANCH  12  13
HETATM   13  C7  UNL     1      17.216   5.770 -19.898  1.00  0.00     0.011 C
HETATM   14  C8  UNL     1      17.540   4.402 -19.337  1.00  0.00     0.011 C
HETATM   15  C9  UNL     1      16.134   3.942 -18.942  1.00  0.00    -0.010 C
HETATM   16  C10 UNL     1      15.417   4.316 -20.253  1.00  0.00     0.013 C
HETATM   17  C14 UNL     1      15.548   4.933 -18.000  1.00  0.00     0.048 C
HETATM   18  C11 UNL     1      15.744   5.818 -20.159  1.00  0.00     0.031 C
HETATM   19  C12 UNL     1      15.054   6.119 -18.845  1.00  0.00     0.104 C
HETATM   20  C13 UNL     1      15.479   7.430 -18.261  1.00  0.00     0.052 C
HETATM   21  F1  UNL     1      13.705   5.992 -18.989  1.00  0.00    -0.243 F
ENDBRANCH  12  13
ENDBRANCH  10  12
ENDBRANCH   4  10
BRANCH   1  22
HETATM   22  N1  UNL     1      16.508  10.841 -20.845  1.00  0.00    -0.221 N
ATOM     23  H1  UNL     1      16.524  11.851 -20.984  1.00  0.00     0.178 HD
BRANCH  22  24
HETATM   24  C2  UNL     1      15.269  10.111 -20.947  1.00  0.00     0.091 C
HETATM   25  C1  UNL     1      14.735  10.151 -22.380  1.00  0.00     0.032 C
HETATM   26  C3  UNL     1      14.270  10.739 -19.993  1.00  0.00     0.032 C
ENDBRANCH  22  24
ENDBRANCH   1  22
BRANCH   7  27
HETATM   27  N5  UNL     1      20.779  10.986 -19.169  1.00  0.00    -0.188 N
ATOM     28  H5  UNL     1      20.808  11.998 -19.293  1.00  0.00     0.184 HD
BRANCH  27  29
HETATM   29  C16 UNL     1      21.815  10.365 -18.423  1.00  0.00     0.083 A
HETATM   30  C17 UNL     1      21.711  10.139 -17.064  1.00  0.00     0.138 A
HETATM   31  N6  UNL     1      22.860   9.548 -16.723  1.00  0.00    -0.308 N
HETATM   32  N7  UNL     1      23.657   9.395 -17.753  1.00  0.00    -0.306 N
ATOM     33  H6  UNL     1      23.090   9.252 -15.774  1.00  0.00     0.186 HD
HETATM   34  C18 UNL     1      24.993   8.783 -17.720  1.00  0.00     0.177 C
HETATM   35  C19 UNL     1      23.029   9.895 -18.821  1.00  0.00     0.141 A
ENDBRANCH  27  29
ENDBRANCH   7  27
TORSDOF 7
ENDMDL