MODEL 1
REMARK VINA RESULT: -6.919590884      0.000      0.000
REMARK  8 active torsions:
REMARK  status: ('A' for Active; 'I' for Inactive)
REMARK    1  A    between atoms: C2_2  and  N1_3
REMARK    2  A    between atoms: N1_3  and  C3_5
REMARK    3  A    between atoms: C6_12  and  N4_13
REMARK    4  A    between atoms: N4_13  and  C7_15
REMARK    5  A    between atoms: C7_15  and  C9_17
REMARK    6  A    between atoms: C10_18  and  C11_19
REMARK    7  A    between atoms: C12_20  and  O1_21
REMARK    8  A    between atoms: C16_25  and  C17_26
ROOT
HETATM    1  C9  UNL     1      18.237   5.071 -23.017  1.00  0.00    -0.076 C
HETATM    2  C10 UNL     1      18.630   4.134 -23.652  1.00  0.00    -0.059 C
ENDROOT
BRANCH   1   3
HETATM    3  C7  UNL     1      17.736   6.265 -22.241  1.00  0.00     0.159 C
HETATM    4  C8  UNL     1      18.662   6.305 -21.038  1.00  0.00     0.046 C
BRANCH   3   5
HETATM    5  N4  UNL     1      16.381   6.104 -21.932  1.00  0.00    -0.358 N
ATOM      6  H4  UNL     1      15.895   5.449 -22.545  1.00  0.00     0.162 HD
BRANCH   5   7
HETATM    7  C6  UNL     1      15.654   6.603 -21.057  1.00  0.00     0.146 A
HETATM    8  C3  UNL     1      15.031   5.930 -20.037  1.00  0.00     0.145 A
HETATM    9  N2  UNL     1      14.264   6.631 -19.155  1.00  0.00    -0.348 N
HETATM   10  C4  UNL     1      14.091   7.959 -19.243  1.00  0.00     0.107 A
ATOM     11  H2  UNL     1      13.802   6.126 -18.398  1.00  0.00     0.167 HD
HETATM   12  C5  UNL     1      14.733   8.610 -20.283  1.00  0.00     0.107 A
HETATM   13  N3  UNL     1      15.479   7.970 -21.151  1.00  0.00    -0.348 N
ATOM     14  H3  UNL     1      15.934   8.486 -21.903  1.00  0.00     0.167 HD
BRANCH   8  15
HETATM   15  N1  UNL     1      15.135   4.666 -19.872  1.00  0.00    -0.374 N
ATOM     16  H1  UNL     1      14.866   4.069 -20.654  1.00  0.00     0.161 HD
BRANCH  15  17
HETATM   17  C2  UNL     1      15.597   4.023 -18.687  1.00  0.00     0.117 C
HETATM   18  C1  UNL     1      17.116   3.946 -18.712  1.00  0.00     0.026 C
ENDBRANCH  15  17
ENDBRANCH   8  15
ENDBRANCH   5   7
ENDBRANCH   3   5
ENDBRANCH   1   3
BRANCH   2  19
HETATM   19  C11 UNL     1      19.121   3.027 -24.420  1.00  0.00     0.090 A
HETATM   20  C12 UNL     1      18.705   2.846 -25.728  1.00  0.00     0.090 A
HETATM   21  C14 UNL     1      19.212   1.765 -26.411  1.00  0.00     0.039 A
HETATM   22  C15 UNL     1      20.107   0.875 -25.834  1.00  0.00     0.018 A
HETATM   23  C16 UNL     1      20.521   1.056 -24.528  1.00  0.00     0.017 A
HETATM   24  C20 UNL     1      20.016   2.136 -23.842  1.00  0.00     0.149 A
HETATM   25  F1  UNL     1      20.404   2.335 -22.567  1.00  0.00    -0.203 F
BRANCH  20  26
HETATM   26  O1  UNL     1      17.806   3.748 -26.297  1.00  0.00    -0.354 OA
HETATM   27  C13 UNL     1      18.303   4.603 -27.312  1.00  0.00     0.210 C
ENDBRANCH  20  26
BRANCH  23  28
HETATM   28  C17 UNL     1      21.463   0.103 -23.947  1.00  0.00     0.011 A
HETATM   29  C18 UNL     1      21.295  -1.270 -23.885  1.00  0.00     0.120 A
HETATM   30  N5  UNL     1      22.373  -1.810 -23.278  1.00  0.00    -0.311 N
HETATM   31  N6  UNL     1      23.196  -0.825 -22.966  1.00  0.00    -0.311 N
ATOM     32  H5  UNL     1      22.525  -2.802 -23.094  1.00  0.00     0.186 HD
HETATM   33  C19 UNL     1      22.685   0.357 -23.352  1.00  0.00     0.120 A
ATOM     34  H6  UNL     1      24.095  -0.945 -22.498  1.00  0.00     0.186 HD
ENDBRANCH  23  28
ENDBRANCH   2  19
TORSDOF 8
ENDMDL