MODEL 3
REMARK VINA RESULT: -6.474003806      2.777      7.460
REMARK  5 active torsions:
REMARK  status: ('A' for Active; 'I' for Inactive)
REMARK    1  A    between atoms: N1_2  and  C2_4
REMARK    2  A    between atoms: C9_15  and  N4_16
REMARK    3  A    between atoms: N4_16  and  N5_18
REMARK    4  A    between atoms: C10_20  and  C11_21
REMARK    5  A    between atoms: C16_27  and  O1_28
ROOT
HETATM    1  C2  UNL     1      14.832   8.268 -21.621  1.00  0.00     0.147 A
HETATM    2  N2  UNL     1      15.714   7.233 -21.523  1.00  0.00    -0.338 N
ATOM      3  H2  UNL     1      16.387   7.095 -22.277  1.00  0.00     0.167 HD
HETATM    4  C3  UNL     1      15.739   6.389 -20.487  1.00  0.00     0.060 A
HETATM    5  C4  UNL     1      16.652   5.335 -20.411  1.00  0.00     0.032 A
HETATM    6  C5  UNL     1      16.668   4.471 -19.336  1.00  0.00     0.002 A
HETATM    7  C6  UNL     1      15.760   4.645 -18.305  1.00  0.00     0.002 A
HETATM    8  C7  UNL     1      14.860   5.688 -18.388  1.00  0.00     0.032 A
HETATM    9  C8  UNL     1      14.833   6.563 -19.459  1.00  0.00     0.060 A
HETATM   10  N3  UNL     1      13.962   7.578 -19.546  1.00  0.00    -0.337 N
ATOM     11  H3  UNL     1      13.291   7.711 -18.791  1.00  0.00     0.168 HD
HETATM   12  C9  UNL     1      13.934   8.436 -20.595  1.00  0.00     0.165 A
ENDROOT
BRANCH  12  13
HETATM   13  N4  UNL     1      13.078   9.391 -20.628  1.00  0.00    -0.283 N
ATOM     14  H4  UNL     1      13.335  10.207 -21.183  1.00  0.00     0.188 HD
BRANCH  13  15
HETATM   15  N5  UNL     1      11.865   9.444 -20.006  1.00  0.00    -0.309 N
HETATM   16  C10 UNL     1      10.849   9.995 -20.567  1.00  0.00     0.122 C
ATOM     17  H5  UNL     1      11.762   9.038 -19.076  1.00  0.00     0.186 HD
BRANCH  16  18
HETATM   18  C11 UNL     1       9.547  10.061 -19.915  1.00  0.00     0.031 A
HETATM   19  C12 UNL     1       9.156  11.246 -19.312  1.00  0.00     0.025 A
HETATM   20 BR1  UNL     1      10.344  12.763 -19.359  1.00  0.00    -0.050 Br
HETATM   21  C13 UNL     1       7.929  11.322 -18.690  1.00  0.00     0.020 A
HETATM   22  C14 UNL     1       7.110  10.211 -18.680  1.00  0.00     0.004 A
HETATM   23  C15 UNL     1       7.512   9.049 -19.281  1.00  0.00     0.038 A
HETATM   24  C16 UNL     1       8.728   8.954 -19.904  1.00  0.00     0.081 A
BRANCH  24  25
HETATM   25  O1  UNL     1       9.126   7.775 -20.509  1.00  0.00    -0.355 OA
HETATM   26  C17 UNL     1       8.552   7.257 -21.668  1.00  0.00     0.210 C
ENDBRANCH  24  25
ENDBRANCH  16  18
ENDBRANCH  13  15
ENDBRANCH  12  13
BRANCH   1  27
HETATM   27  N1  UNL     1      14.862   9.047 -22.651  1.00  0.00    -0.378 N
HETATM   28  C1  UNL     1      15.177   8.511 -23.956  1.00  0.00     0.148 C
ATOM     29  H1  UNL     1      14.661  10.041 -22.544  1.00  0.00     0.160 HD
ENDBRANCH   1  27
TORSDOF 5
ENDMDL