MODEL 1
REMARK VINA RESULT: -7.313785614      0.000      0.000
REMARK  6 active torsions:
REMARK  status: ('A' for Active; 'I' for Inactive)
REMARK    1  A    between atoms: C3_5  and  N2_6
REMARK    2  A    between atoms: N2_6  and  N3_8
REMARK    3  A    between atoms: N3_8  and  C4_10
REMARK    4  A    between atoms: C7_13  and  C8_14
REMARK    5  A    between atoms: C17_27  and  C18_28
REMARK    6  A    between atoms: C18_28  and  C19_29
ROOT
HETATM    1  N2  UNL     1      14.324   8.202 -18.737  1.00  0.00    -0.131 N
ATOM      2  H2  UNL     1      15.130   8.435 -18.157  1.00  0.00     0.205 HD
ENDROOT
BRANCH   1   3
HETATM    3  C3  UNL     1      13.483   9.114 -19.092  1.00  0.00     0.700 A
HETATM    4  N1  UNL     1      13.765  10.418 -19.080  1.00  0.00    -0.190 N
HETATM    5  C2  UNL     1      12.883  11.388 -19.454  1.00  0.00     0.055 A
ATOM      6  H1  UNL     1      14.695  10.706 -18.774  1.00  0.00     0.184 HD
HETATM    7  C1  UNL     1      13.265  12.625 -19.404  1.00  0.00     0.044 C
HETATM    8  C17 UNL     1      11.629  11.017 -19.870  1.00  0.00     0.061 A
HETATM    9  C16 UNL     1      11.354   9.669 -19.876  1.00  0.00     0.272 A
HETATM   10  N4  UNL     1      12.270   8.729 -19.491  1.00  0.00    -0.154 N
HETATM   11  O1  UNL     1      10.236   9.226 -20.237  1.00  0.00    -0.267 OA
ATOM     12  H4  UNL     1      12.027   7.738 -19.509  1.00  0.00     0.187 HD
BRANCH   8  13
HETATM   13  C18 UNL     1      10.741  11.899 -20.240  1.00  0.00     0.056 C
BRANCH  13  14
HETATM   14  C19 UNL     1       9.740  12.480 -19.365  1.00  0.00     0.076 A
HETATM   15  C20 UNL     1       9.536  13.826 -19.159  1.00  0.00     0.039 A
HETATM   16  C21 UNL     1       8.498  13.934 -18.271  1.00  0.00     0.027 A
HETATM   17  C22 UNL     1       8.096  12.638 -17.959  1.00  0.00     0.142 A
HETATM   18  O2  UNL     1       8.876  11.830 -18.644  1.00  0.00    -0.323 OA
ENDBRANCH  13  14
ENDBRANCH   8  13
ENDBRANCH   1   3
BRANCH   1  19
HETATM   19  N3  UNL     1      14.110   6.892 -19.162  1.00  0.00    -0.287 N
ATOM     20  H3  UNL     1      13.273   6.385 -18.873  1.00  0.00     0.187 HD
BRANCH  19  21
HETATM   21  C4  UNL     1      15.073   6.271 -20.004  1.00  0.00     0.048 A
HETATM   22  C5  UNL     1      15.328   4.915 -19.957  1.00  0.00     0.032 A
HETATM   23  C6  UNL     1      16.269   4.341 -20.787  1.00  0.00     0.014 A
HETATM   24  C7  UNL     1      16.997   5.080 -21.697  1.00  0.00    -0.026 A
HETATM   25  C14 UNL     1      16.742   6.436 -21.744  1.00  0.00     0.014 A
HETATM   26  C15 UNL     1      15.797   7.015 -20.912  1.00  0.00     0.032 A
BRANCH  24  27
HETATM   27  C8  UNL     1      17.993   4.472 -22.575  1.00  0.00    -0.026 A
HETATM   28  C9  UNL     1      18.657   3.336 -22.162  1.00  0.00     0.015 A
HETATM   29  C10 UNL     1      19.605   2.728 -22.958  1.00  0.00     0.043 A
HETATM   30  C11 UNL     1      19.908   3.259 -24.204  1.00  0.00     0.116 A
HETATM   31  F1  UNL     1      20.843   2.673 -25.009  1.00  0.00    -0.206 F
HETATM   32  C12 UNL     1      19.254   4.399 -24.640  1.00  0.00     0.043 A
HETATM   33  C13 UNL     1      18.309   4.984 -23.817  1.00  0.00     0.015 A
ENDBRANCH  24  27
ENDBRANCH  19  21
ENDBRANCH   1  19
TORSDOF 6
ENDMDL