MODEL 3
REMARK VINA RESULT: -7.393415157      1.195      1.641
REMARK  6 active torsions:
REMARK  status: ('A' for Active; 'I' for Inactive)
REMARK    1  A    between atoms: C3_7  and  N3_8
REMARK    2  A    between atoms: N3_8  and  C4_10
REMARK    3  A    between atoms: C4_10  and  C5_11
REMARK    4  A    between atoms: C10_20  and  N6_21
REMARK    5  A    between atoms: N6_21  and  C11_23
REMARK    6  A    between atoms: C14_26  and  C15_27
ROOT
HETATM    1  C1  UNL     1      14.249   5.883 -18.646  1.00  0.00     0.165 C
HETATM    2  N1  UNL     1      15.106   5.123 -19.508  1.00  0.00    -0.229 N
ATOM      3  H1  UNL     1      14.796   4.193 -19.791  1.00  0.00     0.177 HD
HETATM    4  C2  UNL     1      16.234   5.537 -19.945  1.00  0.00     0.706 A
HETATM    5  N2  UNL     1      16.689   6.748 -19.619  1.00  0.00    -0.021 N
ATOM      6  H2  UNL     1      16.116   7.374 -19.052  1.00  0.00     0.203 HD
HETATM    7  C3  UNL     1      17.897   7.142 -20.037  1.00  0.00     0.711 A
HETATM    8  N5  UNL     1      18.671   6.309 -20.800  1.00  0.00    -0.021 N
ATOM      9  H5  UNL     1      19.591   6.614 -21.116  1.00  0.00     0.203 HD
HETATM   10  C10 UNL     1      18.208   5.066 -21.137  1.00  0.00     0.711 A
HETATM   11  N7  UNL     1      17.011   4.688 -20.713  1.00  0.00    -0.021 N
ATOM     12  H7  UNL     1      16.659   3.762 -20.955  1.00  0.00     0.203 HD
ENDROOT
BRANCH  10  13
HETATM   13  N6  UNL     1      18.964   4.358 -21.818  1.00  0.00    -0.191 N
ATOM     14  H6  UNL     1      19.847   4.336 -21.307  1.00  0.00     0.184 HD
BRANCH  13  15
HETATM   15  C11 UNL     1      19.168   3.603 -22.916  1.00  0.00     0.051 A
HETATM   16  C12 UNL     1      19.910   2.439 -23.045  1.00  0.00     0.031 A
HETATM   17  C13 UNL     1      20.065   1.766 -24.230  1.00  0.00     0.015 A
HETATM   18  C14 UNL     1      19.465   2.236 -25.416  1.00  0.00    -0.013 A
HETATM   19  C18 UNL     1      18.724   3.389 -25.322  1.00  0.00     0.046 A
HETATM   20 CL1  UNL     1      18.040   4.086 -26.813  1.00  0.00    -0.083 Cl
HETATM   21  C19 UNL     1      18.582   4.038 -24.134  1.00  0.00     0.054 A
BRANCH  18  22
HETATM   22  C15 UNL     1      19.502   1.403 -26.606  1.00  0.00    -0.076 C
HETATM   23  C16 UNL     1      18.904   0.044 -26.515  1.00  0.00     0.044 C
HETATM   24  C17 UNL     1      20.507   1.585 -27.650  1.00  0.00     0.044 C
ENDBRANCH  18  22
ENDBRANCH  13  15
ENDBRANCH  10  13
BRANCH   7  25
HETATM   25  N3  UNL     1      18.414   8.249 -19.758  1.00  0.00    -0.199 N
ATOM     26  H3  UNL     1      17.929   8.708 -18.987  1.00  0.00     0.183 HD
BRANCH  25  27
HETATM   27  C4  UNL     1      19.475   9.012 -20.226  1.00  0.00     0.135 C
BRANCH  27  28
HETATM   28  C5  UNL     1      20.450   9.301 -19.108  1.00  0.00     0.048 A
HETATM   29  C6  UNL     1      21.290   8.283 -18.678  1.00  0.00     0.031 A
HETATM   30  C7  UNL     1      22.225   8.528 -17.693  1.00  0.00     0.004 A
HETATM   31  C8  UNL     1      22.333   9.786 -17.132  1.00  0.00     0.017 A
HETATM   32  C9  UNL     1      21.482  10.769 -17.586  1.00  0.00     0.088 A
HETATM   33  N4  UNL     1      20.566  10.493 -18.560  1.00  0.00    -0.365 N
ATOM     34  H4  UNL     1      19.947  11.239 -18.876  1.00  0.00     0.165 HD
ENDBRANCH  27  28
ENDBRANCH  25  27
ENDBRANCH   7  25
TORSDOF 6
ENDMDL