MODEL 2
REMARK VINA RESULT: -7.031975142      2.673      5.363
REMARK  7 active torsions:
REMARK  status: ('A' for Active; 'I' for Inactive)
REMARK    1  A    between atoms: C4_7  and  N3_8
REMARK    2  A    between atoms: N3_8  and  C5_10
REMARK    3  A    between atoms: C5_10  and  C6_11
REMARK    4  A    between atoms: C6_11  and  N4_12
REMARK    5  A    between atoms: N4_12  and  C7_14
REMARK    6  A    between atoms: C14_25  and  N7_26
REMARK    7  A    between atoms: N7_26  and  C15_28
ROOT
HETATM    1  C7  UNL     1      18.594   8.796 -20.960  1.00  0.00     0.147 A
HETATM    2  N5  UNL     1      19.088   9.843 -20.296  1.00  0.00    -0.338 N
ATOM      3  H5  UNL     1      18.697  10.767 -20.476  1.00  0.00     0.167 HD
HETATM    4  C8  UNL     1      20.094   9.723 -19.387  1.00  0.00     0.060 A
HETATM    5  C9  UNL     1      20.560  10.833 -18.736  1.00  0.00     0.032 A
HETATM    6  C10 UNL     1      21.580  10.701 -17.816  1.00  0.00     0.002 A
HETATM    7  C11 UNL     1      22.145   9.476 -17.533  1.00  0.00     0.002 A
HETATM    8  C12 UNL     1      21.640   8.381 -18.216  1.00  0.00     0.032 A
HETATM    9  C13 UNL     1      20.620   8.492 -19.141  1.00  0.00     0.060 A
HETATM   10  N6  UNL     1      20.135   7.439 -19.798  1.00  0.00    -0.338 N
ATOM     11  H6  UNL     1      20.531   6.518 -19.612  1.00  0.00     0.167 HD
HETATM   12  C14 UNL     1      19.122   7.550 -20.716  1.00  0.00     0.151 A
ENDROOT
BRANCH   1  13
HETATM   13  N4  UNL     1      17.658   8.945 -21.799  1.00  0.00    -0.368 N
ATOM     14  H4  UNL     1      17.792   8.565 -22.737  1.00  0.00     0.161 HD
BRANCH  13  15
HETATM   15  C6  UNL     1      16.422   9.612 -21.519  1.00  0.00     0.165 C
BRANCH  15  16
HETATM   16  C5  UNL     1      15.225   8.768 -21.850  1.00  0.00     0.082 C
BRANCH  16  17
HETATM   17  N3  UNL     1      14.478   8.233 -20.822  1.00  0.00    -0.353 N
ATOM     18  H3  UNL     1      13.628   7.798 -21.179  1.00  0.00     0.166 HD
BRANCH  17  19
HETATM   19  C4  UNL     1      14.543   8.129 -19.574  1.00  0.00     0.122 A
HETATM   20  N1  UNL     1      13.933   9.044 -18.751  1.00  0.00    -0.281 N
HETATM   21  C1  UNL     1      13.171  10.197 -19.197  1.00  0.00     0.179 C
HETATM   22  N2  UNL     1      14.146   8.717 -17.500  1.00  0.00    -0.308 N
HETATM   23  C2  UNL     1      14.884   7.604 -17.405  1.00  0.00     0.111 A
ATOM     24  H2  UNL     1      13.795   9.244 -16.700  1.00  0.00     0.186 HD
HETATM   25  C3  UNL     1      15.138   7.228 -18.732  1.00  0.00     0.068 A
ENDBRANCH  17  19
ENDBRANCH  16  17
ENDBRANCH  15  16
ENDBRANCH  13  15
ENDBRANCH   1  13
BRANCH  12  26
HETATM   26  N7  UNL     1      18.760   6.472 -21.263  1.00  0.00    -0.339 N
ATOM     27  H7  UNL     1      19.258   6.219 -22.118  1.00  0.00     0.167 HD
BRANCH  26  28
HETATM   28  C15 UNL     1      17.763   5.575 -20.851  1.00  0.00     0.036 A
HETATM   29  C16 UNL     1      16.611   5.333 -21.595  1.00  0.00     0.029 A
HETATM   30  C17 UNL     1      15.641   4.448 -21.193  1.00  0.00     0.005 A
HETATM   31  C18 UNL     1      15.793   3.759 -20.012  1.00  0.00     0.042 A
HETATM   32  C19 UNL     1      16.916   3.970 -19.250  1.00  0.00     0.118 A
HETATM   33  F1  UNL     1      17.078   3.288 -18.067  1.00  0.00    -0.206 F
HETATM   34  C20 UNL     1      17.885   4.859 -19.658  1.00  0.00     0.071 A
ENDBRANCH  26  28
ENDBRANCH  12  26
TORSDOF 7
ENDMDL