MODEL 1
REMARK VINA RESULT: -7.267355126      0.000      0.000
REMARK  7 active torsions:
REMARK  status: ('A' for Active; 'I' for Inactive)
REMARK    1  A    between atoms: N1_2  and  C2_4
REMARK    2  A    between atoms: C3_7  and  N3_8
REMARK    3  A    between atoms: N3_8  and  C4_10
REMARK    4  A    between atoms: C4_10  and  C5_11
REMARK    5  A    between atoms: C8_14  and  N4_15
REMARK    6  A    between atoms: C13_22  and  N6_23
REMARK    7  A    between atoms: N6_23  and  C14_25
ROOT
HETATM    1  C2  UNL     1      16.387   5.257 -20.013  1.00  0.00     0.706 A
HETATM    2  N2  UNL     1      17.275   6.080 -19.416  1.00  0.00    -0.022 N
ATOM      3  H2  UNL     1      17.121   6.381 -18.453  1.00  0.00     0.203 HD
HETATM    4  C3  UNL     1      18.360   6.503 -20.086  1.00  0.00     0.707 A
HETATM    5  N5  UNL     1      18.539   6.091 -21.351  1.00  0.00    -0.021 N
ATOM      6  H5  UNL     1      19.362   6.411 -21.862  1.00  0.00     0.203 HD
HETATM    7  C13 UNL     1      17.671   5.274 -21.966  1.00  0.00     0.711 A
HETATM    8  N7  UNL     1      16.592   4.860 -21.283  1.00  0.00    -0.021 N
ATOM      9  H7  UNL     1      15.919   4.237 -21.731  1.00  0.00     0.203 HD
ENDROOT
BRANCH   4  10
HETATM   10  N3  UNL     1      19.245   7.290 -19.572  1.00  0.00    -0.221 N
ATOM     11  H3  UNL     1      19.373   7.272 -18.560  1.00  0.00     0.178 HD
BRANCH  10  12
HETATM   12  C4  UNL     1      20.056   8.187 -20.337  1.00  0.00     0.176 C
BRANCH  12  13
HETATM   13  C5  UNL     1      21.338   8.511 -19.647  1.00  0.00    -0.040 A
HETATM   14  C6  UNL     1      21.457   8.525 -18.282  1.00  0.00     0.011 A
HETATM   15  C7  UNL     1      22.681   8.836 -17.737  1.00  0.00     0.030 A
HETATM   16  C8  UNL     1      23.773   9.129 -18.536  1.00  0.00     0.029 A
HETATM   17  C11 UNL     1      23.666   9.118 -19.908  1.00  0.00     0.030 A
HETATM   18  C12 UNL     1      22.427   8.803 -20.458  1.00  0.00     0.011 A
BRANCH  16  19
HETATM   19  N4  UNL     1      25.028   9.452 -17.964  1.00  0.00    -0.390 N
HETATM   20  C9  UNL     1      25.380  10.860 -17.926  1.00  0.00     0.149 C
HETATM   21  C10 UNL     1      25.912   8.427 -17.442  1.00  0.00     0.149 C
ENDBRANCH  16  19
ENDBRANCH  12  13
ENDBRANCH  10  12
ENDBRANCH   4  10
BRANCH   1  22
HETATM   22  N1  UNL     1      15.362   4.881 -19.324  1.00  0.00    -0.229 N
HETATM   23  C1  UNL     1      14.498   5.843 -18.668  1.00  0.00     0.165 C
ATOM     24  H1  UNL     1      15.156   3.885 -19.239  1.00  0.00     0.177 HD
ENDBRANCH   1  22
BRANCH   7  25
HETATM   25  N6  UNL     1      17.871   4.892 -23.190  1.00  0.00    -0.191 N
ATOM     26  H6  UNL     1      17.419   5.403 -23.949  1.00  0.00     0.184 HD
BRANCH  25  27
HETATM   27  C14 UNL     1      18.703   3.784 -23.506  1.00  0.00     0.050 A
HETATM   28  C15 UNL     1      19.540   3.191 -22.583  1.00  0.00     0.033 A
HETATM   29  C16 UNL     1      20.339   2.107 -22.933  1.00  0.00     0.045 A
HETATM   30  C17 UNL     1      20.325   1.587 -24.209  1.00  0.00     0.122 A
HETATM   31  F1  UNL     1      21.114   0.525 -24.535  1.00  0.00    -0.206 F
HETATM   32  C18 UNL     1      19.489   2.174 -25.146  1.00  0.00    -0.021 A
HETATM   33  C19 UNL     1      19.448   1.643 -26.530  1.00  0.00     0.051 C
HETATM   34  C20 UNL     1      18.708   3.242 -24.784  1.00  0.00     0.039 A
ENDBRANCH  25  27
ENDBRANCH   7  25
TORSDOF 7
ENDMDL