MODEL 2
REMARK VINA RESULT: -7.626179522      1.250      1.504
REMARK  7 active torsions:
REMARK  status: ('A' for Active; 'I' for Inactive)
REMARK    1  A    between atoms: C2_2  and  O1_3
REMARK    2  A    between atoms: O1_3  and  C3_4
REMARK    3  A    between atoms: C5_6  and  C6_7
REMARK    4  A    between atoms: C6_7  and  C7_8
REMARK    5  A    between atoms: C9_14  and  C10_15
REMARK    6  A    between atoms: C10_15  and  C11_16
REMARK    7  A    between atoms: C22_31  and  O3_32
ROOT
HETATM    1  C7  UNL     1      12.623  10.045 -21.405  1.00  0.00     0.099 A
HETATM    2  N1  UNL     1      12.929   9.457 -22.575  1.00  0.00    -0.297 N
ATOM      3  H1  UNL     1      12.308   9.598 -23.372  1.00  0.00     0.187 HD
HETATM    4  N2  UNL     1      14.008   8.701 -22.733  1.00  0.00    -0.310 N
ATOM      5  H2  UNL     1      14.181   8.286 -23.648  1.00  0.00     0.186 HD
HETATM    6  C8  UNL     1      14.884   8.456 -21.743  1.00  0.00     0.122 A
HETATM    7  C9  UNL     1      14.636   9.026 -20.512  1.00  0.00     0.034 A
HETATM    8  C19 UNL     1      13.493   9.822 -20.360  1.00  0.00     0.211 A
HETATM    9  O2  UNL     1      13.271  10.338 -19.238  1.00  0.00    -0.285 OA
ENDROOT
BRANCH   1  10
HETATM   10  C6  UNL     1      11.550  10.801 -21.232  1.00  0.00     0.046 C
BRANCH  10  11
HETATM   11  C5  UNL     1      10.379  10.326 -20.505  1.00  0.00    -0.031 A
HETATM   12  C4  UNL     1       9.675   9.202 -20.890  1.00  0.00     0.051 A
HETATM   13  C3  UNL     1       8.569   8.770 -20.186  1.00  0.00     0.102 A
HETATM   14  C22 UNL     1       8.105   9.439 -19.056  1.00  0.00     0.099 A
HETATM   15  C21 UNL     1       8.810  10.555 -18.678  1.00  0.00     0.040 A
HETATM   16  C20 UNL     1       9.917  10.987 -19.381  1.00  0.00     0.014 A
BRANCH  13  17
HETATM   17  O1  UNL     1       7.856   7.647 -20.563  1.00  0.00    -0.349 OA
BRANCH  17  18
HETATM   18  C2  UNL     1       7.980   6.923 -21.741  1.00  0.00     0.171 C
HETATM   19  C1  UNL     1       6.988   7.260 -22.817  1.00  0.00     0.034 C
ENDBRANCH  17  18
ENDBRANCH  13  17
BRANCH  14  20
HETATM   20  O3  UNL     1       6.988   8.988 -18.358  1.00  0.00    -0.358 OA
ATOM     21  H3  UNL     1       6.779   9.323 -17.494  1.00  0.00     0.217 HD
ENDBRANCH  14  20
ENDBRANCH  10  11
ENDBRANCH   1  10
BRANCH   7  22
HETATM   22  C10 UNL     1      15.465   8.811 -19.524  1.00  0.00     0.030 C
BRANCH  22  23
HETATM   23  C11 UNL     1      16.459   7.755 -19.597  1.00  0.00    -0.004 A
HETATM   24  C12 UNL     1      17.804   7.925 -19.844  1.00  0.00     0.100 A
HETATM   25  N3  UNL     1      18.414   6.728 -19.838  1.00  0.00    -0.364 N
HETATM   26  C13 UNL     1      17.499   5.746 -19.588  1.00  0.00     0.046 A
ATOM     27  H3  UNL     1      19.410   6.576 -19.996  1.00  0.00     0.165 HD
HETATM   28  C14 UNL     1      17.617   4.378 -19.481  1.00  0.00     0.030 A
HETATM   29  C18 UNL     1      16.291   6.395 -19.441  1.00  0.00     0.041 A
HETATM   30  C15 UNL     1      16.502   3.618 -19.218  1.00  0.00     0.005 A
HETATM   31  C16 UNL     1      15.290   4.255 -19.069  1.00  0.00     0.043 A
HETATM   32  C17 UNL     1      15.177   5.621 -19.176  1.00  0.00     0.129 A
HETATM   33  F1  UNL     1      13.994   6.278 -19.034  1.00  0.00    -0.205 F
ENDBRANCH  22  23
ENDBRANCH   7  22
TORSDOF 7
ENDMDL