MODEL 5
REMARK VINA RESULT: -6.288279373      3.501      6.173
REMARK  6 active torsions:
REMARK  status: ('A' for Active; 'I' for Inactive)
REMARK    1  A    between atoms: C5_7  and  N2_8
REMARK    2  A    between atoms: N2_8  and  C6_10
REMARK    3  A    between atoms: C10_16  and  N4_17
REMARK    4  A    between atoms: N4_17  and  C11_19
REMARK    5  A    between atoms: C17_28  and  O1_29
REMARK    6  A    between atoms: O1_29  and  C18_30
ROOT
HETATM    1  C6  UNL     1      17.531   5.467 -22.395  1.00  0.00     0.684 A
HETATM    2  N3  UNL     1      18.388   6.403 -21.964  1.00  0.00    -0.196 N
ATOM      3  H3  UNL     1      18.092   7.081 -21.262  1.00  0.00     0.184 HD
HETATM    4  C7  UNL     1      19.640   6.448 -22.459  1.00  0.00     0.026 A
HETATM    5  C8  UNL     1      20.523   7.530 -21.917  1.00  0.00     0.069 C
HETATM    6  C9  UNL     1      20.070   5.552 -23.404  1.00  0.00     0.074 A
HETATM    7  C10 UNL     1      19.186   4.595 -23.841  1.00  0.00     0.123 A
HETATM    8  N5  UNL     1      17.943   4.580 -23.325  1.00  0.00    -0.176 N
ATOM      9  H5  UNL     1      17.287   3.870 -23.650  1.00  0.00     0.186 HD
ENDROOT
BRANCH   1  10
HETATM   10  N2  UNL     1      16.342   5.460 -21.896  1.00  0.00    -0.189 N
ATOM     11  H2  UNL     1      15.514   5.603 -22.474  1.00  0.00     0.184 HD
BRANCH  10  12
HETATM   12  C5  UNL     1      16.247   5.241 -20.479  1.00  0.00     0.086 A
HETATM   13  C4  UNL     1      16.830   4.038 -19.871  1.00  0.00     0.050 A
HETATM   14  C3  UNL     1      16.732   3.860 -18.566  1.00  0.00     0.090 A
HETATM   15  N1  UNL     1      16.073   4.816 -17.745  1.00  0.00    -0.364 N
HETATM   16  C2  UNL     1      15.501   5.988 -18.308  1.00  0.00     0.058 A
ATOM     17  H1  UNL     1      16.010   4.658 -16.739  1.00  0.00     0.165 HD
HETATM   18  C1  UNL     1      14.885   6.889 -17.564  1.00  0.00     0.046 C
HETATM   19  C17 UNL     1      15.627   6.154 -19.765  1.00  0.00     0.121 A
BRANCH  19  20
HETATM   20  O1  UNL     1      15.066   7.295 -20.291  1.00  0.00    -0.347 OA
BRANCH  20  21
HETATM   21  C18 UNL     1      15.808   8.474 -20.360  1.00  0.00     0.171 C
HETATM   22  C19 UNL     1      14.978   9.737 -20.329  1.00  0.00     0.034 C
ENDBRANCH  20  21
ENDBRANCH  19  20
ENDBRANCH  10  12
ENDBRANCH   1  10
BRANCH   7  23
HETATM   23  N4  UNL     1      19.575   3.753 -24.723  1.00  0.00    -0.341 N
ATOM     24  H4  UNL     1      19.497   3.975 -25.715  1.00  0.00     0.167 HD
BRANCH  23  25
HETATM   25  C11 UNL     1      20.115   2.509 -24.310  1.00  0.00     0.055 A
HETATM   26  C12 UNL     1      20.866   2.382 -23.146  1.00  0.00     0.031 A
HETATM   27  C13 UNL     1      21.378   1.179 -22.765  1.00  0.00     0.002 A
HETATM   28  C14 UNL     1      21.187   0.033 -23.495  1.00  0.00     0.002 A
HETATM   29  C15 UNL     1      20.445   0.129 -24.655  1.00  0.00     0.026 A
HETATM   30  C16 UNL     1      19.927   1.344 -25.042  1.00  0.00     0.060 A
HETATM   31 CL1  UNL     1      18.980   1.453 -26.531  1.00  0.00    -0.082 Cl
ENDBRANCH  23  25
ENDBRANCH   7  23
TORSDOF 6
ENDMDL