MODEL 1
REMARK VINA RESULT: -7.103723716      0.000      0.000
REMARK  7 active torsions:
REMARK  status: ('A' for Active; 'I' for Inactive)
REMARK    1  A    between atoms: N1_2  and  C2_4
REMARK    2  A    between atoms: C3_7  and  N3_8
REMARK    3  A    between atoms: N3_8  and  C4_10
REMARK    4  A    between atoms: C4_10  and  C5_11
REMARK    5  A    between atoms: C11_21  and  N6_22
REMARK    6  A    between atoms: N6_22  and  C12_23
REMARK    7  A    between atoms: C12_23  and  C13_24
ROOT
HETATM    1  C2  UNL     1      13.919  10.702 -19.885  1.00  0.00     0.699 A
HETATM    2  N2  UNL     1      13.630   9.437 -19.587  1.00  0.00    -0.022 N
ATOM      3  H2  UNL     1      12.703   9.228 -19.216  1.00  0.00     0.203 HD
HETATM    4  C3  UNL     1      14.515   8.396 -19.752  1.00  0.00     0.700 A
HETATM    5  N5  UNL     1      15.733   8.740 -20.260  1.00  0.00    -0.148 N
ATOM      6  H5  UNL     1      16.424   8.004 -20.408  1.00  0.00     0.188 HD
HETATM    7  C11 UNL     1      16.071  10.030 -20.580  1.00  0.00     0.287 A
HETATM    8  N7  UNL     1      15.134  10.979 -20.380  1.00  0.00    -0.148 N
ATOM      9  H7  UNL     1      15.359  11.945 -20.615  1.00  0.00     0.188 HD
ENDROOT
BRANCH   4  10
HETATM   10  N3  UNL     1      14.169   7.305 -19.308  1.00  0.00    -0.199 N
ATOM     11  H3  UNL     1      13.158   7.228 -19.422  1.00  0.00     0.183 HD
BRANCH  10  12
HETATM   12  C4  UNL     1      14.616   6.146 -18.715  1.00  0.00     0.135 C
BRANCH  12  13
HETATM   13  C5  UNL     1      15.782   5.622 -19.523  1.00  0.00     0.048 A
HETATM   14  C6  UNL     1      15.406   4.937 -20.684  1.00  0.00     0.031 A
HETATM   15  C7  UNL     1      16.397   4.322 -21.406  1.00  0.00     0.010 A
HETATM   16  C8  UNL     1      17.729   4.399 -20.986  1.00  0.00    -0.047 A
HETATM   17  C9  UNL     1      18.713   3.688 -21.838  1.00  0.00     0.049 C
HETATM   18  C10 UNL     1      18.045   5.077 -19.841  1.00  0.00     0.095 A
HETATM   19  N4  UNL     1      17.033   5.676 -19.135  1.00  0.00    -0.364 N
ATOM     20  H4  UNL     1      17.261   6.181 -18.278  1.00  0.00     0.165 HD
ENDBRANCH  12  13
ENDBRANCH  10  12
ENDBRANCH   4  10
BRANCH   1  21
HETATM   21  N1  UNL     1      13.194  11.615 -19.510  1.00  0.00    -0.211 N
HETATM   22  C1  UNL     1      12.569  12.809 -19.516  1.00  0.00     0.137 C
ATOM     23  H1  UNL     1      12.834  11.222 -18.640  1.00  0.00     0.182 HD
ENDBRANCH   1  21
BRANCH   7  24
HETATM   24  N6  UNL     1      17.190  10.272 -20.889  1.00  0.00    -0.382 NA
BRANCH  24  25
HETATM   25  C12 UNL     1      18.453  10.514 -21.235  1.00  0.00     0.199 C
BRANCH  25  26
HETATM   26  C13 UNL     1      19.524   9.930 -20.442  1.00  0.00     0.015 A
HETATM   27  C14 UNL     1      20.140  10.568 -19.433  1.00  0.00     0.022 A
HETATM   28  C15 UNL     1      20.975   9.890 -18.537  1.00  0.00    -0.061 A
HETATM   29  C16 UNL     1      21.584  10.553 -17.386  1.00  0.00     0.048 C
HETATM   30  C17 UNL     1      21.151   8.506 -18.722  1.00  0.00     0.008 A
HETATM   31  C18 UNL     1      20.530   7.857 -19.745  1.00  0.00     0.025 A
HETATM   32  C19 UNL     1      19.730   8.572 -20.583  1.00  0.00     0.046 A
HETATM   33 CL1  UNL     1      18.995   7.795 -21.954  1.00  0.00    -0.083 Cl
ENDBRANCH  25  26
ENDBRANCH  24  25
ENDBRANCH   7  24
TORSDOF 7
ENDMDL