MODEL 2
REMARK VINA RESULT: -6.228654652      2.966      5.301
REMARK  4 active torsions:
REMARK  status: ('A' for Active; 'I' for Inactive)
REMARK    1  A    between atoms: N2_3  and  N3_5
REMARK       I    between atoms: N5_9  and  C3_11
REMARK    2  A    between atoms: C4_15  and  C5_16
REMARK    3  A    between atoms: C5_16  and  C6_17
REMARK    4  A    between atoms: C6_17  and  N7_18
ROOT
HETATM    1  N3  UNL     1      41.221  14.109 -14.492  1.00  0.00    -0.191 N
HETATM    2  N4  UNL     1      40.236  14.170 -13.665  1.00  0.00    -0.257 N
ATOM      3  H4  UNL     1      40.272  14.794 -12.860  1.00  0.00     0.191 HD
HETATM    4  C2  UNL     1      39.168  13.401 -13.882  1.00  0.00     0.170 A
HETATM    5  N5  UNL     1      38.060  13.297 -13.182  1.00  0.00    -0.290 N
ATOM      6  H5  UNL     1      37.320  12.659 -13.474  1.00  0.00     0.172 HD
HETATM    7  C3  UNL     1      37.916  14.086 -12.018  1.00  0.00     0.334 C
HETATM    8  N6  UNL     1      37.359  15.385 -12.121  1.00  0.00    -0.040 NA
HETATM    9  O1  UNL     1      38.265  13.681 -10.885  1.00  0.00    -0.251 OA
HETATM   10  S1  UNL     1      39.605  12.578 -15.314  1.00  0.00    -0.035 SA
HETATM   11  C4  UNL     1      41.137  13.286 -15.531  1.00  0.00     0.098 A
ENDROOT
BRANCH  11  12
HETATM   12  C5  UNL     1      42.095  13.006 -16.634  1.00  0.00     0.096 C
BRANCH  12  13
HETATM   13  C6  UNL     1      41.422  13.151 -17.986  1.00  0.00     0.236 C
BRANCH  13  14
HETATM   14  N7  UNL     1      41.303  11.880 -18.665  1.00  0.00    -0.079 N
ATOM     15  H73 UNL     1      41.998  11.787 -19.406  1.00  0.00     0.274 HD
ATOM     16  H72 UNL     1      41.605  11.110 -18.067  1.00  0.00     0.274 HD
ATOM     17  H71 UNL     1      40.359  11.727 -19.019  1.00  0.00     0.274 HD
ENDBRANCH  13  14
ENDBRANCH  12  13
ENDBRANCH  11  12
BRANCH   1  18
HETATM   18  N2  UNL     1      42.395  14.915 -14.302  1.00  0.00    -0.277 N
HETATM   19  C1  UNL     1      42.502  15.658 -13.250  1.00  0.00     0.208 C
HETATM   20  N1  UNL     1      43.622  16.473 -12.998  1.00  0.00    -0.095 NA
ATOM     21  H2  UNL     1      43.142  14.902 -14.996  1.00  0.00     0.189 HD
ENDBRANCH   1  18
TORSDOF 4
ENDMDL