MODEL 3
REMARK VINA RESULT: -7.658838000      1.206      2.164
REMARK  5 active torsions:
REMARK  status: ('A' for Active; 'I' for Inactive)
REMARK    1  A    between atoms: O1_2  and  C2_3
REMARK    2  A    between atoms: C4_5  and  N1_6
REMARK    3  A    between atoms: C5_11  and  N3_12
REMARK       I    between atoms: N3_12  and  C6_14
REMARK       I    between atoms: C6_14  and  N4_15
REMARK    4  A    between atoms: N5_17  and  N6_19
REMARK    5  A    between atoms: N7_22  and  N8_24
ROOT
HETATM    1  N3  UNL     1      39.977  13.538 -14.766  1.00  0.00    -0.019 N
ATOM      2  H3  UNL     1      40.877  13.992 -14.920  1.00  0.00     0.203 HD
HETATM    3  C6  UNL     1      39.707  12.309 -15.426  1.00  0.00     0.728 C
HETATM    4  N4  UNL     1      38.887  12.328 -16.560  1.00  0.00    -0.116 N
ATOM      5  H4  UNL     1      38.047  11.751 -16.535  1.00  0.00     0.207 HD
HETATM    6  N5  UNL     1      39.094  12.997 -17.608  1.00  0.00    -0.235 N
ATOM      7  H5  UNL     1      38.409  12.916 -18.360  1.00  0.00     0.208 HD
HETATM    8  N7  UNL     1      40.214  11.216 -14.980  1.00  0.00    -0.116 N
ATOM      9  H7  UNL     1      40.004  10.348 -15.474  1.00  0.00     0.207 HD
ENDROOT
BRANCH   1  10
HETATM   10  C5  UNL     1      39.115  14.103 -13.971  1.00  0.00     0.700 A
HETATM   11  N2  UNL     1      38.599  13.335 -12.999  1.00  0.00    -0.176 N
HETATM   12  C4  UNL     1      37.692  13.855 -12.132  1.00  0.00     0.118 A
ATOM     13  H2  UNL     1      38.887  12.360 -12.912  1.00  0.00     0.186 HD
HETATM   14  C3  UNL     1      37.344  15.182 -12.303  1.00  0.00     0.105 A
HETATM   15  C2  UNL     1      37.862  15.983 -13.291  1.00  0.00     0.160 A
HETATM   16  N10 UNL     1      38.763  15.395 -14.121  1.00  0.00    -0.170 N
ATOM     17  H10 UNL     1      39.181  15.943 -14.872  1.00  0.00     0.186 HD
BRANCH  12  18
HETATM   18  N1  UNL     1      37.189  13.115 -11.188  1.00  0.00    -0.385 N
ATOM     19  H12 UNL     1      37.254  13.411 -10.215  1.00  0.00     0.157 HD
ATOM     20  H11 UNL     1      36.719  12.230 -11.376  1.00  0.00     0.157 HD
ENDBRANCH  12  18
BRANCH  15  21
HETATM   21  O1  UNL     1      37.549  17.296 -13.499  1.00  0.00    -0.340 OA
HETATM   22  C1  UNL     1      38.433  18.334 -13.751  1.00  0.00     0.211 C
ENDBRANCH  15  21
ENDBRANCH   1  10
BRANCH   8  23
HETATM   23  N8  UNL     1      41.032  11.155 -13.861  1.00  0.00    -0.235 N
HETATM   24  N9  UNL     1      40.782  10.408 -12.851  1.00  0.00    -0.330 N
ATOM     25  H92 UNL     1      39.937   9.837 -12.887  1.00  0.00     0.178 HD
ATOM     26  H91 UNL     1      41.383  10.363 -12.028  1.00  0.00     0.178 HD
ATOM     27  H8  UNL     1      41.874  11.733 -13.841  1.00  0.00     0.208 HD
ENDBRANCH   8  23
BRANCH   6  28
HETATM   28  N6  UNL     1      40.172  13.829 -17.820  1.00  0.00    -0.330 N
ATOM     29  H62 UNL     1      41.014  13.623 -17.283  1.00  0.00     0.178 HD
ATOM     30  H61 UNL     1      40.186  14.620 -18.464  1.00  0.00     0.178 HD
ENDBRANCH   6  28
TORSDOF 5
ENDMDL