MODEL 2
REMARK VINA RESULT: -7.778178851      1.151      1.819
REMARK  2 active torsions:
REMARK  status: ('A' for Active; 'I' for Inactive)
REMARK    1  A    between atoms: N2_6  and  C4_8
REMARK    2  A    between atoms: C4_8  and  C5_9
ROOT
HETATM    1  C1  UNL     1      36.562  15.950 -12.557  1.00  0.00     0.049 C
HETATM    2  C2  UNL     1      37.680  15.303 -12.814  1.00  0.00     0.109 A
HETATM    3  N1  UNL     1      38.570  15.790 -13.822  1.00  0.00    -0.186 N
ATOM      4  H1  UNL     1      38.327  16.637 -14.335  1.00  0.00     0.184 HD
HETATM    5  C3  UNL     1      39.778  15.121 -14.125  1.00  0.00     0.693 A
HETATM    6  N2  UNL     1      40.548  15.570 -15.019  1.00  0.00    -0.218 N
ATOM      7  H2  UNL     1      40.242  16.422 -15.489  1.00  0.00     0.178 HD
HETATM    8  N6  UNL     1      40.110  13.950 -13.414  1.00  0.00    -0.129 N
ATOM      9  H6  UNL     1      40.982  13.466 -13.631  1.00  0.00     0.205 HD
HETATM   10  N7  UNL     1      39.268  13.430 -12.413  1.00  0.00    -0.250 N
ATOM     11  H7  UNL     1      39.539  12.580 -11.918  1.00  0.00     0.191 HD
HETATM   12  C7  UNL     1      38.045  14.076 -12.083  1.00  0.00     0.286 A
HETATM   13  O2  UNL     1      37.270  13.634 -11.190  1.00  0.00    -0.264 OA
ENDROOT
BRANCH   6  14
HETATM   14  C4  UNL     1      41.795  15.025 -15.448  1.00  0.00     0.216 C
BRANCH  14  15
HETATM   15  C5  UNL     1      41.534  14.225 -16.694  1.00  0.00     0.118 A
HETATM   16  N3  UNL     1      42.122  13.071 -17.073  1.00  0.00    -0.294 N
HETATM   17  C6  UNL     1      41.615  12.677 -18.247  1.00  0.00     0.340 A
ATOM     18  H3  UNL     1      42.841  12.575 -16.547  1.00  0.00     0.172 HD
HETATM   19  O1  UNL     1      41.980  11.626 -18.843  1.00  0.00    -0.245 OA
HETATM   20  N4  UNL     1      40.696  13.592 -18.615  1.00  0.00    -0.250 N
HETATM   21  N5  UNL     1      40.653  14.531 -17.663  1.00  0.00    -0.283 N
ATOM     22  H4  UNL     1      40.135  13.573 -19.466  1.00  0.00     0.192 HD
ATOM     23  H5  UNL     1      40.047  15.350 -17.670  1.00  0.00     0.188 HD
ENDBRANCH  14  15
ENDBRANCH   6  14
TORSDOF 2
ENDMDL