MODEL 4
REMARK VINA RESULT: -7.597149457      1.814      2.518
REMARK  4 active torsions:
REMARK  status: ('A' for Active; 'I' for Inactive)
REMARK    1  A    between atoms: N1_1  and  N2_4
REMARK    2  A    between atoms: C2_9  and  C3_10
REMARK    3  A    between atoms: N4_11  and  N5_13
REMARK    4  A    between atoms: C5_18  and  O1_19
ROOT
HETATM    1  N2  UNL     1      37.173  15.802 -12.516  1.00  0.00    -0.287 N
ATOM      2  H2  UNL     1      36.552  15.498 -11.766  1.00  0.00     0.188 HD
HETATM    3  C1  UNL     1      38.079  15.005 -12.920  1.00  0.00     0.190 A
HETATM    4  N3  UNL     1      38.903  15.442 -13.932  1.00  0.00    -0.332 N
ATOM      5  H3  UNL     1      38.761  16.376 -14.317  1.00  0.00     0.168 HD
HETATM    6  C2  UNL     1      39.882  14.683 -14.426  1.00  0.00     0.102 A
HETATM    7  C5  UNL     1      40.066  13.401 -13.885  1.00  0.00     0.172 A
HETATM    8  N8  UNL     1      39.283  12.958 -12.909  1.00  0.00    -0.299 N
ATOM      9  H8  UNL     1      39.419  12.024 -12.520  1.00  0.00     0.171 HD
HETATM   10  C6  UNL     1      38.304  13.756 -12.437  1.00  0.00     0.293 A
HETATM   11  O2  UNL     1      37.578  13.318 -11.516  1.00  0.00    -0.264 OA
ENDROOT
BRANCH   6  12
HETATM   12  C3  UNL     1      40.756  15.107 -15.477  1.00  0.00     0.141 C
HETATM   13  N4  UNL     1      40.843  14.665 -16.626  1.00  0.00    -0.307 N
ATOM     14  H4  UNL     1      41.552  15.147 -17.177  1.00  0.00     0.186 HD
BRANCH  13  15
HETATM   15  N5  UNL     1      40.229  13.704 -17.314  1.00  0.00    -0.276 N
HETATM   16  C4  UNL     1      40.825  12.651 -17.717  1.00  0.00     0.215 C
HETATM   17  N6  UNL     1      42.181  12.479 -17.433  1.00  0.00    -0.065 NA
HETATM   18  N7  UNL     1      40.105  11.679 -18.440  1.00  0.00    -0.065 NA
ATOM     19  H5  UNL     1      39.238  13.817 -17.530  1.00  0.00     0.189 HD
ENDBRANCH  13  15
ENDBRANCH   6  12
BRANCH   7  20
HETATM   20  O1  UNL     1      41.074  12.610 -14.388  1.00  0.00    -0.344 OA
ATOM     21  H1  UNL     1      40.984  12.262 -15.268  1.00  0.00     0.219 HD
ENDBRANCH   7  20
BRANCH   1  22
HETATM   22  N1  UNL     1      36.997  17.069 -13.056  1.00  0.00    -0.343 N
ATOM     23  H12 UNL     1      36.610  17.134 -13.997  1.00  0.00     0.176 HD
ATOM     24  H11 UNL     1      37.240  17.921 -12.548  1.00  0.00     0.176 HD
ENDBRANCH   1  22
TORSDOF 4
ENDMDL