MODEL 3
REMARK VINA RESULT: -6.588115242      4.334      5.875
REMARK  6 active torsions:
REMARK  status: ('A' for Active; 'I' for Inactive)
REMARK    1  A    between atoms: C5_5  and  C6_6
REMARK    2  A    between atoms: C6_6  and  C7_7
REMARK    3  A    between atoms: C6_6  and  C8_10
REMARK    4  A    between atoms: C7_7  and  O1_8
REMARK    5  A    between atoms: C9_15  and  N3_16
REMARK    6  A    between atoms: N4_19  and  O2_20
ROOT
HETATM    1  C8  UNL     1      39.299  12.972 -13.949  1.00  0.00     0.177 A
HETATM    2  N1  UNL     1      40.558  12.529 -14.018  1.00  0.00    -0.268 N
ATOM      3  H1  UNL     1      41.310  12.816 -13.391  1.00  0.00     0.189 HD
HETATM    4  N2  UNL     1      40.692  11.666 -15.010  1.00  0.00    -0.129 N
ATOM      5  H2  UNL     1      41.544  11.177 -15.284  1.00  0.00     0.205 HD
HETATM    6  C9  UNL     1      39.482  11.561 -15.588  1.00  0.00     0.718 A
HETATM    7  N4  UNL     1      38.603  12.375 -14.932  1.00  0.00    -0.032 N
ENDROOT
BRANCH   1   8
HETATM    8  C6  UNL     1      38.732  13.958 -12.968  1.00  0.00     0.040 C
BRANCH   8   9
HETATM    9  C5  UNL     1      38.677  15.221 -13.318  1.00  0.00     0.044 A
HETATM   10  C4  UNL     1      37.651  16.110 -13.172  1.00  0.00     0.032 A
HETATM   11  C3  UNL     1      38.049  17.348 -13.695  1.00  0.00     0.031 A
HETATM   12  C2  UNL     1      39.329  17.181 -14.153  1.00  0.00     0.023 A
HETATM   13  C1  UNL     1      40.069  18.133 -14.728  1.00  0.00     0.043 C
HETATM   14  N5  UNL     1      39.695  15.919 -13.928  1.00  0.00    -0.356 N
ATOM     15  H5  UNL     1      40.603  15.526 -14.175  1.00  0.00     0.166 HD
ENDBRANCH   8   9
BRANCH   8  16
HETATM   16  C7  UNL     1      38.301  13.361 -11.707  1.00  0.00     0.209 C
BRANCH  16  17
HETATM   17  O1  UNL     1      39.203  12.559 -11.083  1.00  0.00    -0.396 OA
ATOM     18  H1  UNL     1      39.931  12.998 -10.660  1.00  0.00     0.209 HD
ENDBRANCH  16  17
ENDBRANCH   8  16
ENDBRANCH   1   8
BRANCH   7  19
HETATM   19  O2  UNL     1      37.260  12.551 -15.219  1.00  0.00    -0.268 OA
ATOM     20  H2  UNL     1      36.820  12.335 -16.033  1.00  0.00     0.246 HD
ENDBRANCH   7  19
BRANCH   6  21
HETATM   21  N3  UNL     1      39.189  10.810 -16.607  1.00  0.00    -0.231 N
ATOM     22  H32 UNL     1      38.244  10.577 -16.912  1.00  0.00     0.174 HD
ATOM     23  H31 UNL     1      39.860  10.360 -17.229  1.00  0.00     0.174 HD
ENDBRANCH   6  21
TORSDOF 6
ENDMDL