MODEL 1
REMARK VINA RESULT: -8.141442155      0.000      0.000
REMARK  2 active torsions:
REMARK  status: ('A' for Active; 'I' for Inactive)
REMARK    1  A    between atoms: C4_4  and  C5_5
REMARK    2  A    between atoms: N1_6  and  N2_8
ROOT
HETATM    1  C1  UNL     1      38.428  18.514 -19.094  1.00  0.00     0.018 C
HETATM    2  C2  UNL     1      37.947  17.680 -19.790  1.00  0.00    -0.070 C
HETATM    3  C3  UNL     1      37.351  16.646 -20.622  1.00  0.00     0.113 A
HETATM    4  C4  UNL     1      37.986  15.446 -20.831  1.00  0.00     0.077 A
HETATM    5  N5  UNL     1      37.422  14.506 -21.601  1.00  0.00    -0.306 N
ATOM      6  H5  UNL     1      37.900  13.617 -21.751  1.00  0.00     0.171 HD
HETATM    7  C7  UNL     1      36.228  14.730 -22.177  1.00  0.00     0.327 A
HETATM    8  O1  UNL     1      35.673  13.857 -22.912  1.00  0.00    -0.247 OA
HETATM    9  N6  UNL     1      35.595  15.913 -21.977  1.00  0.00    -0.274 N
ATOM     10  H6  UNL     1      34.690  16.075 -22.418  1.00  0.00     0.173 HD
HETATM   11  C8  UNL     1      36.129  16.868 -21.216  1.00  0.00     0.270 A
HETATM   12  O2  UNL     1      35.505  17.957 -21.055  1.00  0.00    -0.266 OA
ENDROOT
BRANCH   4  13
HETATM   13  C5  UNL     1      39.276  15.172 -20.223  1.00  0.00     0.138 C
HETATM   14  N1  UNL     1      39.385  14.242 -19.338  1.00  0.00    -0.308 N
ATOM     15  H1  UNL     1      38.544  13.720 -19.091  1.00  0.00     0.186 HD
BRANCH  14  16
HETATM   16  N2  UNL     1      40.561  13.904 -18.703  1.00  0.00    -0.276 N
HETATM   17  C6  UNL     1      41.087  12.739 -18.800  1.00  0.00     0.215 C
HETATM   18  N3  UNL     1      42.296  12.428 -18.133  1.00  0.00    -0.065 NA
HETATM   19  N4  UNL     1      40.454  11.747 -19.585  1.00  0.00    -0.065 NA
ATOM     20  H2  UNL     1      41.029  14.607 -18.133  1.00  0.00     0.189 HD
ENDBRANCH  14  16
ENDBRANCH   4  13
TORSDOF 2
ENDMDL