MODEL 3
REMARK VINA RESULT: -7.072474393      2.267      5.289
REMARK  4 active torsions:
REMARK  status: ('A' for Active; 'I' for Inactive)
REMARK    1  A    between atoms: N1_1  and  N2_4
REMARK       I    between atoms: N2_4  and  C1_6
REMARK       I    between atoms: C1_6  and  N4_8
REMARK    2  A    between atoms: N4_8  and  C2_10
REMARK    3  A    between atoms: N8_20  and  C5_22
REMARK    4  A    between atoms: C5_22  and  C6_23
ROOT
HETATM    1  C2  UNL     1      40.474  14.566 -14.943  1.00  0.00     0.157 A
HETATM    2  N5  UNL     1      41.313  15.192 -14.110  1.00  0.00    -0.290 N
ATOM      3  H5  UNL     1      41.020  15.330 -13.143  1.00  0.00     0.172 HD
HETATM    4  C3  UNL     1      42.523  15.649 -14.480  1.00  0.00     0.340 A
HETATM    5  O1  UNL     1      43.302  16.240 -13.673  1.00  0.00    -0.245 OA
HETATM    6  N6  UNL     1      42.874  15.448 -15.766  1.00  0.00    -0.250 N
ATOM      7  H6  UNL     1      43.783  15.777 -16.093  1.00  0.00     0.192 HD
HETATM    8  N7  UNL     1      42.067  14.834 -16.609  1.00  0.00    -0.279 N
ATOM      9  H7  UNL     1      42.374  14.703 -17.573  1.00  0.00     0.189 HD
HETATM   10  C4  UNL     1      40.856  14.373 -16.250  1.00  0.00     0.161 A
HETATM   11  N8  UNL     1      40.099  13.777 -17.114  1.00  0.00    -0.366 N
ATOM     12  H8  UNL     1      39.188  13.442 -16.801  1.00  0.00     0.161 HD
ENDROOT
BRANCH   1  13
HETATM   13  N4  UNL     1      39.327  14.137 -14.575  1.00  0.00    -0.312 N
HETATM   14  C1  UNL     1      38.932  13.913 -13.242  1.00  0.00     0.208 C
HETATM   15  N2  UNL     1      39.413  12.981 -12.495  1.00  0.00    -0.280 N
HETATM   16  N3  UNL     1      37.944  14.766 -12.686  1.00  0.00    -0.062 NA
ATOM     17  H2  UNL     1      40.124  12.358 -12.881  1.00  0.00     0.189 HD
ATOM     18  H4  UNL     1      38.643  13.943 -15.306  1.00  0.00     0.170 HD
BRANCH  15  19
HETATM   19  N1  UNL     1      38.995  12.794 -11.183  1.00  0.00    -0.343 N
ATOM     20  H12 UNL     1      39.712  12.696 -10.464  1.00  0.00     0.176 HD
ATOM     21  H11 UNL     1      38.009  12.752 -10.928  1.00  0.00     0.176 HD
ENDBRANCH  15  19
ENDBRANCH   1  13
BRANCH  11  22
HETATM   22  C5  UNL     1      40.461  13.560 -18.476  1.00  0.00     0.190 C
BRANCH  22  23
HETATM   23  C6  UNL     1      41.153  12.266 -18.700  1.00  0.00     0.250 C
HETATM   24  O2  UNL     1      42.336  12.080 -18.469  1.00  0.00    -0.305 OA
ENDBRANCH  22  23
ENDBRANCH  11  22
TORSDOF 4
ENDMDL