MODEL 5
REMARK VINA RESULT: -6.956919954      3.219      5.281
REMARK  2 active torsions:
REMARK  status: ('A' for Active; 'I' for Inactive)
REMARK    1  A    between atoms: C5_11  and  C6_12
REMARK    2  A    between atoms: C6_12  and  C7_13
ROOT
HETATM    1  C1  UNL     1      38.453  14.051 -13.317  1.00  0.00     0.045 C
HETATM    2  C2  UNL     1      38.688  13.300 -14.352  1.00  0.00     0.053 A
HETATM    3  N1  UNL     1      37.711  12.569 -14.896  1.00  0.00    -0.298 N
ATOM      4  H1  UNL     1      36.785  12.623 -14.471  1.00  0.00     0.187 HD
HETATM    5  N2  UNL     1      37.861  11.788 -15.935  1.00  0.00    -0.263 N
ATOM      6  H2  UNL     1      37.063  11.261 -16.289  1.00  0.00     0.190 HD
HETATM    7  C3  UNL     1      39.047  11.675 -16.536  1.00  0.00     0.310 A
HETATM    8  O1  UNL     1      39.224  10.923 -17.550  1.00  0.00    -0.262 OA
HETATM    9  C4  UNL     1      40.116  12.384 -16.056  1.00  0.00     0.253 A
HETATM   10  O2  UNL     1      41.209  12.260 -16.634  1.00  0.00    -0.281 OA
HETATM   11  C5  UNL     1      39.939  13.213 -14.944  1.00  0.00     0.049 A
ENDROOT
BRANCH  11  12
HETATM   12  C6  UNL     1      40.924  13.896 -14.465  1.00  0.00     0.049 C
BRANCH  12  13
HETATM   13  C7  UNL     1      41.564  15.018 -15.133  1.00  0.00     0.052 A
HETATM   14  C8  UNL     1      41.126  16.311 -15.275  1.00  0.00     0.122 A
HETATM   15  N3  UNL     1      42.062  16.994 -15.937  1.00  0.00    -0.317 N
HETATM   16  C9  UNL     1      43.063  16.144 -16.201  1.00  0.00     0.324 A
ATOM     17  H3  UNL     1      42.023  17.981 -16.193  1.00  0.00     0.170 HD
HETATM   18  O3  UNL     1      44.116  16.441 -16.813  1.00  0.00    -0.247 OA
HETATM   19  N4  UNL     1      42.788  14.922 -15.722  1.00  0.00    -0.307 N
ATOM     20  H4  UNL     1      43.376  14.092 -15.785  1.00  0.00     0.170 HD
ENDBRANCH  12  13
ENDBRANCH  11  12
TORSDOF 2
ENDMDL