MODEL 2
REMARK VINA RESULT: -6.329115971      2.592      4.149
REMARK  5 active torsions:
REMARK  status: ('A' for Active; 'I' for Inactive)
REMARK    1  A    between atoms: C5_10  and  C6_11
REMARK    2  A    between atoms: C6_11  and  O1_12
REMARK    3  A    between atoms: N4_17  and  C8_18
REMARK    4  A    between atoms: C8_18  and  C9_19
REMARK    5  A    between atoms: C10_20  and  N5_21
ROOT
HETATM    1  N1  UNL     1      39.596  13.717 -10.944  1.00  0.00    -0.388 N
ATOM      2  H11 UNL     1      40.378  13.083 -10.780  1.00  0.00     0.157 HD
ATOM      3  H12 UNL     1      39.148  14.403 -10.336  1.00  0.00     0.157 HD
HETATM    4  C1  UNL     1      39.118  13.654 -12.176  1.00  0.00     0.090 C
HETATM    5  C2  UNL     1      37.969  14.587 -12.416  1.00  0.00     0.197 C
HETATM    6  N2  UNL     1      37.620  14.698 -13.806  1.00  0.00    -0.370 N
ATOM      7  H2  UNL     1      36.868  15.258 -14.207  1.00  0.00     0.161 HD
HETATM    8  C3  UNL     1      38.547  13.857 -14.517  1.00  0.00     0.098 C
HETATM    9  C4  UNL     1      38.130  12.654 -14.975  1.00  0.00     0.032 C
HETATM   10  C5  UNL     1      39.402  12.068 -15.526  1.00  0.00     0.078 C
HETATM   11  C7  UNL     1      40.307  12.715 -14.403  1.00  0.00     0.197 C
HETATM   12  N3  UNL     1      39.763  12.666 -13.051  1.00  0.00    -0.357 N
ATOM     13  H3  UNL     1      39.849  11.746 -12.620  1.00  0.00     0.163 HD
HETATM   14  N4  UNL     1      39.890  14.125 -14.869  1.00  0.00    -0.335 N
ENDROOT
BRANCH  14  15
HETATM   15  C8  UNL     1      40.938  14.962 -15.353  1.00  0.00     0.222 C
BRANCH  15  16
HETATM   16  C9  UNL     1      41.871  15.327 -14.268  1.00  0.00    -0.064 C
HETATM   17  C10 UNL     1      42.660  15.617 -13.384  1.00  0.00     0.005 C
BRANCH  17  18
HETATM   18  N5  UNL     1      43.582  15.926 -12.373  1.00  0.00    -0.359 N
ATOM     19  H52 UNL     1      43.345  15.066 -12.867  1.00  0.00     0.166 HD
ATOM     20  H51 UNL     1      44.245  16.171 -11.639  1.00  0.00     0.166 HD
ENDBRANCH  17  18
ENDBRANCH  15  16
ENDBRANCH  14  15
BRANCH  10  21
HETATM   21  C6  UNL     1      39.813  12.403 -16.846  1.00  0.00     0.176 C
BRANCH  21  22
HETATM   22  O1  UNL     1      39.524  11.363 -17.789  1.00  0.00    -0.400 OA
ATOM     23  H1  UNL     1      40.056  11.425 -18.574  1.00  0.00     0.209 HD
ENDBRANCH  21  22
ENDBRANCH  10  21
TORSDOF 5
ENDMDL