MODEL 5
REMARK VINA RESULT: -7.103329964      1.487      3.242
REMARK  2 active torsions:
REMARK  status: ('A' for Active; 'I' for Inactive)
REMARK    1  A    between atoms: C1_2  and  N1_3
REMARK    2  A    between atoms: N1_3  and  C2_5
ROOT
HETATM    1  C2  UNL     1      40.896  13.136 -16.586  1.00  0.00     0.131 A
HETATM    2  N2  UNL     1      42.059  13.736 -16.902  1.00  0.00    -0.293 N
ATOM      3  H2  UNL     1      42.488  13.547 -17.807  1.00  0.00     0.172 HD
HETATM    4  C3  UNL     1      42.668  14.581 -16.047  1.00  0.00     0.327 A
HETATM    5  O2  UNL     1      43.752  15.114 -16.392  1.00  0.00    -0.247 OA
HETATM    6  N3  UNL     1      42.150  14.867 -14.835  1.00  0.00    -0.293 N
ATOM      7  H3  UNL     1      42.630  15.509 -14.205  1.00  0.00     0.172 HD
HETATM    8  C4  UNL     1      40.985  14.292 -14.470  1.00  0.00     0.132 A
HETATM    9  N4  UNL     1      40.460  14.580 -13.249  1.00  0.00    -0.293 N
ATOM     10  H4  UNL     1      40.924  15.219 -12.603  1.00  0.00     0.172 HD
HETATM   11  C5  UNL     1      39.302  13.981 -12.937  1.00  0.00     0.328 A
HETATM   12  O3  UNL     1      38.796  14.231 -11.814  1.00  0.00    -0.247 OA
HETATM   13  N5  UNL     1      38.667  13.132 -13.767  1.00  0.00    -0.275 N
ATOM     14  H5  UNL     1      37.789  12.707 -13.473  1.00  0.00     0.173 HD
HETATM   15  C6  UNL     1      39.173  12.835 -14.981  1.00  0.00     0.267 A
HETATM   16  O4  UNL     1      38.608  12.049 -15.781  1.00  0.00    -0.267 OA
HETATM   17  C7  UNL     1      40.353  13.421 -15.348  1.00  0.00     0.120 A
ENDROOT
BRANCH   1  18
HETATM   18  N1  UNL     1      40.283  12.334 -17.355  1.00  0.00    -0.319 N
ATOM     19  H1  UNL     1      39.413  11.930 -17.009  1.00  0.00     0.169 HD
BRANCH  18  20
HETATM   20  C1  UNL     1      40.702  11.953 -18.642  1.00  0.00     0.354 C
HETATM   21  O1  UNL     1      41.871  11.647 -18.961  1.00  0.00    -0.283 OA
ENDBRANCH  18  20
ENDBRANCH   1  18
TORSDOF 2
ENDMDL