MODEL 3
REMARK VINA RESULT: -7.677154876      3.115      6.425
REMARK  11 active torsions:
REMARK  status: ('A' for Active; 'I' for Inactive)
REMARK    1  A    between atoms: C1_4  and  N2_5
REMARK    2  A    between atoms: C1_4  and  C8_17
REMARK    3  A    between atoms: N2_5  and  C2_7
REMARK    4  A    between atoms: C2_7  and  C3_8
REMARK    5  A    between atoms: C3_8  and  C4_9
REMARK    6  A    between atoms: C4_9  and  C5_10
REMARK    7  A    between atoms: C5_10  and  C6_11
REMARK    8  A    between atoms: C6_11  and  C7_12
REMARK    9  A    between atoms: C7_12  and  N3_13
REMARK   10  A    between atoms: C8_17  and  N4_18
REMARK       I    between atoms: N4_18  and  C9_20
REMARK       I    between atoms: C9_20  and  N5_22
REMARK   11  A    between atoms: N5_22  and  C10_24
ROOT
HETATM    1  C8  UNL     1      39.076 -18.877  28.349  1.00  0.00     0.171 C
HETATM    2  C20 UNL     1      38.647 -17.911  29.444  1.00  0.00     0.103 C
HETATM    3  C21 UNL     1      38.063 -16.791  28.674  1.00  0.00    -0.026 A
HETATM    4  C22 UNL     1      37.144 -15.788  28.969  1.00  0.00     0.028 A
HETATM    5  C23 UNL     1      36.773 -14.846  28.040  1.00  0.00     0.011 A
HETATM    6 BR1  UNL     1      35.508 -13.492  28.507  1.00  0.00    -0.051 Br
HETATM    7  C24 UNL     1      37.312 -14.868  26.766  1.00  0.00     0.021 A
HETATM    8  C25 UNL     1      38.229 -15.852  26.437  1.00  0.00     0.031 A
HETATM    9  C26 UNL     1      38.587 -16.799  27.407  1.00  0.00     0.036 A
HETATM   10  N6  UNL     1      39.489 -17.891  27.311  1.00  0.00    -0.357 N
ATOM     11  H6  UNL     1      40.267 -17.983  26.658  1.00  0.00     0.162 HD
ENDROOT
BRANCH   1  12
HETATM   12  C1  UNL     1      40.250 -19.676  28.719  1.00  0.00     0.121 C
HETATM   13  N1  UNL     1      40.240 -20.232  29.879  1.00  0.00    -0.386 N
ATOM     14  H12 UNL     1      41.056 -20.788  30.136  1.00  0.00     0.157 HD
ATOM     15  H11 UNL     1      39.428 -20.124  30.488  1.00  0.00     0.157 HD
BRANCH  12  16
HETATM   16  N2  UNL     1      41.362 -19.825  27.885  1.00  0.00    -0.377 N
ATOM     17  H2  UNL     1      41.533 -19.046  27.249  1.00  0.00     0.160 HD
BRANCH  16  18
HETATM   18  C2  UNL     1      42.290 -20.892  27.787  1.00  0.00     0.121 C
BRANCH  18  19
HETATM   19  C3  UNL     1      43.702 -20.678  28.160  1.00  0.00     0.020 C
BRANCH  19  20
HETATM   20  C4  UNL     1      43.919 -20.801  29.639  1.00  0.00     0.002 C
BRANCH  20  21
HETATM   21  C5  UNL     1      45.224 -20.134  30.069  1.00  0.00     0.002 C
BRANCH  21  22
HETATM   22  C6  UNL     1      45.962 -20.911  31.116  1.00  0.00     0.027 C
BRANCH  22  23
HETATM   23  C7  UNL     1      45.287 -22.225  31.439  1.00  0.00     0.229 C
BRANCH  23  24
HETATM   24  N3  UNL     1      44.920 -22.252  32.838  1.00  0.00    -0.079 N
ATOM     25  H33 UNL     1      44.862 -23.202  33.202  1.00  0.00     0.274 HD
ATOM     26  H32 UNL     1      45.670 -21.910  33.439  1.00  0.00     0.274 HD
ATOM     27  H31 UNL     1      44.052 -21.734  32.974  1.00  0.00     0.274 HD
ENDBRANCH  23  24
ENDBRANCH  22  23
ENDBRANCH  21  22
ENDBRANCH  20  21
ENDBRANCH  19  20
ENDBRANCH  18  19
ENDBRANCH  16  18
ENDBRANCH  12  16
ENDBRANCH   1  12
BRANCH   1  28
HETATM   28  N4  UNL     1      37.996 -19.614  27.811  1.00  0.00    -0.309 N
HETATM   29  C9  UNL     1      37.914 -20.252  26.550  1.00  0.00     0.319 C
HETATM   30  O1  UNL     1      38.899 -20.218  25.760  1.00  0.00    -0.247 OA
HETATM   31  N5  UNL     1      36.755 -20.940  26.125  1.00  0.00    -0.334 N
ATOM     32  H5  UNL     1      35.976 -20.949  26.782  1.00  0.00     0.165 HD
ATOM     33  H4  UNL     1      37.172 -19.695  28.406  1.00  0.00     0.167 HD
BRANCH  31  34
HETATM   34  C10 UNL     1      36.539 -21.620  24.896  1.00  0.00     0.035 C
HETATM   35  C11 UNL     1      35.816 -22.920  25.154  1.00  0.00     0.035 C
HETATM   36  C12 UNL     1      35.458 -23.616  23.833  1.00  0.00    -0.012 C
HETATM   37  C13 UNL     1      34.570 -22.690  23.066  1.00  0.00     0.009 C
HETATM   38  C17 UNL     1      36.738 -23.917  23.084  1.00  0.00     0.009 C
HETATM   39  C14 UNL     1      35.323 -21.446  22.703  1.00  0.00    -0.012 C
HETATM   40  C15 UNL     1      36.615 -21.757  21.966  1.00  0.00     0.009 C
HETATM   41  C19 UNL     1      35.720 -20.735  23.973  1.00  0.00     0.035 C
HETATM   42  C16 UNL     1      37.461 -22.612  22.848  1.00  0.00    -0.012 C
HETATM   43  C18 UNL     1      37.818 -21.972  24.166  1.00  0.00     0.035 C
ENDBRANCH  31  34
ENDBRANCH   1  28
TORSDOF 11
ENDMDL