MODEL 2
REMARK VINA RESULT: -8.666564098      3.248      5.657
REMARK  8 active torsions:
REMARK  status: ('A' for Active; 'I' for Inactive)
REMARK    1  A    between atoms: C9_14  and  C10_15
REMARK    2  A    between atoms: C17_22  and  C18_23
REMARK    3  A    between atoms: C18_23  and  N3_24
REMARK       I    between atoms: N3_24  and  C19_26
REMARK    4  A    between atoms: C19_26  and  C20_28
REMARK    5  A    between atoms: C21_29  and  N4_30
REMARK       I    between atoms: N4_30  and  C22_32
REMARK    6  A    between atoms: N8_40  and  C24_41
REMARK    7  A    between atoms: C24_41  and  C25_42
REMARK    8  A    between atoms: C25_42  and  C26_43
ROOT
HETATM    1  C10 UNL     1      35.789 -25.772  24.503  1.00  0.00     0.004 C
HETATM    2  C11 UNL     1      35.473 -24.558  24.017  1.00  0.00    -0.075 C
HETATM    3  C12 UNL     1      34.323 -24.482  23.093  1.00  0.00     0.034 C
HETATM    4  C13 UNL     1      34.230 -23.201  22.346  1.00  0.00     0.005 C
HETATM    5  C14 UNL     1      34.748 -22.014  23.135  1.00  0.00     0.010 C
HETATM    6  C15 UNL     1      36.185 -22.254  23.434  1.00  0.00    -0.032 C
HETATM    7  C16 UNL     1      36.987 -22.649  22.223  1.00  0.00     0.016 C
HETATM    8  C17 UNL     1      36.886 -21.145  24.153  1.00  0.00     0.012 C
HETATM    9  C27 UNL     1      36.415 -21.310  25.585  1.00  0.00     0.007 C
HETATM   10  C28 UNL     1      35.880 -22.742  25.694  1.00  0.00     0.010 C
HETATM   11  C29 UNL     1      36.285 -23.411  24.423  1.00  0.00     0.023 C
ENDROOT
BRANCH   8  12
HETATM   12  C18 UNL     1      36.489 -19.834  23.564  1.00  0.00     0.128 C
BRANCH  12  13
HETATM   13  N3  UNL     1      36.689 -18.727  24.516  1.00  0.00    -0.355 N
HETATM   14  C19 UNL     1      37.933 -18.106  24.659  1.00  0.00     0.272 C
HETATM   15  O1  UNL     1      38.849 -18.593  23.891  1.00  0.00    -0.266 OA
ATOM     16  H3  UNL     1      35.903 -18.408  25.082  1.00  0.00     0.162 HD
BRANCH  14  17
HETATM   17  C20 UNL     1      38.324 -17.015  25.532  1.00  0.00     0.148 A
HETATM   18  C21 UNL     1      38.880 -15.825  25.024  1.00  0.00     0.141 A
HETATM   19  N7  UNL     1      39.115 -15.066  26.146  1.00  0.00    -0.336 N
HETATM   20  C23 UNL     1      38.748 -15.712  27.221  1.00  0.00     0.185 A
ATOM     21  H7  UNL     1      39.519 -14.129  26.139  1.00  0.00     0.168 HD
HETATM   22  N8  UNL     1      38.253 -16.925  26.866  1.00  0.00    -0.335 N
BRANCH  18  23
HETATM   23  N4  UNL     1      39.171 -15.406  23.711  1.00  0.00    -0.315 N
HETATM   24  C22 UNL     1      40.504 -15.626  23.201  1.00  0.00     0.187 C
HETATM   25  N5  UNL     1      41.170 -16.678  23.540  1.00  0.00    -0.373 N
HETATM   26  N6  UNL     1      41.106 -14.707  22.325  1.00  0.00    -0.064 NA
ATOM     27  H52 UNL     1      40.732 -17.346  24.176  1.00  0.00     0.158 HD
ATOM     28  H51 UNL     1      42.111 -16.834  23.179  1.00  0.00     0.158 HD
ATOM     29  H4  UNL     1      38.458 -14.958  23.136  1.00  0.00     0.170 HD
ENDBRANCH  18  23
BRANCH  22  30
HETATM   30  C24 UNL     1      37.763 -17.851  27.841  1.00  0.00     0.135 C
BRANCH  30  31
HETATM   31  C25 UNL     1      38.865 -18.649  28.523  1.00  0.00     0.091 C
BRANCH  31  32
HETATM   32  C26 UNL     1      38.820 -20.068  27.991  1.00  0.00     0.354 C
HETATM   33  F1  UNL     1      39.558 -20.869  28.857  1.00  0.00    -0.214 F
HETATM   34  F2  UNL     1      39.379 -20.124  26.733  1.00  0.00    -0.214 F
ENDBRANCH  31  32
ENDBRANCH  30  31
ENDBRANCH  22  30
ENDBRANCH  14  17
ENDBRANCH  12  13
ENDBRANCH   8  12
BRANCH   1  35
HETATM   35  C9  UNL     1      36.864 -26.007  25.401  1.00  0.00     0.009 C
HETATM   36  C8  UNL     1      38.102 -26.276  25.118  1.00  0.00    -0.039 C
HETATM   37  C2  UNL     1      38.692 -26.416  23.800  1.00  0.00     0.005 C
HETATM   38  C7  UNL     1      39.126 -26.327  26.264  1.00  0.00     0.096 C
HETATM   39  C1  UNL     1      38.030 -27.087  22.863  1.00  0.00     0.028 C
HETATM   40  C3  UNL     1      40.016 -25.879  23.516  1.00  0.00     0.109 C
HETATM   41  N1  UNL     1      40.572 -25.965  22.358  1.00  0.00    -0.385 N
HETATM   42  N2  UNL     1      40.693 -25.228  24.614  1.00  0.00    -0.346 N
ATOM     43  H12 UNL     1      40.094 -26.424  21.583  1.00  0.00     0.157 HD
ATOM     44  H11 UNL     1      41.499 -25.589  22.159  1.00  0.00     0.157 HD
HETATM   45  C4  UNL     1      40.039 -25.168  25.889  1.00  0.00     0.011 C
ATOM     46  H2  UNL     1      41.618 -24.820  24.486  1.00  0.00     0.167 HD
HETATM   47  C5  UNL     1      40.195 -24.190  26.703  1.00  0.00    -0.006 C
HETATM   48  C6  UNL     1      41.073 -23.023  26.408  1.00  0.00     0.038 C
ENDBRANCH   1  35
TORSDOF 8
ENDMDL