MODEL 2
REMARK VINA RESULT: -6.824145628      3.829      8.031
REMARK  12 active torsions:
REMARK  status: ('A' for Active; 'I' for Inactive)
REMARK    1  A    between atoms: C2_2  and  N1_3
REMARK       I    between atoms: N1_3  and  C3_5
REMARK       I    between atoms: C3_5  and  N3_9
REMARK    2  A    between atoms: N3_9  and  C4_11
REMARK    3  A    between atoms: C4_11  and  C5_12
REMARK    4  A    between atoms: C5_12  and  C6_13
REMARK    5  A    between atoms: C6_13  and  C7_14
REMARK    6  A    between atoms: C7_14  and  N4_15
REMARK    7  A    between atoms: N4_15  and  C8_17
REMARK    8  A    between atoms: C8_17  and  C9_19
REMARK    9  A    between atoms: C10_23  and  C11_24
REMARK   10  A    between atoms: C11_24  and  C12_25
REMARK   11  A    between atoms: C17_30  and  C18_31
REMARK   12  A    between atoms: C21_35  and  O1_36
ROOT
HETATM    1  C9  UNL     1      38.583 -20.674  27.752  1.00  0.00     0.255 C
HETATM    2  N5  UNL     1      39.487 -21.786  27.892  1.00  0.00    -0.060 N
ATOM      3  H51 UNL     1      39.840 -22.125  26.997  1.00  0.00     0.278 HD
ATOM      4  H52 UNL     1      39.018 -22.643  28.185  1.00  0.00     0.278 HD
HETATM    5  C10 UNL     1      40.556 -21.378  28.809  1.00  0.00     0.188 C
HETATM    6  C16 UNL     1      40.622 -19.869  28.589  1.00  0.00     0.045 C
HETATM    7  C17 UNL     1      39.128 -19.568  28.562  1.00  0.00     0.058 C
ENDROOT
BRANCH   1   8
HETATM    8  C8  UNL     1      38.151 -20.381  26.393  1.00  0.00     0.105 C
HETATM    9  S1  UNL     1      39.105 -20.386  25.062  1.00  0.00    -0.063 SA
BRANCH   8  10
HETATM   10  N4  UNL     1      36.771 -20.076  26.155  1.00  0.00    -0.383 N
ATOM     11  H4  UNL     1      36.503 -19.103  26.005  1.00  0.00     0.160 HD
BRANCH  10  12
HETATM   12  C7  UNL     1      35.744 -21.089  26.118  1.00  0.00     0.120 C
BRANCH  12  13
HETATM   13  C6  UNL     1      35.749 -21.873  24.841  1.00  0.00     0.021 C
BRANCH  13  14
HETATM   14  C5  UNL     1      35.927 -23.358  25.059  1.00  0.00     0.022 C
BRANCH  14  15
HETATM   15  C4  UNL     1      37.274 -23.776  24.523  1.00  0.00     0.138 C
BRANCH  15  16
HETATM   16  N3  UNL     1      38.247 -24.093  25.514  1.00  0.00    -0.227 N
HETATM   17  C3  UNL     1      38.294 -25.285  26.266  1.00  0.00     0.667 C
HETATM   18  N1  UNL     1      39.047 -25.315  27.462  1.00  0.00    -0.227 N
HETATM   19  N2  UNL     1      37.675 -26.342  25.899  1.00  0.00    -0.235 N
ATOM     20  H1  UNL     1      38.597 -25.130  28.359  1.00  0.00     0.177 HD
ATOM     21  H22 UNL     1      37.709 -27.203  26.443  1.00  0.00     0.174 HD
ATOM     22  H21 UNL     1      37.131 -26.320  25.036  1.00  0.00     0.174 HD
ATOM     23  H3  UNL     1      38.971 -23.398  25.695  1.00  0.00     0.177 HD
BRANCH  18  24
HETATM   24  C2  UNL     1      40.463 -25.613  27.400  1.00  0.00     0.133 C
HETATM   25  C1  UNL     1      40.842 -26.716  28.382  1.00  0.00     0.027 C
ENDBRANCH  18  24
ENDBRANCH  15  16
ENDBRANCH  14  15
ENDBRANCH  13  14
ENDBRANCH  12  13
ENDBRANCH  10  12
ENDBRANCH   8  10
ENDBRANCH   1   8
BRANCH   7  26
HETATM   26  C18 UNL     1      38.894 -18.209  28.120  1.00  0.00    -0.048 A
HETATM   27  C19 UNL     1      39.724 -17.603  27.196  1.00  0.00     0.034 A
HETATM   28  C20 UNL     1      39.499 -16.323  26.758  1.00  0.00     0.069 A
HETATM   29 CL1  UNL     1      40.541 -15.533  25.585  1.00  0.00    -0.081 Cl
HETATM   30  C21 UNL     1      38.429 -15.599  27.231  1.00  0.00     0.104 A
HETATM   31  C22 UNL     1      37.578 -16.180  28.158  1.00  0.00     0.046 A
HETATM   32 BR1  UNL     1      36.102 -15.168  28.811  1.00  0.00    -0.048 Br
HETATM   33  C23 UNL     1      37.826 -17.482  28.589  1.00  0.00     0.029 A
BRANCH  30  34
HETATM   34  O1  UNL     1      38.187 -14.286  26.792  1.00  0.00    -0.358 OA
ATOM     35  H1  UNL     1      37.916 -13.606  27.398  1.00  0.00     0.217 HD
ENDBRANCH  30  34
ENDBRANCH   7  26
BRANCH   5  36
HETATM   36  C11 UNL     1      41.791 -22.108  28.459  1.00  0.00     0.041 C
BRANCH  36  37
HETATM   37  C12 UNL     1      42.516 -22.825  29.528  1.00  0.00    -0.050 C
HETATM   38  C13 UNL     1      41.441 -23.552  30.367  1.00  0.00     0.014 C
HETATM   39  C14 UNL     1      43.206 -21.896  30.508  1.00  0.00     0.014 C
HETATM   40  C15 UNL     1      43.490 -23.872  29.063  1.00  0.00     0.014 C
ENDBRANCH  36  37
ENDBRANCH   5  36
TORSDOF 12
ENDMDL