MODEL 3
REMARK VINA RESULT: -8.904249703      2.240      7.111
REMARK  8 active torsions:
REMARK  status: ('A' for Active; 'I' for Inactive)
REMARK    1  A    between atoms: N3_4  and  C2_6
REMARK    2  A    between atoms: C2_6  and  C3_7
REMARK    3  A    between atoms: C3_7  and  C4_8
REMARK    4  A    between atoms: C4_8  and  C5_9
REMARK    5  A    between atoms: C5_9  and  C6_10
REMARK    6  A    between atoms: C5_9  and  N7_24
REMARK    7  A    between atoms: C6_10  and  N4_11
REMARK       I    between atoms: N4_11  and  C7_13
REMARK       I    between atoms: C7_13  and  N5_15
REMARK    8  A    between atoms: N5_15  and  C8_17
REMARK       I    between atoms: N7_24  and  C14_26
REMARK       I    between atoms: C14_26  and  N8_28
ROOT
HETATM    1  C5  UNL     1      39.281 -20.168  26.958  1.00  0.00     0.104 C
ENDROOT
BRANCH   1   2
HETATM    2  C4  UNL     1      39.207 -18.924  26.185  1.00  0.00     0.028 C
BRANCH   2   3
HETATM    3  C3  UNL     1      39.852 -17.805  27.052  1.00  0.00     0.022 C
BRANCH   3   4
HETATM    4  C2  UNL     1      38.944 -16.602  27.016  1.00  0.00     0.122 C
BRANCH   4   5
HETATM    5  N3  UNL     1      37.852 -16.751  27.954  1.00  0.00    -0.367 N
HETATM    6  C1  UNL     1      36.871 -15.894  27.976  1.00  0.00     0.196 C
HETATM    7  N1  UNL     1      35.809 -16.054  28.906  1.00  0.00    -0.067 NA
HETATM    8  N2  UNL     1      36.857 -14.811  27.064  1.00  0.00    -0.067 NA
ATOM      9  H3  UNL     1      37.850 -17.535  28.606  1.00  0.00     0.161 HD
ENDBRANCH   4   5
ENDBRANCH   3   4
ENDBRANCH   2   3
ENDBRANCH   1   2
BRANCH   1  10
HETATM   10  C6  UNL     1      39.164 -20.196  28.431  1.00  0.00     0.149 C
BRANCH  10  11
HETATM   11  N4  UNL     1      39.930 -21.166  29.122  1.00  0.00    -0.341 N
HETATM   12  C7  UNL     1      41.342 -21.055  29.314  1.00  0.00     0.320 C
HETATM   13  O1  UNL     1      42.094 -20.174  28.935  1.00  0.00    -0.247 OA
HETATM   14  N5  UNL     1      41.918 -22.142  30.051  1.00  0.00    -0.309 N
ATOM     15  H5  UNL     1      41.314 -22.897  30.375  1.00  0.00     0.170 HD
ATOM     16  H4  UNL     1      39.451 -21.983  29.500  1.00  0.00     0.164 HD
BRANCH  14  17
HETATM   17  C8  UNL     1      43.293 -22.196  30.338  1.00  0.00     0.036 A
HETATM   18  C9  UNL     1      43.840 -21.616  31.434  1.00  0.00     0.031 A
HETATM   19  C10 UNL     1      45.214 -21.676  31.629  1.00  0.00     0.029 A
HETATM   20  C11 UNL     1      46.046 -22.308  30.744  1.00  0.00     0.046 A
HETATM   21  N6  UNL     1      47.441 -22.352  30.965  1.00  0.00    -0.102 NA
HETATM   22  C12 UNL     1      45.459 -22.889  29.642  1.00  0.00     0.029 A
HETATM   23  C13 UNL     1      44.122 -22.851  29.418  1.00  0.00     0.031 A
ENDBRANCH  14  17
ENDBRANCH  10  11
ENDBRANCH   1  10
BRANCH   1  24
HETATM   24  N7  UNL     1      38.261 -21.113  26.453  1.00  0.00    -0.337 N
HETATM   25  C14 UNL     1      38.569 -22.483  26.271  1.00  0.00     0.318 C
HETATM   26  O2  UNL     1      39.729 -22.939  26.551  1.00  0.00    -0.247 OA
HETATM   27  N8  UNL     1      37.580 -23.354  25.778  1.00  0.00    -0.334 N
HETATM   28  C15 UNL     1      37.879 -24.757  25.663  1.00  0.00     0.127 C
HETATM   29  C27 UNL     1      36.290 -22.844  25.371  1.00  0.00     0.133 C
HETATM   30  C16 UNL     1      38.361 -25.211  24.326  1.00  0.00     0.020 C
HETATM   31  C17 UNL     1      38.003 -26.703  24.173  1.00  0.00     0.002 C
HETATM   32  C18 UNL     1      36.513 -26.838  24.116  1.00  0.00     0.000 C
HETATM   33  C19 UNL     1      36.026 -27.824  23.069  1.00  0.00     0.000 C
HETATM   34  C20 UNL     1      34.801 -27.270  22.371  1.00  0.00     0.000 C
HETATM   35  C21 UNL     1      35.093 -26.780  20.993  1.00  0.00     0.000 C
HETATM   36  C22 UNL     1      35.714 -25.415  20.954  1.00  0.00     0.000 C
HETATM   37  C23 UNL     1      34.777 -24.310  21.399  1.00  0.00     0.006 C
HETATM   38  C24 UNL     1      35.657 -23.142  21.829  1.00  0.00     0.079 C
HETATM   39  C25 UNL     1      35.206 -22.565  23.158  1.00  0.00     0.245 C
HETATM   40  F1  UNL     1      34.415 -21.424  22.927  1.00  0.00    -0.206 F
HETATM   41  F2  UNL     1      34.393 -23.449  23.790  1.00  0.00    -0.206 F
HETATM   42  C26 UNL     1      36.355 -22.175  24.018  1.00  0.00     0.099 C
ATOM     43  H7  UNL     1      37.324 -20.773  26.234  1.00  0.00     0.164 HD
ENDBRANCH   1  24
TORSDOF 8
ENDMDL