MODEL 2
REMARK VINA RESULT: -7.872363925      4.100     10.235
REMARK  11 active torsions:
REMARK  status: ('A' for Active; 'I' for Inactive)
REMARK    1  A    between atoms: C2_2  and  N1_4
REMARK    2  A    between atoms: N1_4  and  C4_6
REMARK    3  A    between atoms: C6_8  and  N2_9
REMARK    4  A    between atoms: N2_9  and  C7_11
REMARK    5  A    between atoms: C7_11  and  C8_12
REMARK    6  A    between atoms: C11_15  and  N3_16
REMARK       I    between atoms: N3_16  and  C12_18
REMARK    7  A    between atoms: C12_18  and  C13_20
REMARK    8  A    between atoms: C13_20  and  O2_21
REMARK    9  A    between atoms: C17_26  and  N4_27
REMARK       I    between atoms: N4_27  and  C18_29
REMARK       I    between atoms: C18_29  and  N5_31
REMARK   10  A    between atoms: N5_31  and  C19_33
REMARK   11  A    between atoms: C24_38  and  C25_39
ROOT
HETATM    1  N3  UNL     1      43.312 -22.570  30.447  1.00  0.00    -0.354 N
ATOM      2  H3  UNL     1      43.964 -23.293  30.138  1.00  0.00     0.162 HD
HETATM    3  C12 UNL     1      41.918 -22.757  30.242  1.00  0.00     0.254 C
HETATM    4  O1  UNL     1      41.138 -21.859  30.632  1.00  0.00    -0.270 OA
ENDROOT
BRANCH   3   5
HETATM    5  C13 UNL     1      41.421 -23.949  29.597  1.00  0.00     0.158 C
HETATM    6  C14 UNL     1      40.153 -24.552  30.090  1.00  0.00     0.050 C
HETATM    7  C15 UNL     1      39.871 -25.578  28.994  1.00  0.00     0.006 C
HETATM    8  C16 UNL     1      40.658 -25.125  27.767  1.00  0.00     0.029 C
HETATM    9  C17 UNL     1      40.995 -23.692  28.111  1.00  0.00     0.130 C
BRANCH   5  10
HETATM   10  O2  UNL     1      42.392 -24.963  29.477  1.00  0.00    -0.378 OA
ATOM     11  H2  UNL     1      42.980 -24.833  28.743  1.00  0.00     0.211 HD
ENDBRANCH   5  10
BRANCH   9  12
HETATM   12  N4  UNL     1      39.802 -22.925  28.016  1.00  0.00    -0.335 N
HETATM   13  C18 UNL     1      39.659 -21.643  27.462  1.00  0.00     0.316 C
HETATM   14  O3  UNL     1      40.658 -21.042  26.993  1.00  0.00    -0.247 OA
HETATM   15  N5  UNL     1      38.428 -20.935  27.383  1.00  0.00    -0.338 N
ATOM     16  H5  UNL     1      37.589 -21.404  27.726  1.00  0.00     0.164 HD
ATOM     17  H4  UNL     1      38.957 -23.353  28.392  1.00  0.00     0.164 HD
BRANCH  15  18
HETATM   18  C19 UNL     1      38.280 -19.618  26.860  1.00  0.00     0.095 C
HETATM   19  C20 UNL     1      37.169 -19.474  25.831  1.00  0.00     0.026 C
HETATM   20  C21 UNL     1      37.172 -18.122  25.183  1.00  0.00     0.002 C
HETATM   21  C22 UNL     1      37.483 -17.042  26.163  1.00  0.00     0.001 C
HETATM   22  C23 UNL     1      37.136 -17.510  27.553  1.00  0.00     0.012 C
HETATM   23  C24 UNL     1      38.155 -18.575  27.935  1.00  0.00     0.073 C
BRANCH  23  24
HETATM   24  C25 UNL     1      39.470 -17.955  28.340  1.00  0.00     0.359 C
HETATM   25  F1  UNL     1      40.400 -17.970  27.321  1.00  0.00    -0.214 F
HETATM   26  F2  UNL     1      39.982 -18.696  29.389  1.00  0.00    -0.214 F
ENDBRANCH  23  24
ENDBRANCH  15  18
ENDBRANCH   9  12
ENDBRANCH   3   5
BRANCH   1  27
HETATM   27  C11 UNL     1      43.829 -21.371  31.088  1.00  0.00     0.084 C
HETATM   28  C10 UNL     1      44.529 -20.537  30.012  1.00  0.00     0.026 C
HETATM   29  C9  UNL     1      45.925 -20.213  30.458  1.00  0.00     0.008 C
HETATM   30  C8  UNL     1      46.699 -21.520  30.646  1.00  0.00     0.003 C
HETATM   31  C27 UNL     1      46.086 -22.221  31.857  1.00  0.00     0.008 C
HETATM   32  C26 UNL     1      44.748 -21.650  32.215  1.00  0.00     0.026 C
BRANCH  30  33
HETATM   33  C7  UNL     1      48.125 -21.169  30.944  1.00  0.00     0.124 C
BRANCH  33  34
HETATM   34  N2  UNL     1      48.705 -22.115  31.831  1.00  0.00    -0.389 N
ATOM     35  H2  UNL     1      48.500 -23.104  31.687  1.00  0.00     0.159 HD
BRANCH  34  36
HETATM   36  C6  UNL     1      49.545 -21.756  32.893  1.00  0.00     0.032 A
HETATM   37  C5  UNL     1      49.355 -22.243  34.180  1.00  0.00     0.077 A
HETATM   38  C4  UNL     1      50.191 -21.858  35.191  1.00  0.00     0.103 A
HETATM   39  N6  UNL     1      51.223 -20.999  34.974  1.00  0.00    -0.352 N
HETATM   40  C29 UNL     1      51.455 -20.494  33.732  1.00  0.00     0.092 A
ATOM     41  H6  UNL     1      51.830 -20.732  35.750  1.00  0.00     0.166 HD
HETATM   42  C28 UNL     1      50.610 -20.883  32.725  1.00  0.00     0.046 A
BRANCH  38  43
HETATM   43  N1  UNL     1      50.021 -22.278  36.403  1.00  0.00    -0.372 N
ATOM     44  H1  UNL     1      49.332 -23.017  36.547  1.00  0.00     0.161 HD
BRANCH  43  45
HETATM   45  C2  UNL     1      50.709 -21.801  37.557  1.00  0.00     0.075 C
HETATM   46  C1  UNL     1      51.417 -23.022  38.173  1.00  0.00     0.031 C
HETATM   47  C3  UNL     1      49.817 -21.253  38.627  1.00  0.00     0.031 C
ENDBRANCH  43  45
ENDBRANCH  38  43
ENDBRANCH  34  36
ENDBRANCH  33  34
ENDBRANCH  30  33
ENDBRANCH   1  27
TORSDOF 11
ENDMDL