MODEL 5
REMARK VINA RESULT: -7.714255746      6.908     11.308
REMARK  11 active torsions:
REMARK  status: ('A' for Active; 'I' for Inactive)
REMARK    1  A    between atoms: C2_2  and  N1_3
REMARK       I    between atoms: N1_3  and  C3_5
REMARK       I    between atoms: C3_5  and  N2_7
REMARK    2  A    between atoms: N2_7  and  C4_9
REMARK    3  A    between atoms: C6_12  and  N3_13
REMARK    4  A    between atoms: N3_13  and  C7_15
REMARK    5  A    between atoms: C7_15  and  O2_16
REMARK    6  A    between atoms: C7_15  and  N4_18
REMARK       I    between atoms: N5_21  and  C10_22
REMARK    7  A    between atoms: C10_22  and  C11_24
REMARK    8  A    between atoms: C11_24  and  C12_25
REMARK    9  A    between atoms: C12_25  and  C13_26
REMARK   10  A    between atoms: C13_26  and  N6_27
REMARK       I    between atoms: N6_27  and  C14_29
REMARK       I    between atoms: C14_29  and  N8_33
REMARK   11  A    between atoms: C21_42  and  C22_43
ROOT
HETATM    1  C7  UNL     1      40.646 -20.840  28.969  1.00  0.00     0.220 C
ENDROOT
BRANCH   1   2
HETATM    2  N3  UNL     1      39.712 -20.256  28.127  1.00  0.00    -0.321 N
ATOM      3  H3  UNL     1      38.776 -20.658  28.179  1.00  0.00     0.169 HD
BRANCH   2   4
HETATM    4  C6  UNL     1      39.850 -19.192  27.208  1.00  0.00     0.061 A
HETATM    5  C5  UNL     1      39.546 -17.889  27.622  1.00  0.00     0.088 A
HETATM    6  C4  UNL     1      39.638 -16.821  26.774  1.00  0.00     0.068 A
HETATM    7 CL1  UNL     1      39.039 -17.624  29.272  1.00  0.00    -0.079 Cl
HETATM    8  C21 UNL     1      40.037 -16.942  25.436  1.00  0.00    -0.004 A
HETATM    9  C20 UNL     1      40.336 -18.209  25.022  1.00  0.00     0.045 A
HETATM   10  C19 UNL     1      40.239 -19.308  25.904  1.00  0.00     0.056 A
HETATM   11 CL2  UNL     1      40.825 -18.528  23.366  1.00  0.00    -0.084 Cl
BRANCH   6  12
HETATM   12  N2  UNL     1      39.334 -15.494  27.240  1.00  0.00    -0.307 N
HETATM   13  C3  UNL     1      37.965 -15.089  27.150  1.00  0.00     0.320 C
HETATM   14  N1  UNL     1      37.530 -13.797  27.565  1.00  0.00    -0.343 N
HETATM   15  O1  UNL     1      37.098 -15.876  26.695  1.00  0.00    -0.247 OA
ATOM     16  H1  UNL     1      38.226 -13.148  27.931  1.00  0.00     0.164 HD
ATOM     17  H2  UNL     1      40.055 -14.877  27.615  1.00  0.00     0.170 HD
BRANCH  14  18
HETATM   18  C2  UNL     1      36.170 -13.363  27.494  1.00  0.00     0.120 C
HETATM   19  C1  UNL     1      35.315 -13.684  28.672  1.00  0.00     0.026 C
ENDBRANCH  14  18
ENDBRANCH   6  12
BRANCH   8  20
HETATM   20  C22 UNL     1      40.063 -15.717  24.630  1.00  0.00     0.014 C
HETATM   21  C23 UNL     1      41.409 -15.200  24.212  1.00  0.00     0.015 C
HETATM   22  C24 UNL     1      39.267 -15.885  23.338  1.00  0.00     0.015 C
ENDBRANCH   8  20
ENDBRANCH   2   4
ENDBRANCH   1   2
BRANCH   1  23
HETATM   23  O2  UNL     1      40.521 -20.502  30.221  1.00  0.00    -0.332 OA
ATOM     24  H2  UNL     1      41.100 -20.971  30.810  1.00  0.00     0.220 HD
ENDBRANCH   1  23
BRANCH   1  25
HETATM   25  N4  UNL     1      41.690 -21.726  28.694  1.00  0.00    -0.340 N
HETATM   26  C8  UNL     1      41.509 -23.090  29.319  1.00  0.00     0.147 C
HETATM   27  C9  UNL     1      42.520 -23.123  30.441  1.00  0.00     0.145 C
HETATM   28  N5  UNL     1      43.809 -22.668  30.036  1.00  0.00    -0.349 N
HETATM   29  C10 UNL     1      44.877 -22.746  30.976  1.00  0.00     0.219 C
HETATM   30  C16 UNL     1      44.108 -22.140  28.744  1.00  0.00     0.150 C
HETATM   31  O3  UNL     1      44.663 -23.203  32.118  1.00  0.00    -0.273 OA
HETATM   32  C17 UNL     1      42.895 -21.657  27.969  1.00  0.00     0.101 C
HETATM   33  C18 UNL     1      43.287 -20.390  27.304  1.00  0.00     0.034 C
BRANCH  29  34
HETATM   34  C11 UNL     1      46.271 -22.299  30.653  1.00  0.00     0.104 C
BRANCH  34  35
HETATM   35  C12 UNL     1      46.954 -21.759  31.882  1.00  0.00     0.029 C
BRANCH  35  36
HETATM   36  C13 UNL     1      48.348 -22.323  31.949  1.00  0.00     0.138 C
BRANCH  36  37
HETATM   37  N6  UNL     1      48.653 -22.624  33.333  1.00  0.00    -0.227 N
HETATM   38  C14 UNL     1      49.829 -22.105  33.952  1.00  0.00     0.667 C
HETATM   39  N7  UNL     1      50.859 -21.924  33.231  1.00  0.00    -0.235 N
HETATM   40  N8  UNL     1      49.872 -21.789  35.334  1.00  0.00    -0.231 N
ATOM     41  H72 UNL     1      50.827 -22.151  32.237  1.00  0.00     0.174 HD
ATOM     42  H71 UNL     1      51.700 -21.553  33.673  1.00  0.00     0.174 HD
HETATM   43  C15 UNL     1      50.849 -22.451  36.206  1.00  0.00     0.165 C
ATOM     44  H8  UNL     1      49.225 -21.102  35.721  1.00  0.00     0.177 HD
ATOM     45  H6  UNL     1      48.019 -23.215  33.872  1.00  0.00     0.177 HD
ENDBRANCH  36  37
ENDBRANCH  35  36
ENDBRANCH  34  35
ENDBRANCH  29  34
ENDBRANCH   1  25
TORSDOF 11
ENDMDL