MODEL 1
REMARK VINA RESULT: -8.261377605      0.000      0.000
REMARK  12 active torsions:
REMARK  status: ('A' for Active; 'I' for Inactive)
REMARK    1  A    between atoms: C2_2  and  C3_3
REMARK       I    between atoms: C3_3  and  N1_5
REMARK    2  A    between atoms: N1_5  and  C4_7
REMARK    3  A    between atoms: C4_7  and  C5_8
REMARK    4  A    between atoms: C8_11  and  N2_12
REMARK    5  A    between atoms: N2_12  and  C9_14
REMARK    6  A    between atoms: C10_17  and  N4_18
REMARK    7  A    between atoms: N4_18  and  C11_19
REMARK    8  A    between atoms: C15_24  and  N5_25
REMARK    9  A    between atoms: N5_25  and  C16_27
REMARK   10  A    between atoms: C19_32  and  C20_33
REMARK   11  A    between atoms: C22_37  and  N8_38
REMARK   12  A    between atoms: N8_38  and  C23_40
ROOT
HETATM    1  C9  UNL     1      39.148 -20.141  28.500  1.00  0.00     0.696 A
HETATM    2  N3  UNL     1      38.616 -21.060  27.702  1.00  0.00    -0.148 N
ATOM      3  H3  UNL     1      39.013 -21.999  27.722  1.00  0.00     0.188 HD
HETATM    4  C10 UNL     1      37.560 -20.821  26.847  1.00  0.00     0.288 A
HETATM    5  N7  UNL     1      37.077 -19.540  26.873  1.00  0.00    -0.148 N
ATOM      6  H7  UNL     1      36.295 -19.309  26.261  1.00  0.00     0.188 HD
HETATM    7  C22 UNL     1      37.565 -18.585  27.646  1.00  0.00     0.696 A
HETATM    8  N9  UNL     1      38.608 -18.920  28.455  1.00  0.00    -0.022 N
ATOM      9  H9  UNL     1      39.000 -18.198  29.059  1.00  0.00     0.203 HD
ENDROOT
BRANCH   4  10
HETATM   10  N4  UNL     1      37.138 -21.681  26.138  1.00  0.00    -0.369 NA
BRANCH  10  11
HETATM   11  C11 UNL     1      36.668 -22.638  25.357  1.00  0.00     0.125 A
HETATM   12  C12 UNL     1      35.567 -22.391  24.506  1.00  0.00     0.069 A
HETATM   13  C13 UNL     1      35.107 -23.377  23.687  1.00  0.00     0.039 A
HETATM   14 CL1  UNL     1      33.730 -23.006  22.645  1.00  0.00    -0.084 Cl
HETATM   15  C14 UNL     1      35.695 -24.620  23.670  1.00  0.00     0.054 A
HETATM   16  C15 UNL     1      36.777 -24.912  24.487  1.00  0.00     0.048 A
HETATM   17  C19 UNL     1      37.234 -23.922  25.303  1.00  0.00     0.031 A
BRANCH  16  18
HETATM   18  N5  UNL     1      37.266 -26.234  24.431  1.00  0.00    -0.346 N
ATOM     19  H5  UNL     1      38.216 -26.427  24.748  1.00  0.00     0.167 HD
BRANCH  18  20
HETATM   20  C16 UNL     1      36.465 -27.307  23.943  1.00  0.00     0.072 C
HETATM   21  C17 UNL     1      36.711 -27.797  22.572  1.00  0.00     0.088 C
HETATM   22  N6  UNL     1      35.561 -27.810  24.697  1.00  0.00    -0.384 N
HETATM   23  C18 UNL     1      34.703 -28.901  24.279  1.00  0.00     0.147 C
ATOM     24  H6  UNL     1      35.440 -27.426  25.634  1.00  0.00     0.160 HD
ENDBRANCH  18  20
ENDBRANCH  16  18
BRANCH  17  25
HETATM   25  C20 UNL     1      38.349 -24.125  26.195  1.00  0.00     0.007 C
HETATM   26  C21 UNL     1      39.598 -24.046  25.809  1.00  0.00     0.012 C
ENDBRANCH  17  25
ENDBRANCH  10  11
ENDBRANCH   4  10
BRANCH   1  27
HETATM   27  N2  UNL     1      40.111 -20.345  29.311  1.00  0.00    -0.221 N
ATOM     28  H2  UNL     1      40.039 -19.948  30.249  1.00  0.00     0.178 HD
BRANCH  27  29
HETATM   29  C8  UNL     1      41.307 -21.112  28.979  1.00  0.00     0.099 C
HETATM   30  C7  UNL     1      41.924 -21.493  30.273  1.00  0.00     0.026 C
HETATM   31  C6  UNL     1      43.395 -21.800  30.243  1.00  0.00     0.012 C
HETATM   32  C5  UNL     1      44.052 -20.615  29.543  1.00  0.00     0.024 C
HETATM   33  C27 UNL     1      43.620 -20.650  28.135  1.00  0.00     0.012 C
HETATM   34  C26 UNL     1      42.145 -20.245  28.084  1.00  0.00     0.026 C
BRANCH  32  35
HETATM   35  C4  UNL     1      45.450 -20.403  29.917  1.00  0.00     0.068 C
BRANCH  35  36
HETATM   36  N1  UNL     1      46.109 -21.251  30.819  1.00  0.00    -0.337 N
HETATM   37  C3  UNL     1      47.422 -21.209  31.281  1.00  0.00     0.244 C
HETATM   38  O1  UNL     1      48.226 -20.318  30.911  1.00  0.00    -0.268 OA
ATOM     39  H1  UNL     1      45.542 -22.012  31.194  1.00  0.00     0.168 HD
BRANCH  37  40
HETATM   40  C2  UNL     1      47.969 -22.185  32.217  1.00  0.00     0.064 C
HETATM   41  C1  UNL     1      49.231 -22.207  32.578  1.00  0.00     0.017 C
ENDBRANCH  37  40
ENDBRANCH  35  36
ENDBRANCH  32  35
ENDBRANCH  27  29
ENDBRANCH   1  27
BRANCH   7  42
HETATM   42  N8  UNL     1      37.104 -17.394  27.666  1.00  0.00    -0.221 N
ATOM     43  H8  UNL     1      36.874 -16.949  26.778  1.00  0.00     0.178 HD
BRANCH  42  44
HETATM   44  C23 UNL     1      36.893 -16.655  28.873  1.00  0.00     0.099 A
HETATM   45  C24 UNL     1      37.344 -15.164  28.858  1.00  0.00     0.028 A
HETATM   46  C25 UNL     1      35.916 -15.509  28.879  1.00  0.00     0.028 A
ENDBRANCH  42  44
ENDBRANCH   7  42
TORSDOF 12
ENDMDL