MODEL 3
REMARK VINA RESULT: -8.977015122      3.783      5.117
REMARK  9 active torsions:
REMARK  status: ('A' for Active; 'I' for Inactive)
REMARK    1  A    between atoms: C4_11  and  C5_12
REMARK    2  A    between atoms: C11_20  and  C12_21
REMARK       I    between atoms: C12_21  and  N4_23
REMARK    3  A    between atoms: N4_23  and  C13_25
REMARK    4  A    between atoms: C13_25  and  C14_26
REMARK    5  A    between atoms: C13_25  and  C21_33
REMARK    6  A    between atoms: C14_26  and  C15_27
REMARK       I    between atoms: C21_33  and  N5_35
REMARK    7  A    between atoms: N5_35  and  C22_37
REMARK    8  A    between atoms: C22_37  and  C23_38
REMARK    9  A    between atoms: C26_41  and  N6_42
ROOT
HETATM    1  C12 UNL     1      39.433 -22.911  26.389  1.00  0.00     0.226 C
HETATM    2  O1  UNL     1      39.361 -22.741  25.126  1.00  0.00    -0.273 OA
HETATM    3  N4  UNL     1      38.886 -21.883  27.187  1.00  0.00    -0.347 N
ATOM      4  H4  UNL     1      38.918 -21.971  28.202  1.00  0.00     0.163 HD
ENDROOT
BRANCH   3   5
HETATM    5  C13 UNL     1      38.263 -20.671  26.582  1.00  0.00     0.177 C
BRANCH   5   6
HETATM    6  C14 UNL     1      36.821 -21.019  26.480  1.00  0.00     0.039 C
BRANCH   6   7
HETATM    7  C15 UNL     1      36.100 -20.807  25.211  1.00  0.00    -0.012 C
HETATM    8  C16 UNL     1      35.698 -21.988  24.418  1.00  0.00     0.005 C
HETATM    9  C17 UNL     1      35.828 -21.692  22.930  1.00  0.00     0.000 C
HETATM   10  C18 UNL     1      35.342 -20.304  22.570  1.00  0.00     0.000 C
HETATM   11  C19 UNL     1      36.144 -19.253  23.319  1.00  0.00     0.000 C
HETATM   12  C20 UNL     1      37.030 -19.935  24.342  1.00  0.00     0.005 C
ENDBRANCH   6   7
ENDBRANCH   5   6
BRANCH   5  13
HETATM   13  C21 UNL     1      38.476 -19.619  27.597  1.00  0.00     0.240 C
HETATM   14  O2  UNL     1      39.670 -19.545  28.066  1.00  0.00    -0.271 OA
HETATM   15  N5  UNL     1      37.474 -18.725  28.053  1.00  0.00    -0.359 N
ATOM     16  H5  UNL     1      36.527 -18.785  27.680  1.00  0.00     0.162 HD
BRANCH  15  17
HETATM   17  C22 UNL     1      37.794 -17.737  29.039  1.00  0.00     0.127 C
BRANCH  17  18
HETATM   18  C23 UNL     1      38.000 -16.402  28.403  1.00  0.00     0.003 C
HETATM   19  C24 UNL     1      37.420 -15.284  29.259  1.00  0.00     0.008 C
HETATM   20  C25 UNL     1      36.327 -14.531  28.555  1.00  0.00     0.033 C
HETATM   21  C26 UNL     1      36.796 -14.011  27.201  1.00  0.00     0.183 C
HETATM   22  C27 UNL     1      37.588 -15.029  26.451  1.00  0.00     0.033 C
HETATM   23  C28 UNL     1      37.278 -16.406  27.053  1.00  0.00     0.008 C
BRANCH  21  24
HETATM   24  N6  UNL     1      37.581 -12.790  27.437  1.00  0.00    -0.075 N
ATOM     25  H63 UNL     1      37.735 -12.603  28.428  1.00  0.00     0.274 HD
ATOM     26  H62 UNL     1      38.560 -12.889  27.166  1.00  0.00     0.274 HD
ATOM     27  H61 UNL     1      37.114 -12.021  26.957  1.00  0.00     0.274 HD
ENDBRANCH  21  24
ENDBRANCH  17  18
ENDBRANCH  15  17
ENDBRANCH   5  13
ENDBRANCH   3   5
BRANCH   1  28
HETATM   28  C11 UNL     1      40.067 -24.142  26.873  1.00  0.00     0.128 C
HETATM   29  C2  UNL     1      41.246 -24.576  26.079  1.00  0.00     0.110 C
HETATM   30  C1  UNL     1      42.281 -23.475  25.917  1.00  0.00     0.034 C
HETATM   31  N1  UNL     1      41.937 -25.611  26.859  1.00  0.00    -0.222 N
HETATM   32  C3  UNL     1      41.183 -26.389  27.802  1.00  0.00     0.668 C
ATOM     33  H1  UNL     1      42.935 -25.774  26.734  1.00  0.00     0.178 HD
HETATM   34  N2  UNL     1      41.773 -27.084  28.722  1.00  0.00    -0.235 N
HETATM   35  N3  UNL     1      39.772 -26.376  27.695  1.00  0.00    -0.217 N
ATOM     36  H22 UNL     1      42.791 -27.093  28.799  1.00  0.00     0.174 HD
ATOM     37  H21 UNL     1      41.238 -27.637  29.391  1.00  0.00     0.174 HD
HETATM   38  C4  UNL     1      39.099 -25.260  27.060  1.00  0.00     0.147 C
ATOM     39  H3  UNL     1      39.227 -27.155  28.066  1.00  0.00     0.178 HD
BRANCH  38  40
HETATM   40  C5  UNL     1      38.412 -25.746  25.842  1.00  0.00    -0.032 A
HETATM   41  C6  UNL     1      39.095 -26.533  24.905  1.00  0.00     0.012 A
HETATM   42  C7  UNL     1      38.489 -26.971  23.748  1.00  0.00     0.044 A
HETATM   43  C8  UNL     1      37.179 -26.645  23.472  1.00  0.00     0.138 A
HETATM   44  F1  UNL     1      36.552 -27.063  22.337  1.00  0.00    -0.204 F
HETATM   45  C9  UNL     1      36.469 -25.867  24.375  1.00  0.00     0.073 A
HETATM   46 CL1  UNL     1      34.803 -25.419  24.079  1.00  0.00    -0.081 Cl
HETATM   47  C10 UNL     1      37.106 -25.440  25.530  1.00  0.00     0.036 A
ENDBRANCH  38  40
ENDBRANCH   1  28
TORSDOF 9
ENDMDL