MODEL 2
REMARK VINA RESULT: -8.161377490      3.964      6.575
REMARK  11 active torsions:
REMARK  status: ('A' for Active; 'I' for Inactive)
REMARK    1  A    between atoms: C2_2  and  C4_5
REMARK    2  A    between atoms: C4_5  and  C5_6
REMARK    3  A    between atoms: C5_6  and  C6_7
REMARK    4  A    between atoms: C7_8  and  C8_9
REMARK       I    between atoms: C8_9  and  N1_11
REMARK    5  A    between atoms: N1_11  and  C9_12
REMARK    6  A    between atoms: C9_12  and  C10_13
REMARK    7  A    between atoms: C10_13  and  O2_14
REMARK    8  A    between atoms: N4_24  and  C15_26
REMARK    9  A    between atoms: C15_26  and  C16_27
REMARK   10  A    between atoms: C19_30  and  N5_31
REMARK   11  A    between atoms: C20_33  and  C21_34
ROOT
HETATM    1  C6  UNL     1      40.580 -23.357  28.112  1.00  0.00     0.051 A
HETATM    2  C7  UNL     1      40.850 -22.740  29.295  1.00  0.00     0.066 A
HETATM    3  C11 UNL     1      40.883 -23.429  30.499  1.00  0.00     0.022 A
HETATM    4  C12 UNL     1      40.640 -24.762  30.540  1.00  0.00     0.033 A
HETATM    5  C13 UNL     1      40.355 -25.416  29.340  1.00  0.00     0.063 A
HETATM    6  N2  UNL     1      40.074 -26.706  29.125  1.00  0.00    -0.298 N
ATOM      7  H2  UNL     1      40.028 -27.440  29.832  1.00  0.00     0.187 HD
HETATM    8  N3  UNL     1      39.866 -26.853  27.824  1.00  0.00    -0.284 N
ATOM      9  H3  UNL     1      39.631 -27.738  27.374  1.00  0.00     0.188 HD
HETATM   10  C14 UNL     1      40.005 -25.682  27.173  1.00  0.00     0.130 A
HETATM   11  N4  UNL     1      39.852 -25.433  25.927  1.00  0.00    -0.374 N
ATOM     12  H4  UNL     1      40.003 -24.479  25.599  1.00  0.00     0.161 HD
HETATM   13  C29 UNL     1      40.327 -24.720  28.146  1.00  0.00     0.057 A
ENDROOT
BRANCH  11  14
HETATM   14  C15 UNL     1      39.480 -26.429  24.972  1.00  0.00     0.126 C
BRANCH  14  15
HETATM   15  C16 UNL     1      38.194 -26.210  24.253  1.00  0.00     0.003 C
HETATM   16  C17 UNL     1      36.993 -25.933  25.062  1.00  0.00     0.008 C
HETATM   17  C18 UNL     1      36.347 -24.591  24.925  1.00  0.00     0.025 C
HETATM   18  C19 UNL     1      36.539 -23.861  23.652  1.00  0.00     0.080 C
HETATM   19  C27 UNL     1      37.053 -24.883  22.600  1.00  0.00     0.025 C
HETATM   20  C28 UNL     1      38.432 -25.268  23.093  1.00  0.00     0.008 C
BRANCH  18  21
HETATM   21  N5  UNL     1      35.497 -23.182  23.059  1.00  0.00    -0.397 N
HETATM   22  C20 UNL     1      35.077 -21.894  23.215  1.00  0.00     0.060 C
ATOM     23  H5  UNL     1      34.952 -23.731  22.395  1.00  0.00     0.159 HD
BRANCH  22  24
HETATM   24  C21 UNL     1      35.932 -20.743  22.754  1.00  0.00     0.027 C
HETATM   25  C22 UNL     1      35.009 -19.544  22.445  1.00  0.00     0.013 C
HETATM   26  C23 UNL     1      35.786 -18.334  22.836  1.00  0.00     0.044 C
HETATM   27  C24 UNL     1      36.941 -18.787  23.654  1.00  0.00     0.100 C
HETATM   28  C25 UNL     1      37.025 -17.982  24.956  1.00  0.00     0.051 C
HETATM   29  F1  UNL     1      38.138 -18.644  22.979  1.00  0.00    -0.243 F
HETATM   30  C26 UNL     1      36.697 -20.217  23.980  1.00  0.00     0.052 C
ENDBRANCH  22  24
ENDBRANCH  18  21
ENDBRANCH  14  15
ENDBRANCH  11  14
BRANCH   1  31
HETATM   31  C5  UNL     1      40.636 -22.697  26.842  1.00  0.00    -0.063 C
BRANCH  31  32
HETATM   32  C4  UNL     1      40.732 -22.109  25.785  1.00  0.00    -0.075 C
BRANCH  32  33
HETATM   33  C2  UNL     1      40.810 -21.357  24.528  1.00  0.00     0.093 C
HETATM   34  C1  UNL     1      40.457 -19.923  24.888  1.00  0.00     0.046 C
HETATM   35  C3  UNL     1      42.213 -21.452  23.980  1.00  0.00     0.046 C
HETATM   36 CL1  UNL     1      39.631 -21.882  23.319  1.00  0.00    -0.106 Cl
ENDBRANCH  32  33
ENDBRANCH  31  32
ENDBRANCH   1  31
BRANCH   2  37
HETATM   37  C8  UNL     1      41.013 -21.253  29.365  1.00  0.00     0.327 C
HETATM   38  O1  UNL     1      42.151 -20.938  29.819  1.00  0.00    -0.251 OA
HETATM   39  N1  UNL     1      40.029 -20.408  28.991  1.00  0.00    -0.381 NA
BRANCH  39  40
HETATM   40  C9  UNL     1      39.021 -19.539  28.608  1.00  0.00     0.185 C
BRANCH  40  41
HETATM   41  C10 UNL     1      39.121 -18.109  29.176  1.00  0.00     0.223 C
BRANCH  41  42
HETATM   42  O2  UNL     1      39.546 -18.121  30.484  1.00  0.00    -0.395 OA
ATOM     43  H2  UNL     1      39.152 -17.412  30.979  1.00  0.00     0.209 HD
ENDBRANCH  41  42
ENDBRANCH  40  41
ENDBRANCH  39  40
ENDBRANCH   2  37
TORSDOF 11
ENDMDL