MODEL 1
REMARK VINA RESULT: -8.214330671      0.000      0.000
REMARK  11 active torsions:
REMARK  status: ('A' for Active; 'I' for Inactive)
REMARK    1  A    between atoms: C5_5  and  C6_6
REMARK    2  A    between atoms: C8_8  and  C9_9
REMARK    3  A    between atoms: C9_9  and  C10_10
REMARK    4  A    between atoms: C10_10  and  N1_11
REMARK    5  A    between atoms: C10_10  and  C19_27
REMARK    6  A    between atoms: N1_11  and  C11_13
REMARK    7  A    between atoms: C11_13  and  O1_14
REMARK    8  A    between atoms: C11_13  and  C12_16
REMARK    9  A    between atoms: C12_16  and  N2_17
REMARK   10  A    between atoms: C12_16  and  C14_22
REMARK       I    between atoms: N2_17  and  C13_19
REMARK   11  A    between atoms: C21_33  and  C23_35
ROOT
HETATM    1  C6  UNL     1      38.521 -21.111  24.554  1.00  0.00     0.039 A
HETATM    2  C7  UNL     1      38.583 -19.978  25.304  1.00  0.00     0.038 A
HETATM    3  C8  UNL     1      39.714 -20.030  26.124  1.00  0.00    -0.038 A
HETATM    4  C20 UNL     1      40.312 -21.223  25.836  1.00  0.00     0.095 A
HETATM    5  N3  UNL     1      39.593 -21.856  24.901  1.00  0.00    -0.365 N
ATOM      6  H3  UNL     1      39.822 -22.769  24.507  1.00  0.00     0.165 HD
ENDROOT
BRANCH   3   7
HETATM    7  C9  UNL     1      40.175 -19.019  27.096  1.00  0.00     0.076 C
BRANCH   7   8
HETATM    8  C10 UNL     1      39.417 -19.050  28.372  1.00  0.00     0.188 C
BRANCH   8   9
HETATM    9  N1  UNL     1      38.975 -17.641  28.648  1.00  0.00    -0.358 N
ATOM     10  H1  UNL     1      39.479 -17.054  29.312  1.00  0.00     0.162 HD
BRANCH   9  11
HETATM   11  C11 UNL     1      37.868 -17.163  27.978  1.00  0.00     0.136 C
BRANCH  11  12
HETATM   12  O1  UNL     1      36.923 -18.029  27.737  1.00  0.00    -0.348 OA
ATOM     13  H1  UNL     1      36.293 -18.166  28.435  1.00  0.00     0.219 HD
ENDBRANCH  11  12
BRANCH  11  14
HETATM   14  C12 UNL     1      37.622 -15.799  27.504  1.00  0.00     0.166 C
BRANCH  14  15
HETATM   15  N2  UNL     1      38.031 -15.687  26.092  1.00  0.00    -0.323 N
HETATM   16  C13 UNL     1      39.387 -15.540  25.713  1.00  0.00     0.284 C
HETATM   17  O2  UNL     1      40.257 -15.505  26.607  1.00  0.00    -0.630 OA
HETATM   18  O3  UNL     1      39.784 -15.435  24.386  1.00  0.00    -0.630 OA
ATOM     19  H2  UNL     1      37.315 -15.715  25.366  1.00  0.00     0.166 HD
ENDBRANCH  14  15
BRANCH  14  20
HETATM   20  C14 UNL     1      36.335 -15.144  27.762  1.00  0.00     0.016 C
HETATM   21  C15 UNL     1      36.375 -13.649  27.675  1.00  0.00     0.007 C
HETATM   22  C16 UNL     1      35.447 -13.129  28.746  1.00  0.00     0.000 C
HETATM   23  C17 UNL     1      34.711 -14.338  29.232  1.00  0.00     0.000 C
HETATM   24  C18 UNL     1      35.715 -15.459  29.114  1.00  0.00     0.007 C
ENDBRANCH  14  20
ENDBRANCH  11  14
ENDBRANCH   9  11
ENDBRANCH   8   9
BRANCH   8  25
HETATM   25  C19 UNL     1      40.222 -19.490  29.512  1.00  0.00     0.197 C
HETATM   26  O4  UNL     1      39.873 -19.150  30.684  1.00  0.00    -0.646 OA
HETATM   27  O5  UNL     1      41.353 -20.277  29.325  1.00  0.00    -0.646 OA
ENDBRANCH   8  25
ENDBRANCH   7   8
ENDBRANCH   3   7
BRANCH   1  28
HETATM   28  C5  UNL     1      37.526 -21.549  23.549  1.00  0.00    -0.018 C
HETATM   29  C4  UNL     1      37.640 -21.024  22.347  1.00  0.00     0.021 C
HETATM   30  C2  UNL     1      36.787 -21.277  21.166  1.00  0.00     0.138 C
HETATM   31  C1  UNL     1      36.220 -19.887  20.791  1.00  0.00     0.050 C
HETATM   32  C3  UNL     1      37.559 -21.690  19.932  1.00  0.00     0.050 C
HETATM   33  N4  UNL     1      35.778 -22.233  21.446  1.00  0.00    -0.054 N
HETATM   34  C25 UNL     1      35.331 -22.215  22.826  1.00  0.00     0.135 C
ATOM     35  H42 UNL     1      34.989 -22.122  20.809  1.00  0.00     0.279 HD
ATOM     36  H41 UNL     1      36.083 -23.168  21.177  1.00  0.00     0.279 HD
HETATM   37  C21 UNL     1      36.444 -22.543  23.823  1.00  0.00     0.068 C
HETATM   38  C26 UNL     1      34.129 -23.105  22.864  1.00  0.00     0.047 C
HETATM   39  C27 UNL     1      34.803 -20.831  23.248  1.00  0.00     0.047 C
HETATM   40  C22 UNL     1      35.818 -22.371  25.198  1.00  0.00     0.028 C
BRANCH  37  41
HETATM   41  C23 UNL     1      36.984 -23.925  23.674  1.00  0.00     0.189 C
HETATM   42  C24 UNL     1      37.337 -24.620  24.989  1.00  0.00     0.071 C
HETATM   43  F1  UNL     1      35.969 -24.756  23.152  1.00  0.00    -0.225 F
HETATM   44 CL1  UNL     1      38.385 -24.095  22.609  1.00  0.00    -0.082 Cl
ENDBRANCH  37  41
ENDBRANCH   1  28
TORSDOF 11
ENDMDL