MODEL 2
REMARK VINA RESULT: -6.674849700      0.819      1.041
REMARK  16 active torsions:
REMARK  status: ('A' for Active; 'I' for Inactive)
REMARK    1  A    between atoms: C2_2  and  C4_4
REMARK    2  A    between atoms: C9_10  and  O1_11
REMARK    3  A    between atoms: C12_15  and  O2_16
REMARK    4  A    between atoms: C15_20  and  O3_21
REMARK    5  A    between atoms: C16_23  and  O4_24
REMARK    6  A    between atoms: C16_23  and  C17_26
REMARK    7  A    between atoms: C20_29  and  C21_30
REMARK    8  A    between atoms: C22_31  and  C23_32
REMARK    9  A    between atoms: C23_32  and  O5_33
REMARK   10  A    between atoms: O5_33  and  C24_34
REMARK   11  A    between atoms: C24_34  and  C25_36
REMARK   12  A    between atoms: C26_37  and  C27_38
REMARK   13  A    between atoms: C27_38  and  C28_39
REMARK   14  A    between atoms: C30_41  and  C31_42
REMARK   15  A    between atoms: C31_42  and  O8_44
REMARK   16  A    between atoms: O8_44  and  O9_45
ROOT
HETATM    1  C4  UNL     1      41.186 -24.351  28.544  1.00  0.00    -0.050 C
HETATM    2  C5  UNL     1      41.695 -24.538  29.971  1.00  0.00     0.039 C
HETATM    3  C6  UNL     1      42.794 -23.707  30.424  1.00  0.00     0.051 C
HETATM    4  C7  UNL     1      43.544 -22.866  29.440  1.00  0.00     0.132 C
HETATM    5  C8  UNL     1      44.098 -21.711  30.225  1.00  0.00     0.055 C
HETATM    6  F1  UNL     1      44.733 -23.624  29.209  1.00  0.00    -0.240 F
HETATM    7  C9  UNL     1      42.864 -22.594  28.141  1.00  0.00     0.117 C
HETATM    8  C10 UNL     1      43.264 -21.196  27.708  1.00  0.00     0.046 C
HETATM    9  C11 UNL     1      43.498 -20.976  26.267  1.00  0.00     0.046 C
HETATM   10  C12 UNL     1      42.332 -20.816  25.342  1.00  0.00     0.084 C
HETATM   11  C13 UNL     1      42.115 -22.156  24.695  1.00  0.00     0.046 C
HETATM   12  C14 UNL     1      41.359 -23.146  25.499  1.00  0.00     0.046 C
HETATM   13  C15 UNL     1      40.695 -22.654  26.766  1.00  0.00     0.117 C
HETATM   14  C16 UNL     1      40.089 -21.341  26.417  1.00  0.00     0.119 C
HETATM   15  C20 UNL     1      41.103 -20.286  25.931  1.00  0.00    -0.009 C
HETATM   16  C30 UNL     1      41.414 -22.942  28.040  1.00  0.00     0.142 C
ENDROOT
BRANCH  15  17
HETATM   17  C21 UNL     1      40.501 -19.163  25.239  1.00  0.00     0.007 C
HETATM   18  C22 UNL     1      40.371 -17.895  25.481  1.00  0.00     0.000 C
BRANCH  18  19
HETATM   19  C23 UNL     1      39.646 -16.997  24.481  1.00  0.00     0.206 C
BRANCH  19  20
HETATM   20  O5  UNL     1      38.626 -16.329  25.157  1.00  0.00    -0.314 OA
BRANCH  20  21
HETATM   21  C24 UNL     1      37.551 -16.993  25.671  1.00  0.00     0.282 C
HETATM   22  O6  UNL     1      36.773 -17.556  24.819  1.00  0.00    -0.260 OA
BRANCH  21  23
HETATM   23  C25 UNL     1      37.195 -17.130  27.048  1.00  0.00     0.078 C
HETATM   24  C26 UNL     1      37.259 -16.186  27.940  1.00  0.00    -0.021 C
BRANCH  24  25
HETATM   25  C27 UNL     1      37.680 -14.788  27.838  1.00  0.00     0.027 C
BRANCH  25  26
HETATM   26  C28 UNL     1      36.462 -13.895  27.528  1.00  0.00    -0.001 C
HETATM   27  C29 UNL     1      35.439 -14.107  28.606  1.00  0.00     0.005 C
ENDBRANCH  25  26
ENDBRANCH  24  25
ENDBRANCH  21  23
ENDBRANCH  20  21
ENDBRANCH  19  20
ENDBRANCH  18  19
ENDBRANCH  15  17
BRANCH  10  28
HETATM   28  O2  UNL     1      42.860 -20.038  24.295  1.00  0.00    -0.385 OA
ATOM     29  H2  UNL     1      42.310 -20.269  23.557  1.00  0.00     0.211 HD
ENDBRANCH  10  28
BRANCH  14  30
HETATM   30  O4  UNL     1      39.583 -20.678  27.587  1.00  0.00    -0.382 OA
ATOM     31  H4  UNL     1      38.692 -20.948  27.774  1.00  0.00     0.211 HD
ENDBRANCH  14  30
BRANCH  14  32
HETATM   32  C17 UNL     1      38.798 -21.255  25.695  1.00  0.00     0.020 C
HETATM   33  C18 UNL     1      37.535 -20.942  26.495  1.00  0.00     0.013 C
HETATM   34  C19 UNL     1      38.322 -22.343  24.802  1.00  0.00     0.013 C
ENDBRANCH  14  32
BRANCH  13  35
HETATM   35  O3  UNL     1      39.586 -23.517  26.816  1.00  0.00    -0.385 OA
ATOM     36  H3  UNL     1      38.890 -22.887  26.964  1.00  0.00     0.210 HD
ENDBRANCH  13  35
BRANCH  16  37
HETATM   37  C31 UNL     1      40.748 -22.206  29.196  1.00  0.00     0.308 C
HETATM   38  O7  UNL     1      39.667 -22.647  29.735  1.00  0.00    -0.261 OA
BRANCH  37  39
HETATM   39  O8  UNL     1      41.140 -21.061  29.803  1.00  0.00    -0.160 OA
BRANCH  39  40
HETATM   40  O9  UNL     1      40.392 -20.083  30.263  1.00  0.00    -0.242 OA
ATOM     41  H9  UNL     1      40.022 -19.982  31.133  1.00  0.00     0.254 HD
ENDBRANCH  39  40
ENDBRANCH  37  39
ENDBRANCH  16  37
BRANCH   7  42
HETATM   42  O1  UNL     1      43.607 -23.292  27.159  1.00  0.00    -0.385 OA
ATOM     43  H1  UNL     1      44.285 -22.693  26.870  1.00  0.00     0.210 HD
ENDBRANCH   7  42
BRANCH   1  44
HETATM   44  C2  UNL     1      41.433 -25.586  27.849  1.00  0.00    -0.068 C
HETATM   45  C1  UNL     1      40.431 -26.473  27.617  1.00  0.00     0.018 C
HETATM   46  C3  UNL     1      42.715 -26.166  27.359  1.00  0.00     0.047 C
ENDBRANCH   1  44
TORSDOF 16
ENDMDL