MODEL 3
REMARK VINA RESULT: -7.729169543      2.585      4.708
REMARK  10 active torsions:
REMARK  status: ('A' for Active; 'I' for Inactive)
REMARK    1  A    between atoms: O1_2  and  C2_3
REMARK    2  A    between atoms: C2_3  and  C3_5
REMARK    3  A    between atoms: C15_17  and  C16_18
REMARK    4  A    between atoms: C16_18  and  O3_19
REMARK    5  A    between atoms: C16_18  and  C17_21
REMARK    6  A    between atoms: C17_21  and  N1_22
REMARK    7  A    between atoms: N1_22  and  C18_25
REMARK    8  A    between atoms: C18_25  and  C19_26
REMARK    9  A    between atoms: C19_26  and  C20_27
REMARK   10  A    between atoms: C20_27  and  C21_28
ROOT
HETATM    1  C3  UNL     1      37.170 -24.748  24.500  1.00  0.00     0.117 C
HETATM    2  C4  UNL     1      36.629 -26.084  24.991  1.00  0.00     0.049 C
HETATM    3  C5  UNL     1      38.361 -24.395  25.310  1.00  0.00     0.041 C
HETATM    4  C6  UNL     1      39.044 -25.591  25.913  1.00  0.00     0.003 C
HETATM    5  C7  UNL     1      39.819 -25.223  27.167  1.00  0.00     0.000 C
HETATM    6  C8  UNL     1      40.617 -23.971  27.055  1.00  0.00     0.000 C
HETATM    7  C9  UNL     1      40.526 -23.167  28.363  1.00  0.00     0.000 C
HETATM    8  C10 UNL     1      39.665 -21.942  28.196  1.00  0.00     0.000 C
HETATM    9  C11 UNL     1      40.326 -20.655  28.545  1.00  0.00     0.000 C
HETATM   10  C12 UNL     1      40.280 -19.726  27.379  1.00  0.00     0.006 C
HETATM   11  C13 UNL     1      39.039 -18.861  27.307  1.00  0.00     0.007 C
HETATM   12  C14 UNL     1      38.890 -18.135  28.650  1.00  0.00     0.012 C
HETATM   13  C15 UNL     1      39.302 -17.845  26.178  1.00  0.00     0.118 C
HETATM   14  N2  UNL     1      40.061 -18.466  25.145  1.00  0.00    -0.349 N
ATOM     15  H2  UNL     1      41.043 -18.582  25.396  1.00  0.00     0.163 HD
HETATM   16  C22 UNL     1      39.774 -18.947  23.883  1.00  0.00     0.260 C
HETATM   17  O6  UNL     1      40.554 -18.644  22.921  1.00  0.00    -0.267 OA
HETATM   18  C23 UNL     1      38.643 -19.805  23.458  1.00  0.00     0.095 A
HETATM   19  S1  UNL     1      37.956 -21.021  24.427  1.00  0.00    -0.077 SA
HETATM   20  C24 UNL     1      36.756 -21.605  23.372  1.00  0.00     0.075 A
HETATM   21  C25 UNL     1      36.929 -20.817  22.271  1.00  0.00     0.050 A
HETATM   22  C26 UNL     1      37.901 -19.890  22.311  1.00  0.00     0.058 A
HETATM   23 CL1  UNL     1      38.215 -18.807  20.906  1.00  0.00    -0.083 Cl
HETATM   24  C27 UNL     1      35.820 -22.710  23.704  1.00  0.00     0.259 C
HETATM   25  O7  UNL     1      34.681 -22.610  23.144  1.00  0.00    -0.267 OA
HETATM   26  N3  UNL     1      36.101 -23.786  24.545  1.00  0.00    -0.338 N
ATOM     27  H3  UNL     1      35.443 -23.911  25.315  1.00  0.00     0.164 HD
ENDROOT
BRANCH  13  28
HETATM   28  C16 UNL     1      38.138 -17.013  25.850  1.00  0.00     0.167 C
BRANCH  28  29
HETATM   29  O3  UNL     1      37.076 -17.570  25.196  1.00  0.00    -0.392 OA
ATOM     30  H3  UNL     1      36.523 -17.022  24.651  1.00  0.00     0.210 HD
ENDBRANCH  28  29
BRANCH  28  31
HETATM   31  C17 UNL     1      38.426 -15.686  25.185  1.00  0.00     0.265 C
BRANCH  31  32
HETATM   32  N1  UNL     1      37.622 -14.654  25.788  1.00  0.00    -0.073 N
ATOM     33  H12 UNL     1      37.693 -13.786  25.257  1.00  0.00     0.277 HD
ATOM     34  H11 UNL     1      36.629 -14.850  25.661  1.00  0.00     0.277 HD
BRANCH  32  35
HETATM   35  C18 UNL     1      37.921 -14.430  27.168  1.00  0.00     0.233 C
BRANCH  35  36
HETATM   36  C19 UNL     1      36.847 -14.950  28.101  1.00  0.00     0.038 C
BRANCH  36  37
HETATM   37  C20 UNL     1      35.769 -13.914  28.350  1.00  0.00     0.115 C
BRANCH  37  38
HETATM   38  C21 UNL     1      34.714 -14.512  29.210  1.00  0.00     0.172 C
HETATM   39  O4  UNL     1      34.672 -15.756  29.303  1.00  0.00    -0.648 OA
HETATM   40  O5  UNL     1      33.784 -13.760  29.909  1.00  0.00    -0.648 OA
ENDBRANCH  37  38
ENDBRANCH  36  37
ENDBRANCH  35  36
ENDBRANCH  32  35
ENDBRANCH  31  32
ENDBRANCH  28  31
ENDBRANCH  13  28
BRANCH   1  41
HETATM   41  C2  UNL     1      37.658 -25.010  23.118  1.00  0.00     0.286 C
HETATM   42  O2  UNL     1      37.089 -25.807  22.336  1.00  0.00    -0.262 OA
BRANCH  41  43
HETATM   43  O1  UNL     1      38.793 -24.330  22.706  1.00  0.00    -0.325 OA
HETATM   44  C1  UNL     1      38.967 -23.861  21.389  1.00  0.00     0.213 C
ENDBRANCH  41  43
ENDBRANCH   1  41
TORSDOF 10
ENDMDL