MODEL 3
REMARK VINA RESULT: -6.359120394      3.323      7.471
REMARK  13 active torsions:
REMARK  status: ('A' for Active; 'I' for Inactive)
REMARK    1  A    between atoms: C2_2  and  C3_4
REMARK    2  A    between atoms: C3_4  and  O3_6
REMARK    3  A    between atoms: O3_6  and  C4_7
REMARK    4  A    between atoms: C4_7  and  C5_8
REMARK    5  A    between atoms: C6_11  and  O6_12
REMARK    6  A    between atoms: C7_14  and  C8_15
REMARK    7  A    between atoms: C8_15  and  O7_17
REMARK    8  A    between atoms: C10_19  and  C11_20
REMARK    9  A    between atoms: C17_28  and  C19_30
REMARK   10  A    between atoms: N1_31  and  O8_33
REMARK   11  A    between atoms: C20_35  and  C21_36
REMARK   12  A    between atoms: C22_37  and  C23_38
REMARK   13  A    between atoms: C23_38  and  C26_41
ROOT
HETATM    1  C4  UNL     1      39.160 -18.609  25.058  1.00  0.00     0.209 C
HETATM    2  C6  UNL     1      38.055 -18.287  24.132  1.00  0.00     0.176 C
HETATM    3  C7  UNL     1      37.119 -19.442  23.726  1.00  0.00     0.057 C
HETATM    4  C10 UNL     1      37.996 -20.550  23.200  1.00  0.00     0.047 C
HETATM    5  C17 UNL     1      38.851 -21.069  24.349  1.00  0.00     0.025 C
HETATM    6  C18 UNL     1      40.050 -21.800  23.864  1.00  0.00     0.027 C
HETATM    7  C20 UNL     1      39.159 -20.019  25.389  1.00  0.00    -0.018 C
ENDROOT
BRANCH   1   8
HETATM    8  O3  UNL     1      39.099 -17.836  26.256  1.00  0.00    -0.285 OA
BRANCH   8   9
HETATM    9  C3  UNL     1      38.053 -17.440  26.997  1.00  0.00     0.330 C
HETATM   10  O2  UNL     1      37.462 -18.288  27.682  1.00  0.00    -0.256 OA
BRANCH   9  11
HETATM   11  C2  UNL     1      37.579 -16.040  27.031  1.00  0.00     0.220 C
HETATM   12  C1  UNL     1      37.404 -15.398  28.348  1.00  0.00     0.103 C
HETATM   13  O1  UNL     1      37.336 -15.430  25.980  1.00  0.00    -0.287 OA
ENDBRANCH   9  11
ENDBRANCH   8   9
ENDBRANCH   1   8
BRANCH   1  14
HETATM   14  C5  UNL     1      40.386 -18.062  24.403  1.00  0.00     0.217 C
HETATM   15  O4  UNL     1      41.156 -18.633  23.653  1.00  0.00    -0.645 OA
HETATM   16  O5  UNL     1      40.693 -16.745  24.670  1.00  0.00    -0.645 OA
ENDBRANCH   1  14
BRANCH   2  17
HETATM   17  O6  UNL     1      38.446 -17.653  22.961  1.00  0.00    -0.391 OA
ATOM     18  H6  UNL     1      38.283 -18.150  22.168  1.00  0.00     0.210 HD
ENDBRANCH   2  17
BRANCH   7  19
HETATM   19  C21 UNL     1      40.146 -20.550  26.366  1.00  0.00     0.005 C
HETATM   20  C22 UNL     1      40.065 -20.683  27.652  1.00  0.00    -0.013 C
BRANCH  20  21
HETATM   21  C23 UNL     1      41.168 -21.252  28.532  1.00  0.00    -0.012 C
HETATM   22  C24 UNL     1      40.999 -20.886  29.952  1.00  0.00     0.023 C
HETATM   23  C25 UNL     1      41.101 -22.786  28.453  1.00  0.00     0.023 C
BRANCH  21  24
HETATM   24  C26 UNL     1      42.460 -20.826  27.993  1.00  0.00    -0.012 C
HETATM   25  C27 UNL     1      43.617 -20.975  28.580  1.00  0.00    -0.090 C
HETATM   26  C28 UNL     1      43.868 -21.599  29.903  1.00  0.00     0.042 C
HETATM   27  C29 UNL     1      44.821 -20.456  27.791  1.00  0.00     0.042 C
ENDBRANCH  21  24
ENDBRANCH  20  21
ENDBRANCH   7  19
BRANCH   3  28
HETATM   28  C8  UNL     1      36.268 -18.746  22.704  1.00  0.00     0.121 C
HETATM   29  C9  UNL     1      35.164 -19.422  22.022  1.00  0.00     0.040 C
BRANCH  28  30
HETATM   30  O7  UNL     1      35.674 -17.620  23.353  1.00  0.00    -0.395 OA
ATOM     31  H7  UNL     1      34.743 -17.797  23.417  1.00  0.00     0.210 HD
ENDBRANCH  28  30
ENDBRANCH   3  28
BRANCH   5  32
HETATM   32  C19 UNL     1      38.091 -22.103  25.170  1.00  0.00     0.101 C
HETATM   33  N1  UNL     1      37.245 -21.970  26.034  1.00  0.00    -0.283 N
ATOM     34  H1  UNL     1      36.953 -22.887  26.372  1.00  0.00     0.192 HD
BRANCH  33  35
HETATM   35  O8  UNL     1      36.579 -21.023  26.680  1.00  0.00    -0.291 OA
ATOM     36  H8  UNL     1      35.990 -20.298  26.514  1.00  0.00     0.244 HD
ENDBRANCH  33  35
ENDBRANCH   5  32
BRANCH   4  37
HETATM   37  C11 UNL     1      37.232 -21.716  22.641  1.00  0.00    -0.030 A
HETATM   38  C12 UNL     1      36.166 -22.314  23.291  1.00  0.00     0.011 A
HETATM   39  C13 UNL     1      35.554 -23.477  22.878  1.00  0.00     0.024 A
HETATM   40  C14 UNL     1      35.999 -24.111  21.760  1.00  0.00     0.035 A
HETATM   41 CL1  UNL     1      35.277 -25.604  21.159  1.00  0.00    -0.084 Cl
HETATM   42  C15 UNL     1      37.043 -23.576  21.069  1.00  0.00     0.048 A
HETATM   43  C16 UNL     1      37.643 -22.394  21.509  1.00  0.00     0.042 A
HETATM   44 CL2  UNL     1      38.888 -21.706  20.484  1.00  0.00    -0.084 Cl
ENDBRANCH   4  37
TORSDOF 13
ENDMDL