MODEL 4
REMARK VINA RESULT: -7.359144747      2.371      4.659
REMARK  14 active torsions:
REMARK  status: ('A' for Active; 'I' for Inactive)
REMARK    1  A    between atoms: O1_2  and  C2_3
REMARK    2  A    between atoms: C4_6  and  O3_7
REMARK    3  A    between atoms: C8_12  and  O4_13
REMARK    4  A    between atoms: C12_19  and  O6_21
REMARK    5  A    between atoms: C19_28  and  C20_29
REMARK    6  A    between atoms: C20_29  and  C21_30
REMARK    7  A    between atoms: C21_30  and  O7_31
REMARK    8  A    between atoms: C21_30  and  C22_33
REMARK    9  A    between atoms: C22_33  and  C23_34
REMARK   10  A    between atoms: C23_34  and  O8_35
REMARK   11  A    between atoms: C23_34  and  C24_37
REMARK   12  A    between atoms: C24_37  and  C25_38
REMARK   13  A    between atoms: C25_38  and  C26_39
REMARK   14  A    between atoms: C26_39  and  C27_40
ROOT
HETATM    1  C2  UNL     1      38.666 -19.045  22.294  1.00  0.00     0.096 C
HETATM    2  C3  UNL     1      39.383 -20.133  22.038  1.00  0.00     0.175 C
HETATM    3  O2  UNL     1      39.186 -21.399  22.422  1.00  0.00    -0.330 OA
HETATM    4  C4  UNL     1      39.346 -22.187  23.531  1.00  0.00     0.262 C
HETATM    5  C5  UNL     1      38.982 -23.619  23.097  1.00  0.00     0.068 C
HETATM    6  C6  UNL     1      38.348 -24.456  24.125  1.00  0.00     0.018 C
HETATM    7  C7  UNL     1      38.376 -23.859  25.546  1.00  0.00     0.012 C
HETATM    8  C8  UNL     1      37.209 -25.302  23.832  1.00  0.00     0.159 C
HETATM    9  C9  UNL     1      35.916 -25.065  23.272  1.00  0.00     0.113 A
HETATM   10  C10 UNL     1      35.214 -26.477  23.303  1.00  0.00     0.051 C
HETATM   11  O5  UNL     1      36.252 -24.699  21.843  1.00  0.00    -0.363 OA
HETATM   12  C11 UNL     1      35.209 -24.182  22.548  1.00  0.00     0.197 A
HETATM   13  C12 UNL     1      34.942 -22.730  22.751  1.00  0.00     0.101 C
HETATM   14  C13 UNL     1      34.997 -22.225  24.136  1.00  0.00     0.053 C
HETATM   15  C14 UNL     1      35.770 -21.887  21.836  1.00  0.00     0.009 C
HETATM   16  C15 UNL     1      36.208 -20.691  21.841  1.00  0.00    -0.019 C
HETATM   17  C16 UNL     1      36.114 -19.531  22.753  1.00  0.00     0.039 C
HETATM   18  C17 UNL     1      35.176 -18.459  22.187  1.00  0.00     0.019 C
HETATM   19  C18 UNL     1      37.454 -18.913  23.061  1.00  0.00    -0.019 C
HETATM   20  C19 UNL     1      37.457 -18.140  24.131  1.00  0.00    -0.014 C
ENDROOT
BRANCH   1  21
HETATM   21  O1  UNL     1      39.179 -17.852  21.719  1.00  0.00    -0.353 OA
HETATM   22  C1  UNL     1      38.553 -17.153  20.677  1.00  0.00     0.210 C
ENDBRANCH   1  21
BRANCH  20  23
HETATM   23  C20 UNL     1      38.616 -17.371  24.633  1.00  0.00     0.059 C
BRANCH  23  24
HETATM   24  C21 UNL     1      38.285 -15.921  24.940  1.00  0.00     0.124 C
BRANCH  24  25
HETATM   25  O7  UNL     1      38.695 -15.063  23.943  1.00  0.00    -0.395 OA
ATOM     26  H7  UNL     1      38.806 -14.172  24.252  1.00  0.00     0.210 HD
ENDBRANCH  24  25
BRANCH  24  27
HETATM   27  C22 UNL     1      38.862 -15.530  26.287  1.00  0.00     0.063 C
BRANCH  27  28
HETATM   28  C23 UNL     1      37.842 -14.736  27.093  1.00  0.00     0.120 C
BRANCH  28  29
HETATM   29  O8  UNL     1      37.049 -13.999  26.242  1.00  0.00    -0.395 OA
ATOM     30  H8  UNL     1      36.284 -14.506  25.999  1.00  0.00     0.210 HD
ENDBRANCH  28  29
BRANCH  28  31
HETATM   31  C24 UNL     1      36.966 -15.648  27.914  1.00  0.00     0.032 C
BRANCH  31  32
HETATM   32  C25 UNL     1      37.680 -16.797  28.530  1.00  0.00     0.007 C
BRANCH  32  33
HETATM   33  C26 UNL     1      37.295 -18.163  28.053  1.00  0.00     0.036 C
BRANCH  33  34
HETATM   34  C27 UNL     1      38.443 -19.106  28.097  1.00  0.00    -0.050 C
HETATM   35  C28 UNL     1      39.653 -18.763  28.936  1.00  0.00     0.046 C
HETATM   36  C29 UNL     1      38.439 -20.224  27.434  1.00  0.00     0.105 C
HETATM   37 CL1  UNL     1      39.832 -21.297  27.526  1.00  0.00    -0.071 Cl
HETATM   38 CL2  UNL     1      37.081 -20.727  26.472  1.00  0.00    -0.071 Cl
ENDBRANCH  33  34
ENDBRANCH  32  33
ENDBRANCH  31  32
ENDBRANCH  28  31
ENDBRANCH  27  28
ENDBRANCH  24  27
ENDBRANCH  23  24
ENDBRANCH  20  23
BRANCH   4  39
HETATM   39  O3  UNL     1      40.604 -22.174  24.125  1.00  0.00    -0.371 OA
ATOM     40  H3  UNL     1      40.671 -22.577  24.983  1.00  0.00     0.212 HD
ENDBRANCH   4  39
BRANCH  13  41
HETATM   41  O6  UNL     1      33.603 -22.519  22.392  1.00  0.00    -0.383 OA
ATOM     42  H6  UNL     1      33.550 -21.629  22.066  1.00  0.00     0.211 HD
ENDBRANCH  13  41
BRANCH   8  43
HETATM   43  O4  UNL     1      37.798 -26.352  23.045  1.00  0.00    -0.392 OA
ATOM     44  H4  UNL     1      38.100 -26.960  23.709  1.00  0.00     0.210 HD
ENDBRANCH   8  43
TORSDOF 14
ENDMDL