MODEL 3
REMARK VINA RESULT: -7.616331282      3.705      6.435
REMARK  11 active torsions:
REMARK  status: ('A' for Active; 'I' for Inactive)
REMARK    1  A    between atoms: C3_3  and  C4_4
REMARK    2  A    between atoms: C4_4  and  O2_6
REMARK    3  A    between atoms: O2_6  and  C5_7
REMARK    4  A    between atoms: C5_7  and  C6_8
REMARK    5  A    between atoms: C6_8  and  C7_11
REMARK    6  A    between atoms: C7_11  and  O3_12
REMARK    7  A    between atoms: C7_11  and  C8_14
REMARK    8  A    between atoms: C8_14  and  O4_17
REMARK    9  A    between atoms: C11_19  and  O5_20
REMARK   10  A    between atoms: C25_36  and  C26_37
REMARK   11  A    between atoms: C26_37  and  C27_38
ROOT
HETATM    1  C1  UNL     1      43.743 -22.041  29.634  1.00  0.00     0.050 C
HETATM    2  C2  UNL     1      42.725 -22.968  29.238  1.00  0.00    -0.031 C
HETATM    3  C3  UNL     1      41.387 -22.679  29.476  1.00  0.00     0.075 C
HETATM    4  C11 UNL     1      40.243 -23.497  29.082  1.00  0.00     0.060 C
HETATM    5  C12 UNL     1      40.054 -24.926  28.930  1.00  0.00     0.070 C
HETATM    6  C13 UNL     1      40.465 -25.554  27.663  1.00  0.00    -0.004 C
HETATM    7  C14 UNL     1      39.256 -25.879  26.706  1.00  0.00     0.006 C
HETATM    8  C15 UNL     1      39.822 -25.444  25.328  1.00  0.00     0.010 C
HETATM    9  C16 UNL     1      41.096 -26.135  25.123  1.00  0.00    -0.034 C
HETATM   10  C17 UNL     1      40.708 -27.070  23.916  1.00  0.00     0.016 C
HETATM   11  C18 UNL     1      41.359 -27.233  26.187  1.00  0.00    -0.001 C
HETATM   12  C19 UNL     1      42.588 -27.810  25.628  1.00  0.00     0.006 C
HETATM   13  C20 UNL     1      43.264 -26.745  24.749  1.00  0.00     0.009 C
HETATM   14  C21 UNL     1      42.357 -25.531  24.745  1.00  0.00     0.028 C
HETATM   15  C22 UNL     1      42.908 -24.228  25.064  1.00  0.00     0.064 C
HETATM   16  C23 UNL     1      42.013 -23.149  24.382  1.00  0.00     0.046 C
HETATM   17  C24 UNL     1      44.204 -24.090  24.239  1.00  0.00     0.046 C
HETATM   18  O6  UNL     1      43.126 -23.668  26.256  1.00  0.00    -0.343 OA
HETATM   19  C25 UNL     1      43.768 -24.261  27.292  1.00  0.00     0.068 C
HETATM   20  C28 UNL     1      42.928 -24.286  28.532  1.00  0.00    -0.003 C
HETATM   21  C29 UNL     1      42.527 -25.413  29.082  1.00  0.00    -0.012 C
HETATM   22  C30 UNL     1      42.653 -26.742  28.320  1.00  0.00     0.033 C
HETATM   23  C31 UNL     1      41.286 -26.795  27.587  1.00  0.00    -0.002 C
ENDROOT
BRANCH   3  24
HETATM   24  C4  UNL     1      41.106 -21.430  30.131  1.00  0.00     0.296 C
HETATM   25  O1  UNL     1      40.810 -21.177  31.297  1.00  0.00    -0.259 OA
BRANCH  24  26
HETATM   26  O2  UNL     1      41.174 -20.269  29.306  1.00  0.00    -0.311 OA
BRANCH  26  27
HETATM   27  C5  UNL     1      40.018 -19.474  29.069  1.00  0.00     0.261 C
BRANCH  27  28
HETATM   28  C6  UNL     1      39.866 -19.183  27.613  1.00  0.00     0.293 C
HETATM   29  F1  UNL     1      40.057 -17.829  27.431  1.00  0.00    -0.201 F
HETATM   30  F2  UNL     1      40.953 -19.783  26.949  1.00  0.00    -0.201 F
BRANCH  28  31
HETATM   31  C7  UNL     1      38.646 -19.706  26.957  1.00  0.00     0.226 C
BRANCH  31  32
HETATM   32  O3  UNL     1      37.893 -20.515  27.803  1.00  0.00    -0.386 OA
ATOM     33  H3  UNL     1      38.267 -21.383  27.902  1.00  0.00     0.210 HD
ENDBRANCH  31  32
BRANCH  31  34
HETATM   34  C8  UNL     1      37.746 -18.722  26.297  1.00  0.00     0.082 C
HETATM   35  C9  UNL     1      37.304 -17.675  27.261  1.00  0.00     0.048 C
HETATM   36  C10 UNL     1      38.286 -18.156  25.011  1.00  0.00     0.048 C
BRANCH  34  37
HETATM   37  O4  UNL     1      36.577 -19.448  25.941  1.00  0.00    -0.388 OA
ATOM     38  H4  UNL     1      36.372 -19.184  25.051  1.00  0.00     0.210 HD
ENDBRANCH  34  37
ENDBRANCH  31  34
ENDBRANCH  28  31
ENDBRANCH  27  28
ENDBRANCH  26  27
ENDBRANCH  24  26
ENDBRANCH   3  24
BRANCH   4  39
HETATM   39  O5  UNL     1      39.623 -22.908  27.914  1.00  0.00    -0.364 OA
ATOM     40  H5  UNL     1      38.680 -22.902  28.033  1.00  0.00     0.217 HD
ENDBRANCH   4  39
BRANCH  19  41
HETATM   41  C26 UNL     1      45.227 -23.990  27.390  1.00  0.00     0.178 C
BRANCH  41  42
HETATM   42  C27 UNL     1      46.054 -24.633  28.407  1.00  0.00     0.178 C
HETATM   43  O7  UNL     1      46.154 -25.861  28.556  1.00  0.00    -0.648 OA
HETATM   44  O8  UNL     1      46.818 -23.863  29.315  1.00  0.00    -0.648 OA
ENDBRANCH  41  42
ENDBRANCH  19  41
TORSDOF 11
ENDMDL