MODEL 2
REMARK VINA RESULT: -8.371793500      1.168      1.506
REMARK  14 active torsions:
REMARK  status: ('A' for Active; 'I' for Inactive)
REMARK    1  A    between atoms: C2_2  and  N1_4
REMARK       I    between atoms: N1_4  and  C4_6
REMARK    2  A    between atoms: C4_6  and  C5_8
REMARK    3  A    between atoms: C5_8  and  C6_9
REMARK    4  A    between atoms: C6_9  and  O2_10
REMARK    5  A    between atoms: C6_9  and  O3_12
REMARK    6  A    between atoms: O3_12  and  C7_13
REMARK    7  A    between atoms: C8_14  and  O4_15
REMARK    8  A    between atoms: C12_20  and  O5_21
REMARK    9  A    between atoms: C14_24  and  O6_25
REMARK   10  A    between atoms: C19_32  and  C20_33
REMARK   11  A    between atoms: C20_33  and  C22_35
REMARK   12  A    between atoms: C22_35  and  O7_36
REMARK   13  A    between atoms: O7_36  and  C23_37
REMARK   14  A    between atoms: C23_37  and  C24_39
ROOT
HETATM    1  C7  UNL     1      40.940 -20.304  28.578  1.00  0.00     0.138 A
HETATM    2  C8  UNL     1      41.224 -20.637  27.307  1.00  0.00     0.102 A
HETATM    3  C9  UNL     1      40.645 -20.005  26.248  1.00  0.00     0.048 A
HETATM    4  C10 UNL     1      39.714 -18.970  26.404  1.00  0.00    -0.037 A
HETATM    5  C11 UNL     1      39.448 -18.658  27.719  1.00  0.00    -0.012 A
HETATM    6  C12 UNL     1      40.004 -19.264  28.822  1.00  0.00     0.108 A
HETATM    7  C13 UNL     1      38.509 -17.601  28.181  1.00  0.00     0.076 C
HETATM    8  C14 UNL     1      38.697 -16.349  27.319  1.00  0.00     0.157 C
HETATM    9  C15 UNL     1      37.864 -16.667  26.074  1.00  0.00     0.204 C
HETATM   10  F1  UNL     1      37.325 -15.428  25.695  1.00  0.00    -0.246 F
HETATM   11  C16 UNL     1      38.796 -17.094  25.039  1.00  0.00     0.035 C
HETATM   12  C17 UNL     1      38.147 -16.983  23.685  1.00  0.00     0.009 C
HETATM   13  C18 UNL     1      37.408 -18.288  23.576  1.00  0.00     0.007 C
HETATM   14  C19 UNL     1      38.349 -19.248  24.279  1.00  0.00     0.004 C
HETATM   15  C30 UNL     1      39.299 -18.509  25.100  1.00  0.00    -0.006 C
HETATM   16  C31 UNL     1      40.627 -18.408  24.286  1.00  0.00     0.021 C
ENDROOT
BRANCH  14  17
HETATM   17  C20 UNL     1      37.629 -20.462  24.779  1.00  0.00     0.011 C
HETATM   18  C21 UNL     1      36.690 -20.322  25.873  1.00  0.00     0.012 C
BRANCH  17  19
HETATM   19  C22 UNL     1      37.070 -21.174  23.575  1.00  0.00     0.183 C
BRANCH  19  20
HETATM   20  O7  UNL     1      35.903 -21.833  23.619  1.00  0.00    -0.317 OA
BRANCH  20  21
HETATM   21  C23 UNL     1      35.454 -23.102  23.567  1.00  0.00     0.293 C
HETATM   22  O8  UNL     1      34.370 -23.302  22.933  1.00  0.00    -0.259 OA
BRANCH  21  23
HETATM   23  C24 UNL     1      36.123 -24.243  24.183  1.00  0.00     0.042 A
HETATM   24  C25 UNL     1      37.208 -24.145  25.021  1.00  0.00     0.018 A
HETATM   25  C26 UNL     1      37.806 -25.260  25.557  1.00  0.00     0.004 A
HETATM   26  C27 UNL     1      37.341 -26.521  25.273  1.00  0.00     0.042 A
HETATM   27  C28 UNL     1      36.247 -26.634  24.429  1.00  0.00     0.117 A
HETATM   28  F2  UNL     1      35.795 -27.873  24.153  1.00  0.00    -0.206 F
HETATM   29  C29 UNL     1      35.659 -25.508  23.902  1.00  0.00     0.059 A
ENDBRANCH  21  23
ENDBRANCH  20  21
ENDBRANCH  19  20
ENDBRANCH  17  19
ENDBRANCH  14  17
BRANCH   2  30
HETATM   30  O4  UNL     1      42.149 -21.674  27.065  1.00  0.00    -0.358 OA
ATOM     31  H4  UNL     1      42.878 -21.511  26.478  1.00  0.00     0.217 HD
ENDBRANCH   2  30
BRANCH   6  32
HETATM   32  O5  UNL     1      39.752 -18.974  30.130  1.00  0.00    -0.357 OA
ATOM     33  H5  UNL     1      38.996 -18.424  30.301  1.00  0.00     0.217 HD
ENDBRANCH   6  32
BRANCH   8  34
HETATM   34  O6  UNL     1      40.056 -16.285  27.035  1.00  0.00    -0.392 OA
ATOM     35  H6  UNL     1      40.125 -16.323  26.088  1.00  0.00     0.210 HD
ENDBRANCH   8  34
BRANCH   1  36
HETATM   36  O3  UNL     1      41.502 -20.907  29.708  1.00  0.00    -0.314 OA
BRANCH  36  37
HETATM   37  C6  UNL     1      40.861 -21.933  30.436  1.00  0.00     0.272 C
BRANCH  37  38
HETATM   38  C5  UNL     1      41.680 -23.215  30.432  1.00  0.00     0.163 C
BRANCH  38  39
HETATM   39  C4  UNL     1      43.084 -22.827  30.127  1.00  0.00     0.222 C
HETATM   40  N1  UNL     1      43.846 -22.022  31.001  1.00  0.00    -0.357 N
ATOM     41  H1  UNL     1      43.429 -21.689  31.870  1.00  0.00     0.162 HD
HETATM   42  O1  UNL     1      43.620 -23.226  29.062  1.00  0.00    -0.273 OA
BRANCH  40  43
HETATM   43  C2  UNL     1      45.215 -21.663  30.679  1.00  0.00     0.076 C
HETATM   44  C1  UNL     1      45.306 -20.198  30.432  1.00  0.00     0.032 C
HETATM   45  C3  UNL     1      46.016 -22.022  31.932  1.00  0.00     0.032 C
ENDBRANCH  40  43
ENDBRANCH  38  39
ENDBRANCH  37  38
BRANCH  37  46
HETATM   46  O2  UNL     1      40.890 -21.537  31.812  1.00  0.00    -0.370 OA
ATOM     47  H2  UNL     1      40.196 -22.058  32.198  1.00  0.00     0.212 HD
ENDBRANCH  37  46
ENDBRANCH  36  37
ENDBRANCH   1  36
TORSDOF 14
ENDMDL