MODEL 1
REMARK VINA RESULT: -8.370168147      0.000      0.000
REMARK  13 active torsions:
REMARK  status: ('A' for Active; 'I' for Inactive)
REMARK    1  A    between atoms: C2_2  and  C3_3
REMARK    2  A    between atoms: C3_3  and  C4_4
REMARK    3  A    between atoms: C4_4  and  C5_5
REMARK    4  A    between atoms: C5_5  and  C6_6
REMARK    5  A    between atoms: C11_12  and  O1_13
REMARK    6  A    between atoms: O1_13  and  C12_14
REMARK    7  A    between atoms: C15_18  and  O2_19
REMARK    8  A    between atoms: C16_21  and  O3_22
REMARK    9  A    between atoms: C17_24  and  O4_25
REMARK   10  A    between atoms: C20_29  and  C21_30
REMARK   11  A    between atoms: C23_32  and  C24_33
REMARK   12  A    between atoms: C24_33  and  O5_34
REMARK   13  A    between atoms: C29_40  and  O6_41
ROOT
HETATM    1  C6  UNL     1      38.114 -18.788  27.846  1.00  0.00    -0.019 A
HETATM    2  C7  UNL     1      39.287 -18.935  28.615  1.00  0.00     0.047 A
HETATM    3  C8  UNL     1      40.128 -20.005  28.552  1.00  0.00     0.079 A
HETATM    4  C9  UNL     1      39.794 -21.014  27.678  1.00  0.00     0.017 A
HETATM    5  C10 UNL     1      38.674 -20.905  26.922  1.00  0.00     0.159 A
HETATM    6  F1  UNL     1      38.403 -22.034  26.183  1.00  0.00    -0.203 F
HETATM    7  C11 UNL     1      37.816 -19.798  26.975  1.00  0.00     0.115 A
HETATM    8  C18 UNL     1      40.716 -22.175  27.626  1.00  0.00     0.047 C
HETATM    9  C19 UNL     1      42.092 -21.509  27.375  1.00  0.00     0.043 C
HETATM   10  C20 UNL     1      42.455 -20.618  28.514  1.00  0.00     0.169 C
HETATM   11  O7  UNL     1      41.322 -20.192  29.274  1.00  0.00    -0.340 OA
ENDROOT
BRANCH  10  12
HETATM   12  C21 UNL     1      43.586 -21.116  29.294  1.00  0.00     0.012 A
HETATM   13  C22 UNL     1      44.939 -20.999  29.231  1.00  0.00     0.028 A
HETATM   14  C23 UNL     1      45.673 -21.586  30.185  1.00  0.00    -0.014 A
HETATM   15  C30 UNL     1      45.021 -22.275  31.175  1.00  0.00     0.060 A
HETATM   16  S1  UNL     1      43.374 -22.067  30.719  1.00  0.00    -0.103 SA
BRANCH  14  17
HETATM   17  C24 UNL     1      47.193 -21.539  30.208  1.00  0.00     0.113 C
HETATM   18  C25 UNL     1      47.822 -21.939  28.917  1.00  0.00     0.057 C
HETATM   19  C26 UNL     1      48.831 -22.730  29.732  1.00  0.00    -0.015 C
HETATM   20  C27 UNL     1      50.086 -21.929  30.047  1.00  0.00     0.018 C
HETATM   21  C28 UNL     1      49.158 -24.076  29.183  1.00  0.00     0.018 C
HETATM   22  C29 UNL     1      47.793 -22.755  30.844  1.00  0.00     0.165 C
BRANCH  17  23
HETATM   23  O5  UNL     1      47.724 -20.386  30.717  1.00  0.00    -0.382 OA
ATOM     24  H5  UNL     1      47.808 -19.675  30.092  1.00  0.00     0.211 HD
ENDBRANCH  17  23
BRANCH  22  25
HETATM   25  O6  UNL     1      48.395 -22.508  32.092  1.00  0.00    -0.391 OA
ATOM     26  H6  UNL     1      48.719 -23.290  32.524  1.00  0.00     0.210 HD
ENDBRANCH  22  25
ENDBRANCH  14  17
ENDBRANCH  10  12
BRANCH   1  27
HETATM   27  C5  UNL     1      37.283 -17.607  28.149  1.00  0.00     0.042 C
BRANCH  27  28
HETATM   28  C4  UNL     1      38.056 -16.308  28.055  1.00  0.00     0.005 C
BRANCH  28  29
HETATM   29  C3  UNL     1      37.382 -15.302  28.953  1.00  0.00    -0.000 C
BRANCH  29  30
HETATM   30  C2  UNL     1      35.920 -15.116  28.594  1.00  0.00    -0.005 C
HETATM   31  C1  UNL     1      35.719 -13.662  28.223  1.00  0.00     0.005 C
ENDBRANCH  29  30
ENDBRANCH  28  29
ENDBRANCH  27  28
ENDBRANCH   1  27
BRANCH   7  32
HETATM   32  O1  UNL     1      36.761 -19.815  26.128  1.00  0.00    -0.339 OA
BRANCH  32  33
HETATM   33  C12 UNL     1      36.664 -19.334  24.811  1.00  0.00     0.163 C
HETATM   34  C13 UNL     1      36.705 -20.451  23.808  1.00  0.00     0.075 C
HETATM   35  C14 UNL     1      36.580 -20.024  22.363  1.00  0.00     0.204 C
HETATM   36  F2  UNL     1      35.407 -20.441  21.769  1.00  0.00    -0.247 F
HETATM   37  C15 UNL     1      36.812 -18.590  22.110  1.00  0.00     0.183 C
HETATM   38  C16 UNL     1      37.917 -18.116  22.981  1.00  0.00     0.180 C
HETATM   39  C17 UNL     1      37.583 -18.228  24.460  1.00  0.00     0.179 C
BRANCH  37  40
HETATM   40  O2  UNL     1      35.657 -17.805  22.141  1.00  0.00    -0.390 OA
ATOM     41  H2  UNL     1      35.741 -16.968  21.700  1.00  0.00     0.210 HD
ENDBRANCH  37  40
BRANCH  38  42
HETATM   42  O3  UNL     1      39.055 -18.905  22.741  1.00  0.00    -0.390 OA
ATOM     43  H3  UNL     1      39.805 -18.499  23.161  1.00  0.00     0.210 HD
ENDBRANCH  38  42
BRANCH  39  44
HETATM   44  O4  UNL     1      36.995 -17.011  24.796  1.00  0.00    -0.390 OA
ATOM     45  H4  UNL     1      36.530 -16.665  24.043  1.00  0.00     0.210 HD
ENDBRANCH  39  44
ENDBRANCH  32  33
ENDBRANCH   7  32
TORSDOF 13
ENDMDL