MODEL 1
REMARK VINA RESULT: -8.274809236      0.000      0.000
REMARK  12 active torsions:
REMARK  status: ('A' for Active; 'I' for Inactive)
REMARK    1  A    between atoms: C2_2  and  C3_3
REMARK    2  A    between atoms: C4_5  and  O2_6
REMARK    3  A    between atoms: O2_6  and  C5_7
REMARK    4  A    between atoms: C11_13  and  C12_14
REMARK    5  A    between atoms: C13_15  and  C14_16
REMARK    6  A    between atoms: C18_20  and  O3_21
REMARK    7  A    between atoms: C23_27  and  N1_28
REMARK    8  A    between atoms: C24_30  and  O4_31
REMARK    9  A    between atoms: C28_35  and  C29_36
REMARK   10  A    between atoms: C29_36  and  O5_37
REMARK   11  A    between atoms: C30_39  and  O6_40
REMARK   12  A    between atoms: C31_42  and  O7_43
ROOT
HETATM    1  C5  UNL     1      38.206 -19.006  24.225  1.00  0.00     0.072 C
HETATM    2  C6  UNL     1      38.278 -20.012  25.406  1.00  0.00     0.039 C
HETATM    3  C7  UNL     1      38.449 -21.429  25.047  1.00  0.00     0.013 C
HETATM    4  C8  UNL     1      37.224 -22.111  24.560  1.00  0.00     0.026 C
HETATM    5  C9  UNL     1      37.182 -23.578  24.707  1.00  0.00    -0.044 A
HETATM    6  C10 UNL     1      38.124 -24.340  25.293  1.00  0.00     0.019 A
HETATM    7  C11 UNL     1      37.958 -25.723  25.367  1.00  0.00    -0.033 A
HETATM    8  C17 UNL     1      36.840 -26.326  24.846  1.00  0.00     0.048 A
HETATM    9  C18 UNL     1      35.861 -25.541  24.236  1.00  0.00     0.073 A
HETATM   10  C19 UNL     1      36.036 -24.178  24.170  1.00  0.00    -0.018 A
HETATM   11  C20 UNL     1      34.954 -23.414  23.500  1.00  0.00     0.042 C
HETATM   12  C21 UNL     1      35.359 -22.034  23.067  1.00  0.00     0.012 C
HETATM   13  C22 UNL     1      36.875 -21.834  23.138  1.00  0.00     0.023 C
HETATM   14  C23 UNL     1      37.242 -20.517  22.591  1.00  0.00     0.044 C
HETATM   15  C26 UNL     1      38.688 -20.331  22.236  1.00  0.00     0.035 C
HETATM   16  C27 UNL     1      39.271 -19.400  23.277  1.00  0.00     0.041 C
HETATM   17  C28 UNL     1      36.926 -19.346  23.503  1.00  0.00     0.072 C
ENDROOT
BRANCH   1  18
HETATM   18  O2  UNL     1      38.182 -17.862  24.811  1.00  0.00    -0.347 OA
BRANCH  18  19
HETATM   19  C4  UNL     1      37.513 -17.119  25.609  1.00  0.00     0.292 C
HETATM   20  O1  UNL     1      37.511 -17.678  26.879  1.00  0.00    -0.350 OA
HETATM   21  C3  UNL     1      37.030 -16.966  27.909  1.00  0.00     0.161 C
HETATM   22  C32 UNL     1      37.088 -15.485  27.852  1.00  0.00     0.230 C
HETATM   23  C31 UNL     1      37.206 -14.884  26.499  1.00  0.00     0.188 C
HETATM   24  F1  UNL     1      38.188 -15.038  28.599  1.00  0.00    -0.244 F
HETATM   25  C30 UNL     1      38.175 -15.708  25.694  1.00  0.00     0.205 C
BRANCH  21  26
HETATM   26  C2  UNL     1      37.540 -17.496  29.266  1.00  0.00     0.030 C
HETATM   27  C1  UNL     1      38.838 -18.250  29.077  1.00  0.00     0.007 C
ENDBRANCH  21  26
BRANCH  23  28
HETATM   28  O7  UNL     1      37.565 -13.539  26.542  1.00  0.00    -0.390 OA
ATOM     29  H7  UNL     1      36.941 -12.985  26.090  1.00  0.00     0.210 HD
ENDBRANCH  23  28
BRANCH  25  30
HETATM   30  O6  UNL     1      38.304 -15.152  24.455  1.00  0.00    -0.388 OA
ATOM     31  H6  UNL     1      39.206 -14.906  24.283  1.00  0.00     0.210 HD
ENDBRANCH  25  30
ENDBRANCH  18  19
ENDBRANCH   1  18
BRANCH  17  32
HETATM   32  C29 UNL     1      36.427 -18.259  22.569  1.00  0.00     0.174 C
BRANCH  32  33
HETATM   33  O5  UNL     1      35.124 -17.871  22.841  1.00  0.00    -0.400 OA
ATOM     34  H5  UNL     1      34.478 -18.401  22.389  1.00  0.00     0.209 HD
ENDBRANCH  32  33
ENDBRANCH  17  32
BRANCH  14  35
HETATM   35  N1  UNL     1      36.512 -20.397  21.312  1.00  0.00    -0.371 N
HETATM   36  C24 UNL     1      37.127 -20.778  20.253  1.00  0.00     0.221 C
ATOM     37  H1  UNL     1      35.562 -20.029  21.274  1.00  0.00     0.161 HD
BRANCH  36  38
HETATM   38  O4  UNL     1      36.466 -20.676  19.045  1.00  0.00    -0.352 OA
HETATM   39  C25 UNL     1      36.027 -19.405  18.616  1.00  0.00     0.210 C
ENDBRANCH  36  38
ENDBRANCH  14  35
BRANCH   7  40
HETATM   40  C12 UNL     1      38.997 -26.481  26.005  1.00  0.00     0.008 C
HETATM   41  C13 UNL     1      39.954 -25.925  26.695  1.00  0.00    -0.022 C
BRANCH  41  42
HETATM   42  C14 UNL     1      41.036 -26.713  27.359  1.00  0.00    -0.000 C
HETATM   43  C15 UNL     1      41.713 -27.626  26.395  1.00  0.00     0.013 C
HETATM   44  C16 UNL     1      40.523 -27.497  28.531  1.00  0.00     0.013 C
ENDBRANCH  41  42
ENDBRANCH   7  40
BRANCH   9  45
HETATM   45  O3  UNL     1      34.768 -26.228  23.739  1.00  0.00    -0.360 OA
ATOM     46  H3  UNL     1      33.993 -26.219  24.288  1.00  0.00     0.217 HD
ENDBRANCH   9  45
TORSDOF 12
ENDMDL