MODEL 1
REMARK VINA RESULT: -8.548559610      0.000      0.000
REMARK  13 active torsions:
REMARK  status: ('A' for Active; 'I' for Inactive)
REMARK    1  A    between atoms: N1_4  and  C4_5
REMARK    2  A    between atoms: C6_7  and  N2_8
REMARK    3  A    between atoms: N2_8  and  C7_10
REMARK    4  A    between atoms: C11_14  and  C12_15
REMARK    5  A    between atoms: C12_15  and  C13_17
REMARK    6  A    between atoms: C13_17  and  C14_18
REMARK    7  A    between atoms: C17_21  and  C18_22
REMARK    8  A    between atoms: C18_22  and  O2_23
REMARK    9  A    between atoms: C18_22  and  N3_25
REMARK   10  A    between atoms: N3_25  and  O3_27
REMARK   11  A    between atoms: C19_29  and  O4_30
REMARK   12  A    between atoms: C22_38  and  N6_39
REMARK   13  A    between atoms: N6_39  and  C23_41
ROOT
HETATM    1  C4  UNL     1      43.169 -21.073  28.282  1.00  0.00     0.123 C
HETATM    2  C5  UNL     1      42.974 -20.922  26.798  1.00  0.00     0.055 C
HETATM    3  C6  UNL     1      41.502 -21.306  27.113  1.00  0.00     0.109 C
HETATM    4  C19 UNL     1      42.160 -22.203  28.153  1.00  0.00     0.163 C
ENDROOT
BRANCH   1   5
HETATM    5  N1  UNL     1      44.441 -21.384  28.802  1.00  0.00    -0.335 N
HETATM    6  C3  UNL     1      45.547 -21.464  28.001  1.00  0.00     0.101 A
HETATM    7  C2  UNL     1      46.650 -21.779  28.752  1.00  0.00    -0.029 A
HETATM    8  C1  UNL     1      48.052 -21.968  28.305  1.00  0.00     0.050 C
HETATM    9  C29 UNL     1      46.225 -21.897  30.051  1.00  0.00     0.059 A
HETATM   10  C20 UNL     1      44.868 -21.647  30.027  1.00  0.00     0.123 A
HETATM   11  C22 UNL     1      46.908 -22.199  31.226  1.00  0.00     0.121 A
HETATM   12  N4  UNL     1      44.220 -21.708  31.203  1.00  0.00    -0.338 N
HETATM   13  C21 UNL     1      44.879 -22.000  32.337  1.00  0.00     0.183 A
ATOM     14  H4  UNL     1      43.216 -21.531  31.235  1.00  0.00     0.168 HD
HETATM   15  N5  UNL     1      46.217 -22.247  32.375  1.00  0.00    -0.338 N
ATOM     16  H5  UNL     1      46.683 -22.465  33.256  1.00  0.00     0.168 HD
BRANCH  11  17
HETATM   17  N6  UNL     1      48.148 -22.415  31.153  1.00  0.00    -0.342 N
ATOM     18  H6  UNL     1      48.422 -23.175  30.530  1.00  0.00     0.167 HD
BRANCH  17  19
HETATM   19  C23 UNL     1      49.202 -21.766  31.799  1.00  0.00     0.035 A
HETATM   20  C24 UNL     1      49.627 -20.555  31.266  1.00  0.00     0.032 A
HETATM   21  C25 UNL     1      50.663 -19.851  31.844  1.00  0.00     0.046 A
HETATM   22  C26 UNL     1      51.322 -20.323  32.981  1.00  0.00     0.138 A
HETATM   23  F1  UNL     1      52.341 -19.620  33.541  1.00  0.00    -0.204 F
HETATM   24  C27 UNL     1      50.903 -21.523  33.513  1.00  0.00     0.074 A
HETATM   25 CL1  UNL     1      51.713 -22.143  34.944  1.00  0.00    -0.081 Cl
HETATM   26  C28 UNL     1      49.866 -22.201  32.912  1.00  0.00     0.056 A
ENDBRANCH  17  19
ENDBRANCH  11  17
ENDBRANCH   1   5
BRANCH   4  27
HETATM   27  O4  UNL     1      42.659 -23.333  27.510  1.00  0.00    -0.391 OA
ATOM     28  H4  UNL     1      42.821 -23.208  26.582  1.00  0.00     0.210 HD
ENDBRANCH   4  27
BRANCH   3  29
HETATM   29  N2  UNL     1      40.858 -20.138  27.555  1.00  0.00    -0.410 N
ATOM     30  H2  UNL     1      41.068 -19.765  28.481  1.00  0.00     0.154 HD
BRANCH  29  31
HETATM   31  C7  UNL     1      39.918 -19.475  26.728  1.00  0.00     0.089 C
HETATM   32  C8  UNL     1      40.116 -19.602  25.252  1.00  0.00     0.026 C
HETATM   33  C9  UNL     1      40.834 -18.441  24.609  1.00  0.00     0.003 C
HETATM   34  C10 UNL     1      40.259 -17.136  25.029  1.00  0.00     0.013 C
HETATM   35  C11 UNL     1      39.078 -17.300  26.030  1.00  0.00     0.069 C
HETATM   36  C17 UNL     1      39.617 -18.048  27.200  1.00  0.00     0.095 C
BRANCH  35  37
HETATM   37  C12 UNL     1      38.589 -15.927  26.261  1.00  0.00     0.132 C
HETATM   38  O1  UNL     1      39.260 -14.943  26.199  1.00  0.00    -0.298 OA
BRANCH  37  39
HETATM   39  C13 UNL     1      37.131 -15.732  26.597  1.00  0.00     0.082 C
BRANCH  39  40
HETATM   40  C14 UNL     1      36.917 -14.940  27.847  1.00  0.00    -0.016 C
HETATM   41  C15 UNL     1      36.354 -13.586  27.412  1.00  0.00     0.010 C
HETATM   42  C16 UNL     1      35.964 -15.585  28.816  1.00  0.00     0.010 C
ENDBRANCH  39  40
ENDBRANCH  37  39
ENDBRANCH  35  37
BRANCH  36  43
HETATM   43  C18 UNL     1      38.687 -18.202  28.339  1.00  0.00     0.142 C
BRANCH  43  44
HETATM   44  O2  UNL     1      37.403 -18.687  28.164  1.00  0.00    -0.348 OA
ATOM     45  H2  UNL     1      36.986 -19.235  28.819  1.00  0.00     0.219 HD
ENDBRANCH  43  44
BRANCH  43  46
HETATM   46  N3  UNL     1      38.997 -17.902  29.565  1.00  0.00    -0.251 N
ATOM     47  H3  UNL     1      38.649 -17.020  29.941  1.00  0.00     0.196 HD
BRANCH  46  48
HETATM   48  O3  UNL     1      39.750 -18.682  30.377  1.00  0.00    -0.288 OA
ATOM     49  H3  UNL     1      39.777 -19.631  30.338  1.00  0.00     0.244 HD
ENDBRANCH  46  48
ENDBRANCH  43  46
ENDBRANCH  36  43
ENDBRANCH  29  31
ENDBRANCH   3  29
TORSDOF 13
ENDMDL