MODEL 2
REMARK VINA RESULT: -7.977981266      1.949      2.722
REMARK  10 active torsions:
REMARK  status: ('A' for Active; 'I' for Inactive)
REMARK    1  A    between atoms: N1_2  and  C2_5
REMARK    2  A    between atoms: C2_5  and  C3_6
REMARK    3  A    between atoms: C3_6  and  N2_7
REMARK    4  A    between atoms: N2_7  and  C4_10
REMARK    5  A    between atoms: C4_10  and  C5_11
REMARK    6  A    between atoms: C11_17  and  N3_18
REMARK       I    between atoms: N3_18  and  C12_20
REMARK    7  A    between atoms: C12_20  and  C13_22
REMARK    8  A    between atoms: C23_35  and  O3_36
REMARK    9  A    between atoms: C25_38  and  O4_39
REMARK   10  A    between atoms: C29_44  and  O5_45
ROOT
HETATM    1  C5  UNL     1      35.891 -22.720  23.847  1.00  0.00     0.040 C
HETATM    2  C6  UNL     1      36.943 -22.443  24.890  1.00  0.00     0.009 C
HETATM    3  C7  UNL     1      37.803 -21.239  24.606  1.00  0.00     0.001 C
HETATM    4  C8  UNL     1      39.160 -21.362  25.271  1.00  0.00     0.005 C
HETATM    5  C9  UNL     1      39.081 -21.912  26.646  1.00  0.00     0.044 C
HETATM    6  C10 UNL     1      40.392 -21.868  27.340  1.00  0.00     0.002 A
HETATM    7  C11 UNL     1      40.794 -20.626  27.853  1.00  0.00     0.044 A
HETATM    8  C17 UNL     1      42.004 -20.565  28.504  1.00  0.00     0.030 A
HETATM    9  C18 UNL     1      42.840 -21.676  28.676  1.00  0.00     0.005 A
HETATM   10  C19 UNL     1      42.401 -22.865  28.159  1.00  0.00     0.037 A
HETATM   11  C20 UNL     1      41.181 -23.009  27.481  1.00  0.00     0.077 A
HETATM   12  O2  UNL     1      40.826 -24.223  27.002  1.00  0.00    -0.343 OA
HETATM   13  C21 UNL     1      40.581 -24.802  25.783  1.00  0.00     0.156 C
HETATM   14  C22 UNL     1      41.845 -24.862  24.898  1.00  0.00     0.042 C
HETATM   15  C23 UNL     1      40.182 -26.259  26.022  1.00  0.00     0.178 C
HETATM   16  C25 UNL     1      38.766 -26.548  25.574  1.00  0.00     0.149 C
HETATM   17  C26 UNL     1      38.541 -26.334  24.113  1.00  0.00     0.034 C
HETATM   18  C27 UNL     1      37.219 -25.645  23.786  1.00  0.00     0.005 C
HETATM   19  C28 UNL     1      37.536 -24.439  22.967  1.00  0.00     0.032 C
HETATM   20  C29 UNL     1      36.412 -23.508  22.688  1.00  0.00     0.123 C
ENDROOT
BRANCH   1  21
HETATM   21  C4  UNL     1      35.343 -21.413  23.287  1.00  0.00     0.239 C
BRANCH  21  22
HETATM   22  N2  UNL     1      35.554 -21.371  21.861  1.00  0.00    -0.073 N
ATOM     23  H22 UNL     1      34.724 -21.706  21.370  1.00  0.00     0.277 HD
ATOM     24  H21 UNL     1      36.225 -22.087  21.581  1.00  0.00     0.277 HD
BRANCH  22  25
HETATM   25  C3  UNL     1      35.948 -20.098  21.352  1.00  0.00     0.259 C
BRANCH  25  26
HETATM   26  C2  UNL     1      35.227 -19.035  22.158  1.00  0.00     0.259 C
BRANCH  26  27
HETATM   27  N1  UNL     1      36.084 -17.949  22.514  1.00  0.00    -0.077 N
HETATM   28  C1  UNL     1      37.478 -18.259  22.385  1.00  0.00     0.267 C
ATOM     29  H12 UNL     1      35.873 -17.615  23.455  1.00  0.00     0.276 HD
ATOM     30  H11 UNL     1      35.848 -17.112  21.981  1.00  0.00     0.276 HD
ENDBRANCH  26  27
ENDBRANCH  25  26
ENDBRANCH  22  25
ENDBRANCH  21  22
ENDBRANCH   1  21
BRANCH  20  31
HETATM   31  O5  UNL     1      35.434 -24.190  22.015  1.00  0.00    -0.395 OA
ATOM     32  H5  UNL     1      35.552 -24.180  21.072  1.00  0.00     0.210 HD
ENDBRANCH  20  31
BRANCH  16  33
HETATM   33  O4  UNL     1      37.796 -25.916  26.304  1.00  0.00    -0.393 OA
ATOM     34  H4  UNL     1      36.912 -26.041  25.981  1.00  0.00     0.210 HD
ENDBRANCH  16  33
BRANCH   7  35
HETATM   35  N3  UNL     1      39.968 -19.485  27.734  1.00  0.00    -0.322 N
HETATM   36  C12 UNL     1      39.409 -18.663  28.700  1.00  0.00     0.256 C
HETATM   37  O1  UNL     1      39.573 -18.823  29.914  1.00  0.00    -0.267 OA
ATOM     38  H3  UNL     1      39.745 -19.222  26.775  1.00  0.00     0.169 HD
BRANCH  36  39
HETATM   39  C13 UNL     1      38.546 -17.491  28.305  1.00  0.00     0.041 A
HETATM   40  C14 UNL     1      38.900 -16.670  27.266  1.00  0.00     0.068 A
HETATM   41  S1  UNL     1      37.636 -15.521  27.225  1.00  0.00    -0.089 SA
HETATM   42  C15 UNL     1      36.696 -16.108  28.518  1.00  0.00     0.075 A
HETATM   43 CL1  UNL     1      35.168 -15.493  29.179  1.00  0.00    -0.076 Cl
HETATM   44  C16 UNL     1      37.406 -17.196  28.948  1.00  0.00     0.048 A
ENDBRANCH  36  39
ENDBRANCH   7  35
BRANCH  15  45
HETATM   45  O3  UNL     1      40.413 -26.593  27.329  1.00  0.00    -0.386 OA
HETATM   46  C24 UNL     1      41.168 -27.725  27.517  1.00  0.00     0.202 C
ENDBRANCH  15  45
TORSDOF 10
ENDMDL