MODEL 2
REMARK VINA RESULT: -8.980846260      4.213      9.487
REMARK  11 active torsions:
REMARK  status: ('A' for Active; 'I' for Inactive)
REMARK    1  A    between atoms: C2_2  and  C3_3
REMARK    2  A    between atoms: C5_5  and  O1_6
REMARK    3  A    between atoms: O1_6  and  C6_7
REMARK    4  A    between atoms: C6_7  and  C7_8
REMARK    5  A    between atoms: C7_8  and  C8_9
REMARK    6  A    between atoms: C8_9  and  N1_10
REMARK    7  A    between atoms: C14_17  and  C15_18
REMARK    8  A    between atoms: C18_23  and  C19_24
REMARK    9  A    between atoms: C22_27  and  C23_28
REMARK   10  A    between atoms: C27_34  and  C28_35
REMARK   11  A    between atoms: C28_35  and  O2_36
ROOT
HETATM    1  C3  UNL     1      39.426 -17.966  23.031  1.00  0.00    -0.007 A
HETATM    2  C4  UNL     1      38.095 -18.114  22.666  1.00  0.00     0.051 A
HETATM    3  C5  UNL     1      37.103 -18.393  23.595  1.00  0.00     0.109 A
HETATM    4  C13 UNL     1      37.415 -18.531  24.932  1.00  0.00     0.166 A
HETATM    5  F1  UNL     1      36.446 -18.803  25.850  1.00  0.00    -0.202 F
HETATM    6  C14 UNL     1      38.729 -18.390  25.334  1.00  0.00     0.088 A
HETATM    7  C29 UNL     1      39.686 -18.114  24.373  1.00  0.00     0.140 A
HETATM    8  F2  UNL     1      40.949 -18.006  24.832  1.00  0.00    -0.204 F
ENDROOT
BRANCH   6   9
HETATM    9  C15 UNL     1      39.075 -18.538  26.743  1.00  0.00     0.122 A
HETATM   10  N2  UNL     1      38.596 -17.598  27.601  1.00  0.00    -0.351 N
HETATM   11  C16 UNL     1      38.837 -17.614  28.920  1.00  0.00     0.092 A
ATOM     12  H2  UNL     1      38.025 -16.842  27.223  1.00  0.00     0.166 HD
HETATM   13  C17 UNL     1      39.615 -18.649  29.406  1.00  0.00     0.049 A
HETATM   14  C18 UNL     1      40.119 -19.621  28.564  1.00  0.00     0.069 A
HETATM   15  N4  UNL     1      39.820 -19.518  27.252  1.00  0.00    -0.339 N
ATOM     16  H4  UNL     1      40.184 -20.227  26.616  1.00  0.00     0.167 HD
BRANCH  14  17
HETATM   17  C19 UNL     1      40.941 -20.717  29.080  1.00  0.00     0.102 A
HETATM   18  C20 UNL     1      40.507 -22.004  29.325  1.00  0.00     0.042 A
HETATM   19  C21 UNL     1      41.637 -22.678  29.802  1.00  0.00     0.036 A
HETATM   20  C22 UNL     1      42.681 -21.780  29.824  1.00  0.00     0.058 A
HETATM   21  O3  UNL     1      42.203 -20.618  29.379  1.00  0.00    -0.312 OA
BRANCH  20  22
HETATM   22  C23 UNL     1      44.077 -22.056  30.261  1.00  0.00     0.052 C
HETATM   23  C24 UNL     1      44.861 -22.324  28.998  1.00  0.00     0.031 C
HETATM   24  C25 UNL     1      45.331 -21.018  28.386  1.00  0.00     0.114 C
HETATM   25  N3  UNL     1      46.272 -20.456  29.300  1.00  0.00    -0.421 N
HETATM   26  C26 UNL     1      45.824 -20.255  30.631  1.00  0.00     0.121 C
ATOM     27  H3  UNL     1      47.219 -20.211  29.011  1.00  0.00     0.153 HD
HETATM   28  C27 UNL     1      44.620 -20.951  31.092  1.00  0.00     0.037 C
BRANCH  28  29
HETATM   29  C28 UNL     1      44.896 -21.513  32.494  1.00  0.00     0.171 C
BRANCH  29  30
HETATM   30  O2  UNL     1      44.878 -22.902  32.498  1.00  0.00    -0.400 OA
ATOM     31  H2  UNL     1      44.759 -23.247  33.376  1.00  0.00     0.209 HD
ENDBRANCH  29  30
ENDBRANCH  28  29
ENDBRANCH  20  22
ENDBRANCH  14  17
ENDBRANCH   6   9
BRANCH   3  32
HETATM   32  O1  UNL     1      35.778 -18.539  23.220  1.00  0.00    -0.348 OA
BRANCH  32  33
HETATM   33  C6  UNL     1      35.417 -19.630  22.394  1.00  0.00     0.177 C
BRANCH  33  34
HETATM   34  C7  UNL     1      34.808 -20.748  23.223  1.00  0.00     0.057 C
BRANCH  34  35
HETATM   35  C8  UNL     1      35.752 -21.901  23.389  1.00  0.00     0.274 C
BRANCH  35  36
HETATM   36  N1  UNL     1      35.510 -22.689  24.558  1.00  0.00     0.088 N
HETATM   37  C9  UNL     1      36.322 -23.888  24.620  1.00  0.00     0.272 C
HETATM   38  C10 UNL     1      37.597 -23.493  25.329  1.00  0.00     0.032 C
HETATM   39  C11 UNL     1      37.384 -22.079  25.759  1.00  0.00     0.032 C
HETATM   40  C12 UNL     1      35.891 -21.913  25.722  1.00  0.00     0.272 C
ENDBRANCH  35  36
ENDBRANCH  34  35
ENDBRANCH  33  34
ENDBRANCH  32  33
ENDBRANCH   3  32
BRANCH   1  41
HETATM   41  C2  UNL     1      40.475 -17.637  22.018  1.00  0.00    -0.012 C
HETATM   42  C1  UNL     1      41.482 -18.761  21.913  1.00  0.00     0.020 C
HETATM   43  C30 UNL     1      39.754 -17.505  20.677  1.00  0.00     0.024 C
HETATM   44  C31 UNL     1      40.666 -17.381  19.506  1.00  0.00     0.075 C
HETATM   45  S1  UNL     1      42.201 -16.497  19.821  1.00  0.00    -0.169 SA
HETATM   46  C32 UNL     1      42.444 -16.189  21.570  1.00  0.00     0.075 C
HETATM   47  C33 UNL     1      41.164 -16.358  22.357  1.00  0.00     0.024 C
ENDBRANCH   1  41
TORSDOF 11
ENDMDL