MODEL 5
REMARK VINA RESULT: -7.582295102      1.636      2.857
REMARK  14 active torsions:
REMARK  status: ('A' for Active; 'I' for Inactive)
REMARK    1  A    between atoms: O1_2  and  C2_3
REMARK    2  A    between atoms: C5_6  and  N1_7
REMARK    3  A    between atoms: N1_7  and  C6_9
REMARK    4  A    between atoms: C7_12  and  O2_13
REMARK    5  A    between atoms: O2_13  and  C8_14
REMARK    6  A    between atoms: C8_14  and  C9_15
REMARK    7  A    between atoms: C9_15  and  C10_16
REMARK    8  A    between atoms: C10_16  and  N3_17
REMARK    9  A    between atoms: C14_23  and  N5_24
REMARK   10  A    between atoms: C17_33  and  O3_34
REMARK   11  A    between atoms: O3_34  and  C18_35
REMARK   12  A    between atoms: C18_35  and  C19_36
REMARK   13  A    between atoms: C24_43  and  C25_44
REMARK   14  A    between atoms: C25_44  and  C28_47
ROOT
HETATM    1  N1  UNL     1      37.233 -18.476  26.984  1.00  0.00    -0.338 N
ATOM      2  H1  UNL     1      36.252 -18.755  26.966  1.00  0.00     0.167 HD
ENDROOT
BRANCH   1   3
HETATM    3  C5  UNL     1      38.075 -19.482  27.429  1.00  0.00     0.067 A
HETATM    4  C4  UNL     1      38.945 -19.366  28.487  1.00  0.00     0.035 A
HETATM    5  C3  UNL     1      39.770 -20.400  28.849  1.00  0.00     0.039 A
HETATM    6  C2  UNL     1      39.729 -21.593  28.131  1.00  0.00     0.070 A
HETATM    7  C32 UNL     1      38.881 -21.754  27.074  1.00  0.00     0.075 A
HETATM    8  C17 UNL     1      38.034 -20.703  26.698  1.00  0.00     0.098 A
BRANCH   6   9
HETATM    9  O1  UNL     1      40.561 -22.632  28.499  1.00  0.00    -0.356 OA
HETATM   10  C1  UNL     1      40.691 -22.977  29.846  1.00  0.00     0.210 C
ENDBRANCH   6   9
BRANCH   8  11
HETATM   11  O3  UNL     1      37.207 -20.827  25.693  1.00  0.00    -0.348 OA
BRANCH  11  12
HETATM   12  C18 UNL     1      36.399 -20.949  24.709  1.00  0.00     0.180 C
BRANCH  12  13
HETATM   13  C19 UNL     1      36.870 -21.617  23.396  1.00  0.00     0.015 C
HETATM   14  C20 UNL     1      36.993 -23.075  23.656  1.00  0.00     0.013 C
HETATM   15  C21 UNL     1      35.661 -23.756  23.874  1.00  0.00     0.079 C
HETATM   16  C22 UNL     1      34.742 -23.446  22.742  1.00  0.00     0.244 C
HETATM   17  F1  UNL     1      34.492 -24.656  22.078  1.00  0.00    -0.206 F
HETATM   18  F2  UNL     1      33.518 -22.960  23.127  1.00  0.00    -0.206 F
HETATM   19  C23 UNL     1      35.392 -22.556  21.668  1.00  0.00     0.084 C
HETATM   20  C24 UNL     1      35.922 -21.296  22.255  1.00  0.00     0.006 C
BRANCH  20  21
HETATM   21  C25 UNL     1      36.559 -20.366  21.298  1.00  0.00    -0.037 C
HETATM   22  C26 UNL     1      36.446 -20.956  19.889  1.00  0.00     0.016 C
HETATM   23  C27 UNL     1      38.050 -20.256  21.579  1.00  0.00     0.016 C
BRANCH  21  24
HETATM   24  C28 UNL     1      36.037 -18.978  21.215  1.00  0.00    -0.044 C
HETATM   25  C29 UNL     1      34.852 -18.688  22.099  1.00  0.00     0.015 C
HETATM   26  C30 UNL     1      35.773 -18.433  19.853  1.00  0.00     0.015 C
HETATM   27  C31 UNL     1      37.153 -18.078  21.803  1.00  0.00     0.015 C
ENDBRANCH  21  24
ENDBRANCH  20  21
ENDBRANCH  12  13
ENDBRANCH  11  12
ENDBRANCH   8  11
ENDBRANCH   1   3
BRANCH   1  28
HETATM   28  C6  UNL     1      37.413 -17.299  26.598  1.00  0.00     0.138 A
HETATM   29  N2  UNL     1      38.146 -17.080  25.468  1.00  0.00    -0.306 N
HETATM   30  C7  UNL     1      38.397 -15.854  24.977  1.00  0.00     0.225 A
ATOM     31  H2  UNL     1      38.522 -17.887  24.970  1.00  0.00     0.171 HD
HETATM   32  N4  UNL     1      37.885 -14.818  25.661  1.00  0.00    -0.317 N
HETATM   33  C13 UNL     1      37.148 -14.960  26.791  1.00  0.00     0.110 A
ATOM     34  H4  UNL     1      38.059 -13.875  25.313  1.00  0.00     0.169 HD
HETATM   35  C14 UNL     1      36.644 -13.857  27.452  1.00  0.00     0.129 A
HETATM   36  C16 UNL     1      36.892 -16.211  27.290  1.00  0.00     0.108 A
HETATM   37  N6  UNL     1      35.919 -14.057  28.563  1.00  0.00    -0.337 N
HETATM   38  C15 UNL     1      35.686 -15.302  29.028  1.00  0.00     0.182 A
ATOM     39  H6  UNL     1      35.538 -13.255  29.065  1.00  0.00     0.168 HD
HETATM   40  N7  UNL     1      36.163 -16.386  28.407  1.00  0.00    -0.347 N
ATOM     41  H7  UNL     1      35.978 -17.321  28.770  1.00  0.00     0.167 HD
BRANCH  30  42
HETATM   42  O2  UNL     1      39.150 -15.737  23.823  1.00  0.00    -0.322 OA
BRANCH  42  43
HETATM   43  C8  UNL     1      40.534 -15.724  23.837  1.00  0.00     0.180 C
BRANCH  43  44
HETATM   44  C9  UNL     1      41.208 -16.398  22.666  1.00  0.00     0.057 C
BRANCH  44  45
HETATM   45  C10 UNL     1      40.649 -17.807  22.564  1.00  0.00     0.273 C
BRANCH  45  46
HETATM   46  N3  UNL     1      41.424 -18.706  23.404  1.00  0.00     0.080 N
HETATM   47  C11 UNL     1      40.543 -19.404  24.311  1.00  0.00     0.309 C
HETATM   48  C12 UNL     1      42.055 -19.707  22.559  1.00  0.00     0.309 C
ENDBRANCH  45  46
ENDBRANCH  44  45
ENDBRANCH  43  44
ENDBRANCH  42  43
ENDBRANCH  30  42
BRANCH  35  49
HETATM   49  N5  UNL     1      36.894 -12.686  26.973  1.00  0.00    -0.384 N
ATOM     50  H52 UNL     1      36.207 -12.135  26.458  1.00  0.00     0.157 HD
ATOM     51  H51 UNL     1      37.822 -12.289  27.116  1.00  0.00     0.157 HD
ENDBRANCH  35  49
ENDBRANCH   1  28
TORSDOF 14
ENDMDL