MODEL 3
REMARK VINA RESULT: -7.593271015      4.106      7.990
REMARK  14 active torsions:
REMARK  status: ('A' for Active; 'I' for Inactive)
REMARK    1  A    between atoms: C3_3  and  C4_4
REMARK    2  A    between atoms: C3_3  and  C13_15
REMARK    3  A    between atoms: C4_4  and  C5_5
REMARK    4  A    between atoms: C5_5  and  C6_6
REMARK    5  A    between atoms: C6_6  and  N1_7
REMARK    6  A    between atoms: N2_10  and  C9_11
REMARK    7  A    between atoms: C14_16  and  C15_17
REMARK    8  A    between atoms: C15_17  and  N3_18
REMARK    9  A    between atoms: N3_18  and  C16_19
REMARK   10  A    between atoms: N3_18  and  C18_21
REMARK   11  A    between atoms: C18_21  and  C19_22
REMARK   12  A    between atoms: C25_30  and  O1_31
REMARK   13  A    between atoms: C28_36  and  O3_37
REMARK   14  A    between atoms: C30_40  and  O4_41
ROOT
HETATM    1  C13 UNL     1      39.051 -19.000  27.160  1.00  0.00     0.019 A
HETATM    2  C14 UNL     1      38.337 -18.535  26.047  1.00  0.00     0.003 A
HETATM    3  C25 UNL     1      37.491 -17.443  26.143  1.00  0.00     0.087 A
HETATM    4  C26 UNL     1      37.364 -16.805  27.381  1.00  0.00     0.038 A
HETATM    5  C27 UNL     1      36.617 -15.685  27.791  1.00  0.00     0.160 A
HETATM    6  O2  UNL     1      36.863 -15.522  29.026  1.00  0.00    -0.299 OA
HETATM    7  C28 UNL     1      37.689 -16.386  29.521  1.00  0.00     0.197 A
HETATM    8  C29 UNL     1      38.053 -17.237  28.515  1.00  0.00     0.071 A
HETATM    9  C30 UNL     1      38.896 -18.351  28.356  1.00  0.00     0.093 A
ENDROOT
BRANCH   1  10
HETATM   10  C3  UNL     1      39.819 -20.251  27.112  1.00  0.00    -0.019 C
HETATM   11  C2  UNL     1      41.039 -20.497  26.737  1.00  0.00    -0.018 C
HETATM   12  C1  UNL     1      42.095 -19.744  26.104  1.00  0.00     0.037 C
BRANCH  10  13
HETATM   13  C4  UNL     1      39.110 -21.396  27.727  1.00  0.00     0.064 C
BRANCH  13  14
HETATM   14  C5  UNL     1      39.654 -22.358  28.437  1.00  0.00    -0.125 C
BRANCH  14  15
HETATM   15  C6  UNL     1      40.347 -23.247  29.209  1.00  0.00     0.357 C
BRANCH  15  16
HETATM   16  N1  UNL     1      41.639 -23.044  29.787  1.00  0.00     0.102 N
HETATM   17  C7  UNL     1      42.743 -23.412  28.924  1.00  0.00     0.303 C
HETATM   18  C8  UNL     1      43.674 -22.366  28.494  1.00  0.00     0.302 C
HETATM   19  N2  UNL     1      43.922 -21.281  29.434  1.00  0.00     0.091 N
HETATM   20  C11 UNL     1      43.374 -21.605  30.747  1.00  0.00     0.302 C
HETATM   21  C12 UNL     1      41.862 -21.802  30.463  1.00  0.00     0.303 C
BRANCH  19  22
HETATM   22  C9  UNL     1      45.252 -20.812  29.444  1.00  0.00     0.268 C
HETATM   23  C10 UNL     1      45.556 -19.946  30.658  1.00  0.00     0.037 C
ENDBRANCH  19  22
ENDBRANCH  15  16
ENDBRANCH  14  15
ENDBRANCH  13  14
ENDBRANCH  10  13
ENDBRANCH   1  10
BRANCH   2  24
HETATM   24  C15 UNL     1      38.754 -19.005  24.760  1.00  0.00     0.137 C
BRANCH  24  25
HETATM   25  N3  UNL     1      38.449 -20.417  24.363  1.00  0.00    -0.288 NA
BRANCH  25  26
HETATM   26  C16 UNL     1      38.874 -20.481  22.957  1.00  0.00     0.090 C
HETATM   27  C17 UNL     1      38.975 -19.260  22.159  1.00  0.00     0.021 C
ENDBRANCH  25  26
BRANCH  25  28
HETATM   28  C18 UNL     1      36.989 -20.437  24.526  1.00  0.00     0.072 C
BRANCH  28  29
HETATM   29  C19 UNL     1      36.195 -21.584  24.164  1.00  0.00    -0.008 A
HETATM   30  C20 UNL     1      36.349 -22.789  24.785  1.00  0.00     0.017 A
HETATM   31  C21 UNL     1      35.558 -23.885  24.449  1.00  0.00     0.043 A
HETATM   32  C22 UNL     1      34.604 -23.721  23.467  1.00  0.00     0.117 A
HETATM   33  F1  UNL     1      33.844 -24.763  23.062  1.00  0.00    -0.206 F
HETATM   34  C23 UNL     1      34.437 -22.459  22.818  1.00  0.00     0.062 A
HETATM   35  C24 UNL     1      35.221 -21.455  23.174  1.00  0.00     0.025 A
HETATM   36 BR1  UNL     1      35.135 -19.708  22.345  1.00  0.00    -0.050 Br
ENDBRANCH  28  29
ENDBRANCH  25  28
ENDBRANCH  24  25
ENDBRANCH   2  24
BRANCH   9  37
HETATM   37  O4  UNL     1      39.568 -18.746  29.494  1.00  0.00    -0.359 OA
ATOM     38  H4  UNL     1      39.998 -18.122  30.067  1.00  0.00     0.217 HD
ENDBRANCH   9  37
BRANCH   3  39
HETATM   39  O1  UNL     1      36.757 -16.919  25.103  1.00  0.00    -0.359 OA
ATOM     40  H1  UNL     1      37.124 -16.557  24.305  1.00  0.00     0.217 HD
ENDBRANCH   3  39
BRANCH   7  41
HETATM   41  O3  UNL     1      38.148 -16.465  30.857  1.00  0.00    -0.340 OA
ATOM     42  H3  UNL     1      38.754 -17.100  31.220  1.00  0.00     0.220 HD
ENDBRANCH   7  41
TORSDOF 14
ENDMDL