MODEL 3
REMARK VINA RESULT: -8.572809983      1.121      1.690
REMARK  12 active torsions:
REMARK  status: ('A' for Active; 'I' for Inactive)
REMARK    1  A    between atoms: C2_2  and  C4_4
REMARK    2  A    between atoms: C4_4  and  N1_5
REMARK    3  A    between atoms: N1_5  and  C5_8
REMARK    4  A    between atoms: C5_8  and  C6_9
REMARK    5  A    between atoms: C8_11  and  O1_12
REMARK    6  A    between atoms: C9_14  and  C10_15
REMARK    7  A    between atoms: C11_16  and  C12_17
REMARK    8  A    between atoms: C16_23  and  N3_24
REMARK    9  A    between atoms: N4_33  and  C24_34
REMARK   10  A    between atoms: C24_34  and  C25_35
REMARK   11  A    between atoms: C25_35  and  N5_36
REMARK   12  A    between atoms: C30_42  and  N7_44
ROOT
HETATM    1  C12 UNL     1      40.318 -22.702  28.056  1.00  0.00     0.108 A
HETATM    2  N2  UNL     1      39.299 -22.712  27.170  1.00  0.00    -0.340 N
ATOM      3  H2  UNL     1      39.019 -23.511  26.602  1.00  0.00     0.167 HD
HETATM    4  C13 UNL     1      38.712 -21.510  27.153  1.00  0.00     0.064 A
HETATM    5  C14 UNL     1      37.645 -20.988  26.442  1.00  0.00     0.034 A
HETATM    6  C15 UNL     1      37.281 -19.680  26.662  1.00  0.00     0.035 A
HETATM    7  C16 UNL     1      37.959 -18.888  27.574  1.00  0.00     0.071 A
HETATM    8  C22 UNL     1      39.030 -19.446  28.272  1.00  0.00     0.172 A
HETATM    9  F1  UNL     1      39.711 -18.707  29.162  1.00  0.00    -0.201 F
HETATM   10  C23 UNL     1      39.399 -20.745  28.060  1.00  0.00     0.104 A
HETATM   11  N4  UNL     1      40.384 -21.481  28.613  1.00  0.00    -0.327 N
ENDROOT
BRANCH   1  12
HETATM   12  C11 UNL     1      41.165 -23.853  28.321  1.00  0.00     0.050 C
HETATM   13  C10 UNL     1      40.705 -25.068  28.195  1.00  0.00     0.025 C
BRANCH  13  14
HETATM   14  C9  UNL     1      41.597 -26.205  28.472  1.00  0.00     0.038 A
HETATM   15  C8  UNL     1      41.258 -27.491  28.791  1.00  0.00     0.083 A
HETATM   16  C7  UNL     1      42.252 -28.360  28.993  1.00  0.00     0.054 A
HETATM   17  C6  UNL     1      43.535 -27.889  28.859  1.00  0.00     0.011 A
HETATM   18  S1  UNL     1      43.300 -26.247  28.458  1.00  0.00    -0.090 SA
BRANCH  15  19
HETATM   19  O1  UNL     1      39.891 -27.855  28.898  1.00  0.00    -0.359 OA
ATOM     20  H1  UNL     1      39.286 -27.791  28.169  1.00  0.00     0.217 HD
ENDBRANCH  15  19
BRANCH  17  21
HETATM   21  C5  UNL     1      44.817 -28.669  29.033  1.00  0.00     0.278 C
BRANCH  21  22
HETATM   22  N1  UNL     1      44.789 -29.755  28.097  1.00  0.00    -0.070 N
ATOM     23  H12 UNL     1      43.874 -30.205  28.087  1.00  0.00     0.277 HD
ATOM     24  H11 UNL     1      45.354 -30.537  28.428  1.00  0.00     0.277 HD
BRANCH  22  25
HETATM   25  C4  UNL     1      45.180 -29.361  26.777  1.00  0.00     0.236 C
BRANCH  25  26
HETATM   26  C2  UNL     1      44.205 -29.942  25.782  1.00  0.00     0.003 C
HETATM   27  C1  UNL     1      43.372 -30.991  26.489  1.00  0.00     0.011 C
HETATM   28  C3  UNL     1      43.302 -28.803  25.317  1.00  0.00     0.011 C
ENDBRANCH  25  26
ENDBRANCH  22  25
ENDBRANCH  21  22
ENDBRANCH  17  21
ENDBRANCH  13  14
ENDBRANCH   1  12
BRANCH  11  29
HETATM   29  C24 UNL     1      41.310 -21.022  29.613  1.00  0.00     0.151 C
BRANCH  29  30
HETATM   30  C25 UNL     1      42.629 -20.769  28.943  1.00  0.00     0.147 C
BRANCH  30  31
HETATM   31  N5  UNL     1      43.788 -21.186  29.667  1.00  0.00    -0.368 N
HETATM   32  C26 UNL     1      44.821 -20.265  29.612  1.00  0.00     0.093 C
HETATM   33  C27 UNL     1      45.686 -20.161  30.842  1.00  0.00     0.316 C
HETATM   34  N6  UNL     1      46.573 -21.273  30.875  1.00  0.00     0.091 N
HETATM   35  C28 UNL     1      47.740 -21.130  30.038  1.00  0.00     0.310 C
HETATM   36  C29 UNL     1      45.986 -22.553  30.638  1.00  0.00     0.316 C
HETATM   37  C30 UNL     1      44.683 -22.727  31.377  1.00  0.00     0.178 C
HETATM   38  C31 UNL     1      44.395 -24.219  31.379  1.00  0.00     0.054 C
HETATM   39  C32 UNL     1      43.543 -21.976  30.774  1.00  0.00     0.103 C
BRANCH  37  40
HETATM   40  N7  UNL     1      44.898 -22.351  32.762  1.00  0.00    -0.064 N
ATOM     41  H73 UNL     1      45.887 -22.285  33.003  1.00  0.00     0.275 HD
ATOM     42  H72 UNL     1      44.647 -21.380  32.950  1.00  0.00     0.275 HD
ATOM     43  H71 UNL     1      44.391 -23.011  33.351  1.00  0.00     0.275 HD
ENDBRANCH  37  40
ENDBRANCH  30  31
ENDBRANCH  29  30
ENDBRANCH  11  29
BRANCH   7  44
HETATM   44  N3  UNL     1      37.609 -17.553  27.819  1.00  0.00    -0.378 N
HETATM   45  C17 UNL     1      36.865 -17.202  29.006  1.00  0.00     0.123 C
HETATM   46  C18 UNL     1      36.138 -15.888  28.746  1.00  0.00     0.020 C
HETATM   47  C19 UNL     1      37.168 -14.819  28.521  1.00  0.00     0.003 C
HETATM   48  C20 UNL     1      38.367 -15.278  27.731  1.00  0.00     0.020 C
HETATM   49  C21 UNL     1      37.987 -16.507  26.897  1.00  0.00     0.123 C
ENDBRANCH   7  44
TORSDOF 12
ENDMDL