MODEL 3
REMARK VINA RESULT: -7.514781910      0.070      1.956
REMARK  12 active torsions:
REMARK  status: ('A' for Active; 'I' for Inactive)
REMARK    1  A    between atoms: C2_2  and  S1_3
REMARK    2  A    between atoms: S1_3  and  N1_6
REMARK    3  A    between atoms: N1_6  and  C3_8
REMARK    4  A    between atoms: C5_10  and  N2_11
REMARK    5  A    between atoms: N2_11  and  C6_13
REMARK    6  A    between atoms: C7_16  and  C8_17
REMARK    7  A    between atoms: C12_23  and  N5_24
REMARK    8  A    between atoms: N5_24  and  C13_26
REMARK    9  A    between atoms: C17_30  and  C18_31
REMARK   10  A    between atoms: C20_33  and  O3_34
REMARK   11  A    between atoms: C22_36  and  O4_37
REMARK   12  A    between atoms: C24_39  and  O5_40
ROOT
HETATM    1  C6  UNL     1      39.175 -23.456  25.378  1.00  0.00     0.122 A
HETATM    2  N3  UNL     1      38.304 -24.191  24.694  1.00  0.00    -0.331 N
ATOM      3  H3  UNL     1      37.989 -23.841  23.790  1.00  0.00     0.168 HD
HETATM    4  C7  UNL     1      37.813 -25.367  25.120  1.00  0.00     0.092 A
HETATM    5  N4  UNL     1      38.257 -25.785  26.318  1.00  0.00    -0.331 N
ATOM      6  H4  UNL     1      37.903 -26.674  26.671  1.00  0.00     0.168 HD
HETATM    7  C12 UNL     1      39.137 -25.111  27.084  1.00  0.00     0.117 A
HETATM    8  C17 UNL     1      39.617 -23.900  26.600  1.00  0.00     0.062 A
ENDROOT
BRANCH   1   9
HETATM    9  N2  UNL     1      39.640 -22.323  24.942  1.00  0.00    -0.339 N
ATOM     10  H2  UNL     1      40.639 -22.201  24.777  1.00  0.00     0.167 HD
BRANCH   9  11
HETATM   11  C5  UNL     1      38.716 -21.239  24.696  1.00  0.00     0.075 A
HETATM   12  C4  UNL     1      38.237 -20.478  25.747  1.00  0.00     0.066 A
HETATM   13  C3  UNL     1      37.349 -19.454  25.558  1.00  0.00     0.083 A
HETATM   14  C29 UNL     1      36.934 -19.196  24.242  1.00  0.00     0.146 A
HETATM   15  C28 UNL     1      37.391 -19.932  23.176  1.00  0.00     0.089 A
HETATM   16  F2  UNL     1      36.056 -18.189  24.019  1.00  0.00    -0.204 F
HETATM   17  C27 UNL     1      38.283 -20.950  23.429  1.00  0.00     0.146 A
HETATM   18  F1  UNL     1      38.749 -21.684  22.361  1.00  0.00    -0.204 F
BRANCH  13  19
HETATM   19  N1  UNL     1      36.795 -18.639  26.583  1.00  0.00    -0.281 N
ATOM     20  H1  UNL     1      35.971 -18.990  27.072  1.00  0.00     0.178 HD
BRANCH  19  21
HETATM   21  S1  UNL     1      37.412 -17.109  27.053  1.00  0.00     0.230 S
HETATM   22  O1  UNL     1      36.902 -16.028  26.107  1.00  0.00    -0.206 OA
HETATM   23  O2  UNL     1      38.928 -17.101  26.970  1.00  0.00    -0.206 OA
BRANCH  21  24
HETATM   24  C2  UNL     1      36.986 -16.611  28.678  1.00  0.00     0.159 C
HETATM   25  C1  UNL     1      35.887 -15.587  28.749  1.00  0.00     0.023 C
ENDBRANCH  21  24
ENDBRANCH  19  21
ENDBRANCH  13  19
ENDBRANCH   9  11
ENDBRANCH   1   9
BRANCH   8  26
HETATM   26  C18 UNL     1      40.568 -23.141  27.434  1.00  0.00    -0.013 A
HETATM   27  C19 UNL     1      41.922 -23.370  27.399  1.00  0.00     0.052 A
HETATM   28  C20 UNL     1      42.809 -22.639  28.193  1.00  0.00     0.105 A
HETATM   29  C22 UNL     1      42.347 -21.656  29.043  1.00  0.00     0.135 A
HETATM   30  C24 UNL     1      40.991 -21.424  29.082  1.00  0.00     0.105 A
HETATM   31  C26 UNL     1      40.107 -22.156  28.288  1.00  0.00     0.052 A
BRANCH  28  32
HETATM   32  O3  UNL     1      44.180 -22.846  28.180  1.00  0.00    -0.353 OA
HETATM   33  C21 UNL     1      44.661 -24.136  28.500  1.00  0.00     0.210 C
ENDBRANCH  28  32
BRANCH  29  34
HETATM   34  O4  UNL     1      43.201 -20.931  29.822  1.00  0.00    -0.351 OA
HETATM   35  C23 UNL     1      43.826 -21.410  30.991  1.00  0.00     0.210 C
ENDBRANCH  29  34
BRANCH  30  36
HETATM   36  O5  UNL     1      40.548 -20.427  29.946  1.00  0.00    -0.353 OA
HETATM   37  C25 UNL     1      39.865 -19.328  29.357  1.00  0.00     0.210 C
ENDBRANCH  30  36
ENDBRANCH   8  26
BRANCH   4  38
HETATM   38  C8  UNL     1      36.835 -26.149  24.314  1.00  0.00     0.008 C
HETATM   39  C9  UNL     1      35.848 -25.169  23.699  1.00  0.00     0.022 C
HETATM   40  C10 UNL     1      36.142 -27.137  25.191  1.00  0.00     0.022 C
HETATM   41  C11 UNL     1      37.595 -26.897  23.240  1.00  0.00     0.022 C
ENDBRANCH   4  38
BRANCH   7  42
HETATM   42  N5  UNL     1      39.574 -25.607  28.346  1.00  0.00    -0.371 N
ATOM     43  H5  UNL     1      39.350 -25.108  29.207  1.00  0.00     0.161 HD
BRANCH  42  44
HETATM   44  C13 UNL     1      40.337 -26.824  28.381  1.00  0.00     0.083 C
HETATM   45  C14 UNL     1      41.584 -26.792  29.203  1.00  0.00     0.025 C
HETATM   46  C15 UNL     1      42.334 -27.428  28.054  1.00  0.00     0.004 C
HETATM   47  C16 UNL     1      41.196 -27.010  27.144  1.00  0.00     0.025 C
ENDBRANCH  42  44
ENDBRANCH   7  42
TORSDOF 12
ENDMDL