MODEL 2
REMARK VINA RESULT: -8.170038750      0.557      1.869
REMARK  13 active torsions:
REMARK  status: ('A' for Active; 'I' for Inactive)
REMARK    1  A    between atoms: C3_3  and  N1_4
REMARK    2  A    between atoms: N1_4  and  C4_5
REMARK    3  A    between atoms: N1_4  and  C8_9
REMARK    4  A    between atoms: C4_5  and  C5_6
REMARK    5  A    between atoms: C10_12  and  N2_13
REMARK    6  A    between atoms: N2_13  and  C11_14
REMARK    7  A    between atoms: N2_13  and  C18_26
REMARK    8  A    between atoms: C11_14  and  C12_15
REMARK    9  A    between atoms: C15_19  and  O1_20
REMARK   10  A    between atoms: C17_23  and  O2_24
REMARK   11  A    between atoms: C25_34  and  O3_35
REMARK   12  A    between atoms: C27_37  and  O4_38
REMARK   13  A    between atoms: C30_41  and  O5_42
ROOT
HETATM    1  C1  UNL     1      44.378 -21.229  28.649  1.00  0.00     0.018 C
HETATM    2  C2  UNL     1      43.585 -21.126  27.760  1.00  0.00    -0.072 C
HETATM    3  C3  UNL     1      42.647 -20.953  26.694  1.00  0.00     0.160 C
ENDROOT
BRANCH   3   4
HETATM    4  N1  UNL     1      41.285 -21.298  26.850  1.00  0.00    -0.325 N
BRANCH   4   5
HETATM    5  C4  UNL     1      40.677 -22.562  26.759  1.00  0.00     0.075 C
BRANCH   5   6
HETATM    6  C5  UNL     1      40.415 -23.469  27.875  1.00  0.00     0.025 A
HETATM    7  C6  UNL     1      41.281 -23.785  28.999  1.00  0.00     0.010 A
HETATM    8  C7  UNL     1      41.002 -24.843  27.934  1.00  0.00     0.010 A
ENDBRANCH   5   6
ENDBRANCH   4   5
BRANCH   4   9
HETATM    9  C8  UNL     1      40.383 -20.164  27.015  1.00  0.00     0.086 A
HETATM   10  C9  UNL     1      39.810 -19.648  25.854  1.00  0.00     0.171 A
HETATM   11  F1  UNL     1      40.131 -20.246  24.705  1.00  0.00    -0.201 F
HETATM   12  C10 UNL     1      38.940 -18.549  25.891  1.00  0.00     0.090 A
HETATM   13  C24 UNL     1      38.658 -17.986  27.072  1.00  0.00     0.044 A
HETATM   14  C25 UNL     1      37.896 -16.880  27.219  1.00  0.00     0.115 A
HETATM   15  C31 UNL     1      39.247 -18.511  28.263  1.00  0.00     0.021 A
HETATM   16  C27 UNL     1      37.679 -16.254  28.456  1.00  0.00     0.105 A
HETATM   17  C29 UNL     1      38.248 -16.770  29.570  1.00  0.00     0.077 A
HETATM   18  C30 UNL     1      39.032 -17.905  29.465  1.00  0.00     0.080 A
HETATM   19  C32 UNL     1      40.102 -19.600  28.215  1.00  0.00    -0.018 A
HETATM   20  C33 UNL     1      40.647 -20.128  29.491  1.00  0.00     0.052 C
BRANCH  12  21
HETATM   21  N2  UNL     1      38.467 -18.100  24.586  1.00  0.00    -0.348 N
BRANCH  21  22
HETATM   22  C11 UNL     1      37.083 -18.247  24.453  1.00  0.00     0.106 C
BRANCH  22  23
HETATM   23  C12 UNL     1      36.354 -19.392  24.044  1.00  0.00     0.014 A
HETATM   24  C13 UNL     1      36.344 -20.654  24.551  1.00  0.00     0.042 A
HETATM   25  C14 UNL     1      35.583 -21.698  23.999  1.00  0.00     0.068 A
HETATM   26 CL1  UNL     1      35.625 -23.304  24.724  1.00  0.00    -0.081 Cl
HETATM   27  C15 UNL     1      34.813 -21.467  22.908  1.00  0.00     0.090 A
HETATM   28  C16 UNL     1      34.790 -20.212  22.358  1.00  0.00     0.075 A
HETATM   29  C17 UNL     1      35.536 -19.196  22.904  1.00  0.00     0.080 A
BRANCH  27  30
HETATM   30  O1  UNL     1      34.040 -22.470  22.323  1.00  0.00    -0.359 OA
ATOM     31  H1  UNL     1      34.378 -23.026  21.631  1.00  0.00     0.217 HD
ENDBRANCH  27  30
BRANCH  29  32
HETATM   32  O2  UNL     1      35.447 -17.960  22.276  1.00  0.00    -0.360 OA
ATOM     33  H2  UNL     1      34.933 -17.251  22.644  1.00  0.00     0.217 HD
ENDBRANCH  29  32
ENDBRANCH  22  23
ENDBRANCH  21  22
BRANCH  21  34
HETATM   34  C18 UNL     1      39.488 -17.711  23.668  1.00  0.00     0.093 C
HETATM   35  C19 UNL     1      40.225 -16.454  24.142  1.00  0.00     0.056 C
HETATM   36  C20 UNL     1      40.286 -15.370  23.097  1.00  0.00     0.274 C
HETATM   37  N3  UNL     1      40.828 -15.875  21.854  1.00  0.00     0.084 N
HETATM   38  C21 UNL     1      40.827 -14.839  20.872  1.00  0.00     0.309 C
HETATM   39  C22 UNL     1      40.171 -17.050  21.388  1.00  0.00     0.274 C
HETATM   40  C23 UNL     1      38.951 -17.285  22.303  1.00  0.00     0.056 C
ENDBRANCH  21  34
ENDBRANCH  12  21
BRANCH  14  41
HETATM   41  O3  UNL     1      37.230 -16.254  26.144  1.00  0.00    -0.352 OA
HETATM   42  C26 UNL     1      37.788 -14.932  25.901  1.00  0.00     0.210 C
ENDBRANCH  14  41
BRANCH  16  43
HETATM   43  O4  UNL     1      36.887 -15.116  28.523  1.00  0.00    -0.353 OA
HETATM   44  C28 UNL     1      35.535 -15.242  28.899  1.00  0.00     0.210 C
ENDBRANCH  16  43
BRANCH  18  45
HETATM   45  O5  UNL     1      39.568 -18.358  30.640  1.00  0.00    -0.360 OA
ATOM     46  H5  UNL     1      40.346 -17.900  30.935  1.00  0.00     0.217 HD
ENDBRANCH  18  45
ENDBRANCH   4   9
ENDBRANCH   3   4
TORSDOF 13
ENDMDL