MODEL 1
REMARK VINA RESULT: -9.151500761      0.000      0.000
REMARK  12 active torsions:
REMARK  status: ('A' for Active; 'I' for Inactive)
REMARK    1  A    between atoms: N1_5  and  C5_6
REMARK    2  A    between atoms: C9_10  and  C10_11
REMARK    3  A    between atoms: C12_14  and  N2_15
REMARK    4  A    between atoms: N5_22  and  C13_23
REMARK    5  A    between atoms: C13_23  and  C14_24
REMARK    6  A    between atoms: C14_24  and  C15_25
REMARK    7  A    between atoms: C15_25  and  O1_26
REMARK    8  A    between atoms: C15_25  and  C16_28
REMARK    9  A    between atoms: C16_28  and  C17_29
REMARK   10  A    between atoms: C17_29  and  C18_30
REMARK   11  A    between atoms: C18_30  and  C19_31
REMARK   12  A    between atoms: C19_31  and  N6_32
ROOT
HETATM    1  C5  UNL     1      40.087 -19.201  28.261  1.00  0.00     0.040 A
HETATM    2  C6  UNL     1      39.555 -18.372  29.211  1.00  0.00     0.031 A
HETATM    3  C7  UNL     1      38.603 -17.389  28.947  1.00  0.00     0.018 A
HETATM    4  C8  UNL     1      38.165 -17.230  27.671  1.00  0.00     0.023 A
HETATM    5  C9  UNL     1      37.268 -16.377  27.115  1.00  0.00     0.088 A
HETATM    6  N4  UNL     1      37.265 -16.711  25.782  1.00  0.00    -0.295 N
ATOM      7  H4  UNL     1      36.690 -16.252  25.076  1.00  0.00     0.187 HD
HETATM    8  N5  UNL     1      38.086 -17.685  25.536  1.00  0.00    -0.291 N
HETATM    9  C24 UNL     1      38.695 -18.070  26.680  1.00  0.00     0.065 A
HETATM   10  C25 UNL     1      39.631 -19.027  26.977  1.00  0.00     0.062 A
ENDROOT
BRANCH   8  11
HETATM   11  C13 UNL     1      38.321 -18.303  24.238  1.00  0.00     0.152 C
BRANCH  11  12
HETATM   12  C14 UNL     1      37.257 -19.249  23.827  1.00  0.00     0.053 C
BRANCH  12  13
HETATM   13  C15 UNL     1      36.209 -18.817  22.899  1.00  0.00     0.119 C
BRANCH  13  14
HETATM   14  O1  UNL     1      35.535 -17.648  23.209  1.00  0.00    -0.396 OA
ATOM     15  H1  UNL     1      34.855 -17.369  22.607  1.00  0.00     0.210 HD
ENDBRANCH  13  14
BRANCH  13  16
HETATM   16  C16 UNL     1      35.330 -19.844  22.257  1.00  0.00     0.032 C
BRANCH  16  17
HETATM   17  C17 UNL     1      34.552 -20.718  23.147  1.00  0.00     0.004 C
BRANCH  17  18
HETATM   18  C18 UNL     1      34.914 -22.166  23.060  1.00  0.00     0.030 C
BRANCH  18  19
HETATM   19  C19 UNL     1      35.685 -22.748  24.175  1.00  0.00     0.272 C
BRANCH  19  20
HETATM   20  N6  UNL     1      35.374 -24.084  24.582  1.00  0.00     0.092 N
HETATM   21  C20 UNL     1      34.444 -24.616  23.577  1.00  0.00     0.298 C
HETATM   22  C21 UNL     1      34.698 -26.078  23.308  1.00  0.00     0.198 C
HETATM   23  O2  UNL     1      35.049 -26.673  24.530  1.00  0.00    -0.388 OA
HETATM   24  C22 UNL     1      36.367 -26.303  24.797  1.00  0.00     0.198 C
HETATM   25  C23 UNL     1      36.618 -24.853  24.523  1.00  0.00     0.298 C
ENDBRANCH  19  20
ENDBRANCH  18  19
ENDBRANCH  17  18
ENDBRANCH  16  17
ENDBRANCH  13  16
ENDBRANCH  12  13
ENDBRANCH  11  12
ENDBRANCH   8  11
BRANCH   5  26
HETATM   26  C10 UNL     1      36.435 -15.286  27.718  1.00  0.00     0.070 A
HETATM   27  C11 UNL     1      36.664 -13.960  27.541  1.00  0.00     0.085 A
HETATM   28  S1  UNL     1      35.395 -13.232  28.475  1.00  0.00    -0.064 SA
HETATM   29  C12 UNL     1      34.673 -14.654  29.018  1.00  0.00     0.142 A
HETATM   30  N3  UNL     1      35.399 -15.618  28.486  1.00  0.00    -0.335 N
ATOM     31  H3  UNL     1      35.172 -16.597  28.660  1.00  0.00     0.168 HD
BRANCH  29  32
HETATM   32  N2  UNL     1      33.617 -14.816  29.800  1.00  0.00    -0.380 N
ATOM     33  H22 UNL     1      33.390 -14.258  30.624  1.00  0.00     0.158 HD
ATOM     34  H21 UNL     1      32.861 -15.498  29.735  1.00  0.00     0.158 HD
ENDBRANCH  29  32
ENDBRANCH   5  26
BRANCH   1  35
HETATM   35  N1  UNL     1      41.064 -20.188  28.583  1.00  0.00    -0.332 N
HETATM   36  C4  UNL     1      42.244 -20.391  27.946  1.00  0.00     0.104 A
HETATM   37  C3  UNL     1      42.942 -21.435  28.532  1.00  0.00    -0.030 A
HETATM   38  C2  UNL     1      44.238 -22.097  28.286  1.00  0.00     0.024 C
HETATM   39  C27 UNL     1      42.154 -21.886  29.568  1.00  0.00    -0.030 A
HETATM   40  C1  UNL     1      44.073 -23.412  27.551  1.00  0.00     0.015 C
HETATM   41  C30 UNL     1      44.974 -22.357  29.570  1.00  0.00     0.045 C
HETATM   42  C29 UNL     1      44.106 -22.616  30.754  1.00  0.00     0.186 C
HETATM   43  C31 UNL     1      45.940 -21.209  29.792  1.00  0.00     0.015 C
HETATM   44  C28 UNL     1      42.693 -23.019  30.367  1.00  0.00     0.101 C
HETATM   45  F1  UNL     1      43.992 -21.451  31.526  1.00  0.00    -0.225 F
HETATM   46 CL1  UNL     1      44.784 -23.872  31.809  1.00  0.00    -0.082 Cl
HETATM   47  C26 UNL     1      41.028 -21.108  29.566  1.00  0.00     0.104 A
ENDBRANCH   1  35
TORSDOF 12
ENDMDL