MODEL 5
REMARK VINA RESULT: -7.753777812      1.804      2.864
REMARK  13 active torsions:
REMARK  status: ('A' for Active; 'I' for Inactive)
REMARK    1  A    between atoms: C2_2  and  C3_3
REMARK    2  A    between atoms: C4_4  and  O1_5
REMARK    3  A    between atoms: C8_10  and  O3_11
REMARK    4  A    between atoms: O3_11  and  C9_12
REMARK    5  A    between atoms: C9_12  and  C10_13
REMARK    6  A    between atoms: C11_14  and  O4_15
REMARK    7  A    between atoms: C11_14  and  S1_17
REMARK    8  A    between atoms: S1_17  and  C12_18
REMARK    9  A    between atoms: C12_18  and  C13_19
REMARK   10  A    between atoms: C14_21  and  C15_22
REMARK   11  A    between atoms: C15_22  and  C16_23
REMARK   12  A    between atoms: C27_36  and  O6_37
REMARK   13  A    between atoms: C28_39  and  O7_41
ROOT
HETATM    1  C10 UNL     1      35.841 -19.360  21.472  1.00  0.00     0.043 C
HETATM    2  C11 UNL     1      36.067 -18.540  22.506  1.00  0.00     0.101 C
ENDROOT
BRANCH   2   3
HETATM    3  O4  UNL     1      35.011 -17.714  22.842  1.00  0.00    -0.354 OA
ATOM      4  H4  UNL     1      35.258 -16.866  23.192  1.00  0.00     0.218 HD
ENDBRANCH   2   3
BRANCH   2   5
HETATM    5  S1  UNL     1      37.570 -18.498  23.378  1.00  0.00    -0.103 SA
BRANCH   5   6
HETATM    6  C12 UNL     1      37.568 -18.734  25.133  1.00  0.00     0.118 C
BRANCH   6   7
HETATM    7  C13 UNL     1      38.634 -18.022  25.919  1.00  0.00     0.161 C
HETATM    8  O5  UNL     1      38.199 -16.834  26.387  1.00  0.00    -0.375 OA
HETATM    9  C14 UNL     1      37.693 -16.754  27.644  1.00  0.00     0.129 C
HETATM   10  C18 UNL     1      38.667 -17.201  28.683  1.00  0.00     0.066 C
HETATM   11  C19 UNL     1      39.309 -18.462  28.220  1.00  0.00    -0.072 C
HETATM   12  C20 UNL     1      39.297 -18.843  26.952  1.00  0.00    -0.040 C
HETATM   13  C26 UNL     1      39.947 -19.249  29.321  1.00  0.00     0.034 C
HETATM   14  C21 UNL     1      40.007 -20.121  26.648  1.00  0.00    -0.021 C
HETATM   15  C22 UNL     1      39.139 -21.255  27.131  1.00  0.00     0.019 C
HETATM   16  C23 UNL     1      40.352 -20.340  25.225  1.00  0.00     0.019 C
HETATM   17  C24 UNL     1      41.338 -20.058  27.414  1.00  0.00     0.013 C
HETATM   18  C25 UNL     1      40.981 -20.220  28.860  1.00  0.00     0.005 C
BRANCH   9  19
HETATM   19  C15 UNL     1      37.327 -15.320  27.987  1.00  0.00     0.062 C
BRANCH  19  20
HETATM   20  C16 UNL     1      36.095 -15.355  28.820  1.00  0.00     0.012 C
HETATM   21  C17 UNL     1      35.169 -14.415  28.765  1.00  0.00     0.099 C
HETATM   22 CL1  UNL     1      33.746 -14.507  29.762  1.00  0.00    -0.071 Cl
HETATM   23 CL2  UNL     1      35.370 -13.053  27.672  1.00  0.00    -0.071 Cl
ENDBRANCH  19  20
ENDBRANCH   9  19
ENDBRANCH   6   7
ENDBRANCH   5   6
ENDBRANCH   2   5
BRANCH   1  24
HETATM   24  C9  UNL     1      36.826 -20.322  20.948  1.00  0.00     0.202 C
BRANCH  24  25
HETATM   25  O3  UNL     1      36.916 -21.505  21.662  1.00  0.00    -0.355 OA
BRANCH  25  26
HETATM   26  C8  UNL     1      35.739 -22.163  21.885  1.00  0.00     0.292 C
HETATM   27  O2  UNL     1      35.399 -22.240  23.234  1.00  0.00    -0.351 OA
HETATM   28  C6  UNL     1      36.463 -22.437  24.059  1.00  0.00     0.150 C
HETATM   29  C4  UNL     1      37.204 -23.713  23.905  1.00  0.00     0.160 C
HETATM   30  C7  UNL     1      36.012 -22.174  25.499  1.00  0.00     0.042 C
HETATM   31  C3  UNL     1      36.450 -24.889  23.377  1.00  0.00     0.076 C
HETATM   32  C28 UNL     1      35.390 -24.616  22.378  1.00  0.00     0.094 C
HETATM   33  C27 UNL     1      35.779 -23.570  21.355  1.00  0.00     0.208 C
HETATM   34  C29 UNL     1      34.015 -24.384  22.955  1.00  0.00     0.049 C
BRANCH  29  35
HETATM   35  O1  UNL     1      37.675 -24.075  25.168  1.00  0.00    -0.387 OA
HETATM   36  C5  UNL     1      39.027 -24.311  25.160  1.00  0.00     0.202 C
ENDBRANCH  29  35
BRANCH  31  37
HETATM   37  C2  UNL     1      35.895 -25.751  24.456  1.00  0.00    -0.027 C
HETATM   38  C1  UNL     1      36.290 -27.014  24.567  1.00  0.00     0.007 C
ENDBRANCH  31  37
BRANCH  32  39
HETATM   39  O7  UNL     1      35.252 -25.803  21.605  1.00  0.00    -0.387 OA
ATOM     40  H7  UNL     1      34.382 -26.141  21.785  1.00  0.00     0.210 HD
ENDBRANCH  32  39
BRANCH  33  41
HETATM   41  O6  UNL     1      37.028 -23.859  20.872  1.00  0.00    -0.388 OA
ATOM     42  H6  UNL     1      37.093 -23.610  19.958  1.00  0.00     0.210 HD
ENDBRANCH  33  41
ENDBRANCH  25  26
ENDBRANCH  24  25
ENDBRANCH   1  24
TORSDOF 13
ENDMDL