MODEL 2
REMARK VINA RESULT: -7.803377950      6.574     11.407
REMARK  14 active torsions:
REMARK  status: ('A' for Active; 'I' for Inactive)
REMARK    1  A    between atoms: C2_2  and  C4_4
REMARK    2  A    between atoms: C4_4  and  O1_5
REMARK    3  A    between atoms: C4_4  and  C5_7
REMARK    4  A    between atoms: C5_7  and  C6_8
REMARK    5  A    between atoms: C6_8  and  O2_9
REMARK    6  A    between atoms: C6_8  and  C30_43
REMARK    7  A    between atoms: O2_9  and  N1_10
REMARK    8  A    between atoms: C19_25  and  C20_26
REMARK    9  A    between atoms: C19_25  and  C21_29
REMARK   10  A    between atoms: C20_26  and  O4_27
REMARK   11  A    between atoms: C21_29  and  O5_30
REMARK   12  A    between atoms: O5_30  and  C22_31
REMARK   13  A    between atoms: C27_37  and  O7_38
REMARK   14  A    between atoms: C30_43  and  C32_45
ROOT
HETATM    1  N1  UNL     1      36.518 -17.717  24.304  1.00  0.00    -0.271 N
ATOM      2  H1  UNL     1      35.662 -17.172  24.203  1.00  0.00     0.194 HD
HETATM    3  C7  UNL     1      36.541 -18.888  23.781  1.00  0.00     0.032 C
HETATM    4  C8  UNL     1      35.401 -19.436  23.071  1.00  0.00     0.024 C
HETATM    5  C9  UNL     1      35.211 -20.726  23.140  1.00  0.00    -0.011 C
HETATM    6  C10 UNL     1      36.103 -21.642  23.908  1.00  0.00     0.021 C
HETATM    7  C11 UNL     1      35.568 -21.615  25.330  1.00  0.00     0.024 C
HETATM    8  C12 UNL     1      37.528 -21.185  23.964  1.00  0.00    -0.025 C
HETATM    9  C13 UNL     1      38.252 -21.678  25.206  1.00  0.00     0.016 C
HETATM   10  C14 UNL     1      38.290 -21.794  22.777  1.00  0.00     0.011 C
HETATM   11  C15 UNL     1      38.333 -23.281  22.828  1.00  0.00     0.011 C
HETATM   12  C16 UNL     1      37.135 -23.898  23.511  1.00  0.00     0.059 C
HETATM   13  C17 UNL     1      36.896 -25.222  22.888  1.00  0.00     0.138 C
HETATM   14  O3  UNL     1      36.579 -25.241  21.561  1.00  0.00    -0.384 OA
HETATM   15  C18 UNL     1      36.434 -26.635  21.360  1.00  0.00     0.182 C
HETATM   16  C19 UNL     1      35.411 -26.966  22.462  1.00  0.00     0.034 C
HETATM   17  C24 UNL     1      35.708 -25.980  23.498  1.00  0.00    -0.001 C
HETATM   18  C25 UNL     1      36.346 -26.711  24.690  1.00  0.00     0.019 C
HETATM   19  C26 UNL     1      34.642 -25.089  23.976  1.00  0.00     0.048 C
HETATM   20  C27 UNL     1      34.642 -23.664  23.576  1.00  0.00     0.160 C
HETATM   21  C28 UNL     1      35.941 -23.015  23.272  1.00  0.00     0.146 C
HETATM   22  F1  UNL     1      35.943 -22.776  21.886  1.00  0.00    -0.238 F
HETATM   23  C29 UNL     1      37.743 -19.703  23.897  1.00  0.00     0.069 C
ENDROOT
BRANCH   1  24
HETATM   24  O2  UNL     1      37.543 -17.148  24.979  1.00  0.00    -0.274 OA
BRANCH  24  25
HETATM   25  C6  UNL     1      37.859 -17.424  26.345  1.00  0.00     0.159 C
BRANCH  25  26
HETATM   26  C5  UNL     1      37.079 -16.568  27.253  1.00  0.00     0.071 C
BRANCH  26  27
HETATM   27  C4  UNL     1      37.291 -15.097  27.199  1.00  0.00     0.148 C
BRANCH  27  28
HETATM   28  C2  UNL     1      36.142 -14.469  27.959  1.00  0.00    -0.065 C
HETATM   29  C1  UNL     1      35.790 -13.217  27.724  1.00  0.00     0.016 C
HETATM   30  C3  UNL     1      35.412 -15.272  28.974  1.00  0.00     0.045 C
ENDBRANCH  27  28
BRANCH  27  31
HETATM   31  O1  UNL     1      37.265 -14.578  25.902  1.00  0.00    -0.391 OA
ATOM     32  H1  UNL     1      38.165 -14.424  25.641  1.00  0.00     0.210 HD
ENDBRANCH  27  31
ENDBRANCH  26  27
ENDBRANCH  25  26
BRANCH  25  33
HETATM   33  C30 UNL     1      39.330 -17.499  26.452  1.00  0.00     0.027 C
HETATM   34  C31 UNL     1      39.900 -18.753  27.037  1.00  0.00     0.014 C
BRANCH  33  35
HETATM   35  C32 UNL     1      40.107 -17.028  25.242  1.00  0.00     0.121 C
HETATM   36 CL1  UNL     1      41.016 -18.269  24.414  1.00  0.00    -0.130 Cl
ENDBRANCH  33  35
ENDBRANCH  25  33
ENDBRANCH  24  25
ENDBRANCH   1  24
BRANCH  20  37
HETATM   37  O7  UNL     1      33.689 -23.458  22.543  1.00  0.00    -0.392 OA
ATOM     38  H7  UNL     1      33.936 -22.699  22.028  1.00  0.00     0.210 HD
ENDBRANCH  20  37
BRANCH  16  39
HETATM   39  C20 UNL     1      35.678 -28.416  22.812  1.00  0.00     0.178 C
BRANCH  39  40
HETATM   40  O4  UNL     1      34.531 -29.171  22.965  1.00  0.00    -0.400 OA
ATOM     41  H4  UNL     1      34.283 -29.308  23.872  1.00  0.00     0.209 HD
ENDBRANCH  39  40
ENDBRANCH  16  39
BRANCH  16  42
HETATM   42  C21 UNL     1      34.070 -26.934  21.796  1.00  0.00     0.193 C
BRANCH  42  43
HETATM   43  O5  UNL     1      34.290 -27.389  20.445  1.00  0.00    -0.321 OA
BRANCH  43  44
HETATM   44  C22 UNL     1      33.458 -28.288  19.822  1.00  0.00     0.254 C
HETATM   45  C23 UNL     1      33.345 -28.397  18.336  1.00  0.00     0.126 C
HETATM   46  O6  UNL     1      32.764 -29.054  20.538  1.00  0.00    -0.266 OA
ENDBRANCH  43  44
ENDBRANCH  42  43
ENDBRANCH  16  42
TORSDOF 14
ENDMDL