MODEL 2
REMARK VINA RESULT: -7.013506062      3.382      7.818
REMARK  11 active torsions:
REMARK  status: ('A' for Active; 'I' for Inactive)
REMARK    1  A    between atoms: O1_2  and  C2_3
REMARK    2  A    between atoms: C5_6  and  O2_7
REMARK    3  A    between atoms: O2_7  and  C6_8
REMARK    4  A    between atoms: C9_13  and  O3_14
REMARK    5  A    between atoms: C12_19  and  O5_21
REMARK    6  A    between atoms: O5_21  and  C14_22
REMARK    7  A    between atoms: C14_22  and  C15_23
REMARK    8  A    between atoms: C15_23  and  C16_24
REMARK    9  A    between atoms: C16_24  and  N1_25
REMARK   10  A    between atoms: N1_25  and  C17_28
REMARK   11  A    between atoms: C21_35  and  O7_36
ROOT
HETATM    1  C6  UNL     1      38.951 -18.473  26.415  1.00  0.00     0.129 A
HETATM    2  C7  UNL     1      38.376 -17.412  27.046  1.00  0.00     0.068 A
HETATM    3 BR1  UNL     1      37.467 -16.071  26.011  1.00  0.00    -0.046 Br
HETATM    4  C8  UNL     1      38.511 -17.285  28.407  1.00  0.00     0.065 A
HETATM    5 BR2  UNL     1      37.691 -15.792  29.260  1.00  0.00    -0.046 Br
HETATM    6  C9  UNL     1      39.245 -18.247  29.155  1.00  0.00     0.103 A
HETATM    7  C10 UNL     1      39.811 -19.297  28.490  1.00  0.00     0.102 A
HETATM    8  C11 UNL     1      39.683 -19.437  27.135  1.00  0.00     0.128 A
HETATM    9  O4  UNL     1      40.277 -20.529  26.480  1.00  0.00    -0.292 OA
HETATM   10  C12 UNL     1      41.398 -21.217  27.031  1.00  0.00     0.252 C
HETATM   11  C13 UNL     1      41.432 -22.583  26.376  1.00  0.00     0.107 C
HETATM   12  N2  UNL     1      41.161 -21.410  28.463  1.00  0.00    -0.302 N
ATOM     13  H2  UNL     1      41.400 -22.287  28.926  1.00  0.00     0.168 HD
HETATM   14  C20 UNL     1      40.571 -20.305  29.199  1.00  0.00     0.261 C
HETATM   15  O6  UNL     1      40.768 -20.308  30.416  1.00  0.00    -0.267 OA
ENDROOT
BRANCH   1  16
HETATM   16  O2  UNL     1      38.854 -18.677  25.079  1.00  0.00    -0.304 OA
BRANCH  16  17
HETATM   17  C5  UNL     1      37.735 -19.207  24.467  1.00  0.00     0.109 A
HETATM   18  C4  UNL     1      37.093 -20.307  25.085  1.00  0.00     0.043 A
HETATM   19  C3  UNL     1      35.978 -20.904  24.560  1.00  0.00     0.039 A
HETATM   20  C2  UNL     1      35.424 -20.445  23.384  1.00  0.00     0.071 A
HETATM   21  C23 UNL     1      36.035 -19.378  22.772  1.00  0.00     0.076 A
HETATM   22  C21 UNL     1      37.175 -18.771  23.311  1.00  0.00     0.104 A
BRANCH  20  23
HETATM   23  O1  UNL     1      34.284 -21.044  22.834  1.00  0.00    -0.356 OA
HETATM   24  C1  UNL     1      34.237 -22.463  22.790  1.00  0.00     0.210 C
ENDBRANCH  20  23
BRANCH  22  25
HETATM   25  O7  UNL     1      37.729 -17.686  22.623  1.00  0.00    -0.353 OA
HETATM   26  C22 UNL     1      38.662 -17.830  21.597  1.00  0.00     0.210 C
ENDBRANCH  22  25
ENDBRANCH  16  17
ENDBRANCH   1  16
BRANCH   6  27
HETATM   27  O3  UNL     1      39.316 -18.024  30.494  1.00  0.00    -0.358 OA
ATOM     28  H3  UNL     1      39.655 -18.743  31.014  1.00  0.00     0.217 HD
ENDBRANCH   6  27
BRANCH  10  29
HETATM   29  O5  UNL     1      42.576 -20.509  26.804  1.00  0.00    -0.338 OA
BRANCH  29  30
HETATM   30  C14 UNL     1      43.576 -21.362  26.293  1.00  0.00     0.175 C
BRANCH  30  31
HETATM   31  C15 UNL     1      44.918 -20.725  26.470  1.00  0.00     0.054 C
BRANCH  31  32
HETATM   32  C16 UNL     1      45.270 -20.391  27.894  1.00  0.00     0.235 C
BRANCH  32  33
HETATM   33  N1  UNL     1      44.738 -21.373  28.788  1.00  0.00    -0.072 N
ATOM     34  H12 UNL     1      43.986 -21.912  28.359  1.00  0.00     0.277 HD
ATOM     35  H11 UNL     1      45.395 -22.136  28.951  1.00  0.00     0.277 HD
BRANCH  33  36
HETATM   36  C17 UNL     1      44.322 -20.750  30.011  1.00  0.00     0.177 C
HETATM   37  C18 UNL     1      43.918 -21.807  31.034  1.00  0.00     0.039 C
HETATM   38  C19 UNL     1      45.503 -19.969  30.562  1.00  0.00     0.039 C
ENDBRANCH  33  36
ENDBRANCH  32  33
ENDBRANCH  31  32
ENDBRANCH  30  31
ENDBRANCH  29  30
ENDBRANCH  10  29
TORSDOF 11
ENDMDL