MODEL 3
REMARK VINA RESULT: -8.387788752      3.030      4.387
REMARK  10 active torsions:
REMARK  status: ('A' for Active; 'I' for Inactive)
REMARK    1  A    between atoms: C2_2  and  C4_4
REMARK    2  A    between atoms: C10_10  and  C11_11
REMARK    3  A    between atoms: C14_17  and  C15_18
REMARK    4  A    between atoms: C15_18  and  O2_19
REMARK    5  A    between atoms: C15_18  and  N2_21
REMARK    6  A    between atoms: N2_21  and  C16_22
REMARK    7  A    between atoms: N2_21  and  C19_25
REMARK       I    between atoms: N3_29  and  C23_30
REMARK       I    between atoms: C23_30  and  N4_32
REMARK    8  A    between atoms: N4_32  and  C24_34
REMARK    9  A    between atoms: C24_34  and  C25_35
REMARK   10  A    between atoms: C25_35  and  C26_36
ROOT
HETATM    1  C11 UNL     1      34.208 -22.779 -10.118  1.00  0.00     0.123 C
HETATM    2  C12 UNL     1      32.839 -22.585 -10.689  1.00  0.00     0.050 C
HETATM    3  C13 UNL     1      34.388 -24.269  -9.893  1.00  0.00     0.251 C
HETATM    4  O1  UNL     1      35.347 -24.971 -10.168  1.00  0.00    -0.270 OA
HETATM    5  N1  UNL     1      33.244 -24.899  -9.263  1.00  0.00    -0.320 N
ATOM      6  H1  UNL     1      32.991 -25.849  -9.537  1.00  0.00     0.169 HD
HETATM    7  C14 UNL     1      32.466 -24.235  -8.277  1.00  0.00     0.102 C
HETATM    8  C22 UNL     1      32.961 -22.978  -8.046  1.00  0.00     0.131 C
HETATM    9  N3  UNL     1      34.109 -22.429  -8.715  1.00  0.00    -0.289 N
HETATM   10  C23 UNL     1      34.947 -21.671  -7.903  1.00  0.00     0.323 C
HETATM   11  O3  UNL     1      36.006 -21.129  -8.304  1.00  0.00    -0.247 OA
HETATM   12  N4  UNL     1      34.658 -21.450  -6.525  1.00  0.00    -0.343 N
ATOM     13  H4  UNL     1      33.809 -21.864  -6.141  1.00  0.00     0.164 HD
ENDROOT
BRANCH   1  14
HETATM   14  C10 UNL     1      35.353 -22.357 -10.941  1.00  0.00     0.032 C
HETATM   15  C4  UNL     1      35.573 -20.954 -11.300  1.00  0.00     0.020 C
HETATM   16  C5  UNL     1      34.856 -20.408 -12.501  1.00  0.00     0.009 C
HETATM   17  C6  UNL     1      34.899 -21.067 -13.795  1.00  0.00     0.001 C
HETATM   18  C7  UNL     1      34.128 -22.316 -14.022  1.00  0.00     0.000 C
HETATM   19  C8  UNL     1      34.483 -23.458 -13.085  1.00  0.00     0.001 C
HETATM   20  C9  UNL     1      35.617 -23.148 -12.200  1.00  0.00     0.008 C
BRANCH  15  21
HETATM   21  C2  UNL     1      37.009 -20.588 -11.458  1.00  0.00    -0.088 C
HETATM   22  C1  UNL     1      38.016 -21.355 -11.135  1.00  0.00     0.014 C
HETATM   23  C3  UNL     1      37.422 -19.256 -12.014  1.00  0.00     0.043 C
ENDBRANCH  15  21
ENDBRANCH   1  14
BRANCH   7  24
HETATM   24  C15 UNL     1      31.347 -24.722  -7.552  1.00  0.00     0.167 C
BRANCH  24  25
HETATM   25  O2  UNL     1      31.727 -25.448  -6.500  1.00  0.00    -0.344 OA
ATOM     26  H2  UNL     1      32.039 -24.895  -5.793  1.00  0.00     0.219 HD
ENDBRANCH  24  25
BRANCH  24  27
HETATM   27  N2  UNL     1      29.951 -24.641  -7.649  1.00  0.00    -0.352 N
BRANCH  27  28
HETATM   28  C16 UNL     1      29.206 -24.955  -8.818  1.00  0.00     0.078 C
HETATM   29  C17 UNL     1      29.432 -24.043 -10.016  1.00  0.00     0.032 C
HETATM   30  C18 UNL     1      29.462 -26.411  -9.304  1.00  0.00     0.032 C
ENDBRANCH  27  28
BRANCH  27  31
HETATM   31  C19 UNL     1      29.279 -24.157  -6.431  1.00  0.00     0.078 C
HETATM   32  C20 UNL     1      28.639 -22.840  -6.509  1.00  0.00     0.032 C
HETATM   33  C21 UNL     1      28.266 -25.194  -5.957  1.00  0.00     0.032 C
ENDBRANCH  27  31
ENDBRANCH  24  27
ENDBRANCH   7  24
BRANCH  12  34
HETATM   34  C24 UNL     1      35.498 -20.675  -5.638  1.00  0.00     0.125 C
BRANCH  34  35
HETATM   35  C25 UNL     1      34.648 -19.870  -4.712  1.00  0.00     0.023 C
BRANCH  35  36
HETATM   36  C26 UNL     1      34.684 -18.392  -5.077  1.00  0.00    -0.021 C
HETATM   37  C27 UNL     1      34.753 -17.517  -3.853  1.00  0.00     0.009 C
HETATM   38  C28 UNL     1      35.928 -18.161  -5.900  1.00  0.00     0.009 C
ENDBRANCH  35  36
ENDBRANCH  34  35
ENDBRANCH  12  34
TORSDOF 10
ENDMDL