MODEL 1
REMARK VINA RESULT: -8.468611274      0.000      0.000
REMARK  9 active torsions:
REMARK  status: ('A' for Active; 'I' for Inactive)
REMARK    1  A    between atoms: C2_2  and  C3_3
REMARK    2  A    between atoms: C4_4  and  C5_5
REMARK    3  A    between atoms: C8_8  and  O1_9
REMARK    4  A    between atoms: C16_18  and  N1_19
REMARK    5  A    between atoms: N1_19  and  O2_20
REMARK    6  A    between atoms: N1_19  and  C17_22
REMARK    7  A    between atoms: C21_26  and  C22_27
REMARK    8  A    between atoms: C22_27  and  C23_28
REMARK    9  A    between atoms: C23_28  and  N2_30
ROOT
HETATM    1  C1  UNL     1      32.750 -17.787 -10.844  1.00  0.00     0.048 C
HETATM    2  C2  UNL     1      33.381 -19.173 -10.862  1.00  0.00    -0.059 C
HETATM    3  C11 UNL     1      32.692 -20.258 -11.137  1.00  0.00    -0.059 C
HETATM    4  C12 UNL     1      31.249 -19.998 -11.398  1.00  0.00     0.021 C
HETATM    5  C13 UNL     1      30.828 -19.966 -12.817  1.00  0.00     0.041 C
HETATM    6  C14 UNL     1      30.709 -21.401 -13.344  1.00  0.00     0.125 C
HETATM    7  C15 UNL     1      32.069 -22.032 -13.293  1.00  0.00     0.066 C
HETATM    8  C16 UNL     1      32.513 -22.617 -12.004  1.00  0.00     0.070 C
HETATM    9  C20 UNL     1      31.398 -23.018 -11.061  1.00  0.00     0.072 C
HETATM   10  C21 UNL     1      30.103 -22.252 -11.303  1.00  0.00     0.066 C
HETATM   11  C28 UNL     1      30.299 -20.917 -10.635  1.00  0.00     0.047 C
HETATM   12  O3  UNL     1      29.814 -22.117 -12.623  1.00  0.00    -0.375 OA
HETATM   13  C29 UNL     1      33.395 -21.552 -11.266  1.00  0.00     0.004 C
HETATM   14  C30 UNL     1      33.866 -22.136  -9.980  1.00  0.00     0.022 C
HETATM   15  C31 UNL     1      34.591 -21.332 -12.207  1.00  0.00     0.022 C
ENDROOT
BRANCH   2  16
HETATM   16  C3  UNL     1      34.757 -19.146 -10.373  1.00  0.00     0.003 C
HETATM   17  C4  UNL     1      35.236 -19.204  -9.177  1.00  0.00    -0.022 C
BRANCH  17  18
HETATM   18  C5  UNL     1      34.796 -19.312  -7.809  1.00  0.00     0.008 C
HETATM   19  C6  UNL     1      35.528 -18.248  -6.932  1.00  0.00     0.011 C
HETATM   20  C7  UNL     1      35.843 -18.799  -5.582  1.00  0.00     0.032 C
HETATM   21  C8  UNL     1      34.835 -19.757  -5.029  1.00  0.00     0.118 C
HETATM   22  C9  UNL     1      34.566 -20.910  -5.978  1.00  0.00     0.032 C
HETATM   23  C10 UNL     1      35.357 -20.636  -7.221  1.00  0.00     0.011 C
BRANCH  21  24
HETATM   24  O1  UNL     1      35.381 -20.323  -3.867  1.00  0.00    -0.396 OA
ATOM     25  H1  UNL     1      35.671 -21.201  -4.085  1.00  0.00     0.210 HD
ENDBRANCH  21  24
ENDBRANCH  17  18
ENDBRANCH   2  16
BRANCH   8  26
HETATM   26  N1  UNL     1      33.355 -23.737 -12.251  1.00  0.00    -0.281 N
BRANCH  26  27
HETATM   27  O2  UNL     1      33.307 -24.809 -11.501  1.00  0.00    -0.291 OA
ATOM     28  H2  UNL     1      33.982 -25.477 -11.544  1.00  0.00     0.244 HD
ENDBRANCH  26  27
BRANCH  26  29
HETATM   29  C17 UNL     1      33.989 -23.986 -13.448  1.00  0.00     0.109 A
HETATM   30  C18 UNL     1      34.615 -25.231 -14.026  1.00  0.00     0.029 A
HETATM   31  C19 UNL     1      33.239 -24.851 -14.461  1.00  0.00     0.029 A
ENDBRANCH  26  29
ENDBRANCH   8  26
BRANCH  10  32
HETATM   32  C22 UNL     1      29.029 -23.004 -10.580  1.00  0.00     0.071 C
BRANCH  32  33
HETATM   33  C23 UNL     1      29.382 -23.539  -9.246  1.00  0.00     0.188 C
HETATM   34  C24 UNL     1      29.031 -22.683  -8.070  1.00  0.00     0.040 C
BRANCH  33  35
HETATM   35  N2  UNL     1      28.618 -24.788  -9.087  1.00  0.00    -0.075 N
HETATM   36  C25 UNL     1      29.460 -25.905  -9.406  1.00  0.00     0.272 C
HETATM   37  C26 UNL     1      27.449 -24.809  -9.946  1.00  0.00     0.272 C
HETATM   38  C27 UNL     1      28.117 -24.920  -7.727  1.00  0.00     0.272 C
ENDBRANCH  33  35
ENDBRANCH  32  33
ENDBRANCH  10  32
TORSDOF 9
ENDMDL