MODEL 5
REMARK VINA RESULT: -10.009682102      1.479      2.101
REMARK  8 active torsions:
REMARK  status: ('A' for Active; 'I' for Inactive)
REMARK    1  A    between atoms: C2_2  and  C3_3
REMARK    2  A    between atoms: C3_3  and  C4_4
REMARK    3  A    between atoms: C4_4  and  N1_5
REMARK    4  A    between atoms: C4_4  and  C13_18
REMARK    5  A    between atoms: N1_5  and  S1_7
REMARK    6  A    between atoms: S1_7  and  C5_10
REMARK       I    between atoms: C13_18  and  N2_20
REMARK    7  A    between atoms: N2_20  and  C14_22
REMARK    8  A    between atoms: C14_22  and  C15_23
ROOT
HETATM    1  C4  UNL     1      32.947 -21.584 -11.260  1.00  0.00     0.193 C
ENDROOT
BRANCH   1   2
HETATM    2  C3  UNL     1      32.025 -21.403 -12.414  1.00  0.00    -0.011 C
HETATM    3  C25 UNL     1      31.692 -19.950 -12.709  1.00  0.00     0.012 C
HETATM    4  C26 UNL     1      30.272 -19.703 -12.318  1.00  0.00     0.001 C
HETATM    5  C27 UNL     1      29.662 -21.026 -11.922  1.00  0.00     0.001 C
HETATM    6  C28 UNL     1      30.683 -22.078 -12.207  1.00  0.00     0.012 C
BRANCH   2   7
HETATM    7  C2  UNL     1      32.689 -21.910 -13.677  1.00  0.00     0.007 C
HETATM    8  C1  UNL     1      31.798 -22.761 -14.517  1.00  0.00     0.006 C
ENDBRANCH   2   7
ENDBRANCH   1   2
BRANCH   1   9
HETATM    9  N1  UNL     1      34.325 -21.478 -11.561  1.00  0.00    -0.301 N
ATOM     10  H1  UNL     1      34.624 -21.930 -12.425  1.00  0.00     0.173 HD
BRANCH   9  11
HETATM   11  S1  UNL     1      35.492 -20.736 -10.721  1.00  0.00     0.260 S
HETATM   12  O1  UNL     1      35.581 -19.275 -11.251  1.00  0.00    -0.200 OA
HETATM   13  O2  UNL     1      36.911 -21.225 -11.040  1.00  0.00    -0.200 OA
BRANCH  11  14
HETATM   14  C5  UNL     1      35.373 -20.526  -9.025  1.00  0.00     0.085 A
HETATM   15  C6  UNL     1      35.207 -19.300  -8.449  1.00  0.00     0.026 A
HETATM   16  C7  UNL     1      35.081 -19.088  -7.079  1.00  0.00     0.008 A
HETATM   17  C8  UNL     1      35.125 -20.183  -6.251  1.00  0.00    -0.061 A
HETATM   18  C9  UNL     1      34.998 -20.042  -4.783  1.00  0.00     0.048 C
HETATM   19  C10 UNL     1      35.289 -21.433  -6.776  1.00  0.00     0.015 A
HETATM   20  C11 UNL     1      35.411 -21.608  -8.135  1.00  0.00    -0.038 A
HETATM   21  C12 UNL     1      35.586 -22.970  -8.655  1.00  0.00     0.050 C
ENDBRANCH  11  14
ENDBRANCH   9  11
ENDBRANCH   1   9
BRANCH   1  22
HETATM   22  C13 UNL     1      32.724 -22.991 -10.658  1.00  0.00     0.241 C
HETATM   23  O3  UNL     1      33.102 -24.021 -11.248  1.00  0.00    -0.271 OA
HETATM   24  N2  UNL     1      32.086 -23.146  -9.421  1.00  0.00    -0.359 N
ATOM     25  H2  UNL     1      31.775 -22.313  -8.921  1.00  0.00     0.162 HD
BRANCH  24  26
HETATM   26  C14 UNL     1      31.851 -24.453  -8.821  1.00  0.00     0.132 C
BRANCH  26  27
HETATM   27  C15 UNL     1      30.449 -24.598  -8.333  1.00  0.00    -0.023 C
HETATM   28  C16 UNL     1      29.761 -25.740  -9.022  1.00  0.00     0.015 C
HETATM   29  C17 UNL     1      28.324 -25.854  -8.604  1.00  0.00    -0.013 C
HETATM   30  C18 UNL     1      28.166 -25.965  -7.104  1.00  0.00     0.009 C
HETATM   31  C22 UNL     1      27.576 -24.626  -9.047  1.00  0.00     0.009 C
HETATM   32  C19 UNL     1      28.867 -24.780  -6.480  1.00  0.00    -0.013 C
HETATM   33  C20 UNL     1      28.126 -23.545  -6.890  1.00  0.00     0.009 C
HETATM   34  C24 UNL     1      30.323 -24.759  -6.858  1.00  0.00     0.015 C
HETATM   35  C21 UNL     1      28.227 -23.424  -8.402  1.00  0.00    -0.013 C
HETATM   36  C23 UNL     1      29.689 -23.327  -8.740  1.00  0.00     0.015 C
ENDBRANCH  26  27
ENDBRANCH  24  26
ENDBRANCH   1  22
TORSDOF 8
ENDMDL