MODEL 1
REMARK VINA RESULT: -8.915315291      0.000      0.000
REMARK  9 active torsions:
REMARK  status: ('A' for Active; 'I' for Inactive)
REMARK    1  A    between atoms: C6_6  and  S1_7
REMARK    2  A    between atoms: S1_7  and  N1_10
REMARK    3  A    between atoms: C9_13  and  C11_15
REMARK       I    between atoms: C11_15  and  N2_17
REMARK    4  A    between atoms: N2_17  and  C12_19
REMARK    5  A    between atoms: C12_19  and  C13_20
REMARK    6  A    between atoms: C12_19  and  C20_27
REMARK    7  A    between atoms: C13_20  and  C14_21
REMARK    8  A    between atoms: C20_27  and  N3_29
REMARK    9  A    between atoms: N3_29  and  C22_31
ROOT
HETATM    1  C11 UNL     1      31.412 -20.770 -12.022  1.00  0.00     0.245 C
HETATM    2  O3  UNL     1      31.449 -21.327 -13.152  1.00  0.00    -0.271 OA
HETATM    3  N2  UNL     1      30.871 -21.507 -10.927  1.00  0.00    -0.331 N
ATOM      4  H2  UNL     1      30.838 -21.059 -10.011  1.00  0.00     0.168 HD
ENDROOT
BRANCH   1   5
HETATM    5  C9  UNL     1      31.931 -19.420 -11.935  1.00  0.00     0.106 C
HETATM    6  N1  UNL     1      33.231 -19.064 -12.306  1.00  0.00    -0.188 NA
HETATM    7  C7  UNL     1      32.772 -17.802 -12.772  1.00  0.00     0.111 C
HETATM    8  C8  UNL     1      31.415 -18.468 -13.014  1.00  0.00     0.051 C
HETATM    9  C10 UNL     1      31.557 -18.828 -10.565  1.00  0.00     0.044 C
BRANCH   6  10
HETATM   10  S1  UNL     1      34.519 -19.148 -11.220  1.00  0.00     0.245 S
HETATM   11  O1  UNL     1      35.703 -18.451 -11.833  1.00  0.00    -0.206 OA
HETATM   12  O2  UNL     1      34.198 -18.352  -9.989  1.00  0.00    -0.206 OA
BRANCH  10  13
HETATM   13  C6  UNL     1      35.026 -20.776 -10.814  1.00  0.00     0.086 A
HETATM   14  C4  UNL     1      35.310 -21.033  -9.493  1.00  0.00    -0.038 A
HETATM   15  C3  UNL     1      35.729 -22.284  -9.117  1.00  0.00     0.015 A
HETATM   16  C5  UNL     1      35.165 -19.946  -8.453  1.00  0.00     0.050 C
HETATM   17  C2  UNL     1      35.868 -23.288 -10.051  1.00  0.00    -0.061 A
HETATM   18  C1  UNL     1      36.326 -24.636  -9.602  1.00  0.00     0.048 C
HETATM   19  C27 UNL     1      35.579 -23.011 -11.369  1.00  0.00     0.015 A
HETATM   20  C25 UNL     1      35.149 -21.741 -11.780  1.00  0.00    -0.038 A
HETATM   21  C26 UNL     1      34.879 -21.492 -13.221  1.00  0.00     0.050 C
ENDBRANCH  10  13
ENDBRANCH   6  10
ENDBRANCH   1   5
BRANCH   3  22
HETATM   22  C12 UNL     1      30.370 -22.845 -11.048  1.00  0.00     0.012 C
BRANCH  22  23
HETATM   23  C13 UNL     1      29.002 -23.117 -10.571  1.00  0.00     0.059 C
BRANCH  23  24
HETATM   24  C14 UNL     1      28.857 -23.848  -9.270  1.00  0.00    -0.009 C
HETATM   25  C15 UNL     1      27.615 -24.641  -9.115  1.00  0.00     0.005 C
HETATM   26  C16 UNL     1      27.508 -25.248  -7.727  1.00  0.00     0.000 C
HETATM   27  C17 UNL     1      27.546 -24.163  -6.690  1.00  0.00     0.000 C
HETATM   28  C18 UNL     1      28.953 -23.548  -6.815  1.00  0.00     0.000 C
HETATM   29  C19 UNL     1      28.960 -22.833  -8.116  1.00  0.00     0.005 C
ENDBRANCH  23  24
ENDBRANCH  22  23
BRANCH  22  30
HETATM   30  C20 UNL     1      31.370 -23.919 -10.663  1.00  0.00     0.118 C
HETATM   31  C21 UNL     1      32.021 -24.586 -11.813  1.00  0.00     0.038 C
BRANCH  30  32
HETATM   32  N3  UNL     1      32.243 -23.543  -9.628  1.00  0.00    -0.409 N
ATOM     33  H3  UNL     1      32.548 -22.572  -9.558  1.00  0.00     0.154 HD
BRANCH  32  34
HETATM   34  C22 UNL     1      32.705 -24.481  -8.687  1.00  0.00     0.069 C
HETATM   35  C23 UNL     1      31.750 -25.616  -8.500  1.00  0.00     0.031 C
HETATM   36  C24 UNL     1      32.822 -23.754  -7.336  1.00  0.00     0.031 C
ENDBRANCH  32  34
ENDBRANCH  30  32
ENDBRANCH  22  30
ENDBRANCH   3  22
TORSDOF 9
ENDMDL