MODEL 2
REMARK VINA RESULT: -11.110674797      0.094      1.218
REMARK  9 active torsions:
REMARK  status: ('A' for Active; 'I' for Inactive)
REMARK    1  A    between atoms: C2_2  and  C4_4
REMARK    2  A    between atoms: C4_4  and  C5_5
REMARK    3  A    between atoms: C4_4  and  C19_23
REMARK    4  A    between atoms: C5_5  and  C6_6
REMARK    5  A    between atoms: C6_6  and  N1_7
REMARK    6  A    between atoms: C9_10  and  N2_11
REMARK       I    between atoms: N2_11  and  C10_13
REMARK    7  A    between atoms: C10_13  and  C11_15
REMARK    8  A    between atoms: C19_23  and  N3_24
REMARK       I    between atoms: N3_24  and  C20_26
REMARK    9  A    between atoms: C20_26  and  C21_28
ROOT
HETATM    1  C4  UNL     1      21.631 -31.776  -7.756  1.00  0.00    -0.039 C
ENDROOT
BRANCH   1   2
HETATM    2  C2  UNL     1      20.976 -30.808  -8.340  1.00  0.00    -0.080 C
HETATM    3  C1  UNL     1      20.187 -29.829  -7.470  1.00  0.00     0.043 C
HETATM    4  C3  UNL     1      20.905 -30.504  -9.794  1.00  0.00     0.043 C
ENDBRANCH   1   2
BRANCH   1   5
HETATM    5  C5  UNL     1      23.037 -31.364  -7.231  1.00  0.00     0.070 C
BRANCH   5   6
HETATM    6  C6  UNL     1      24.000 -31.754  -8.288  1.00  0.00     0.277 C
BRANCH   6   7
HETATM    7  N1  UNL     1      25.058 -30.774  -8.488  1.00  0.00     0.089 N
HETATM    8  C7  UNL     1      25.655 -30.489  -7.206  1.00  0.00     0.274 C
HETATM    9  C8  UNL     1      26.555 -29.306  -7.206  1.00  0.00     0.056 C
HETATM   10  C9  UNL     1      26.153 -28.207  -8.134  1.00  0.00     0.091 C
HETATM   11  C16 UNL     1      24.671 -28.330  -8.395  1.00  0.00     0.032 C
HETATM   12  C17 UNL     1      23.840 -28.188  -7.163  1.00  0.00     0.014 C
HETATM   13  C18 UNL     1      24.443 -29.624  -9.100  1.00  0.00     0.278 C
BRANCH  10  14
HETATM   14  N2  UNL     1      26.517 -26.898  -7.651  1.00  0.00    -0.356 N
HETATM   15  C10 UNL     1      26.945 -25.870  -8.528  1.00  0.00     0.222 C
HETATM   16  O1  UNL     1      27.002 -26.122  -9.757  1.00  0.00    -0.273 OA
ATOM     17  H2  UNL     1      26.464 -26.705  -6.650  1.00  0.00     0.162 HD
BRANCH  15  18
HETATM   18  C11 UNL     1      27.320 -24.536  -8.049  1.00  0.00     0.078 C
HETATM   19  C12 UNL     1      28.607 -24.037  -8.667  1.00  0.00     0.014 C
HETATM   20  C13 UNL     1      28.911 -22.834  -7.781  1.00  0.00     0.001 C
HETATM   21  C14 UNL     1      28.394 -23.217  -6.412  1.00  0.00     0.001 C
HETATM   22  C15 UNL     1      27.681 -24.540  -6.570  1.00  0.00     0.014 C
ENDBRANCH  15  18
ENDBRANCH  10  14
ENDBRANCH   6   7
ENDBRANCH   5   6
ENDBRANCH   1   5
BRANCH   1  23
HETATM   23  C19 UNL     1      21.234 -33.130  -7.496  1.00  0.00     0.098 C
BRANCH  23  24
HETATM   24  N3  UNL     1      22.057 -34.238  -7.707  1.00  0.00    -0.336 N
HETATM   25  C20 UNL     1      22.811 -34.802  -6.583  1.00  0.00     0.230 C
HETATM   26  O2  UNL     1      22.665 -34.244  -5.484  1.00  0.00    -0.272 OA
ATOM     27  H3  UNL     1      22.134 -34.651  -8.637  1.00  0.00     0.168 HD
BRANCH  25  28
HETATM   28  C21 UNL     1      23.692 -35.957  -6.725  1.00  0.00     0.042 C
HETATM   29  C22 UNL     1      23.035 -36.941  -7.678  1.00  0.00     0.024 C
HETATM   30  C23 UNL     1      23.905 -38.162  -7.785  1.00  0.00    -0.013 C
HETATM   31  C24 UNL     1      25.267 -37.829  -8.350  1.00  0.00     0.009 C
HETATM   32  C28 UNL     1      24.110 -38.808  -6.443  1.00  0.00     0.009 C
HETATM   33  C25 UNL     1      25.901 -36.779  -7.466  1.00  0.00    -0.013 C
HETATM   34  C26 UNL     1      26.114 -37.348  -6.091  1.00  0.00     0.009 C
HETATM   35  C30 UNL     1      25.012 -35.574  -7.361  1.00  0.00     0.024 C
HETATM   36  C27 UNL     1      24.793 -37.822  -5.544  1.00  0.00    -0.013 C
HETATM   37  C29 UNL     1      23.868 -36.622  -5.401  1.00  0.00     0.024 C
ENDBRANCH  25  28
ENDBRANCH  23  24
ENDBRANCH   1  23
TORSDOF 9
ENDMDL