MODEL 4
REMARK VINA RESULT: -7.895677599      4.313      6.511
REMARK  11 active torsions:
REMARK  status: ('A' for Active; 'I' for Inactive)
REMARK    1  A    between atoms: C2_2  and  C3_3
REMARK    2  A    between atoms: C3_3  and  C4_4
REMARK    3  A    between atoms: C4_4  and  N1_5
REMARK    4  A    between atoms: N1_5  and  C5_8
REMARK    5  A    between atoms: C5_8  and  C6_9
REMARK    6  A    between atoms: C6_9  and  C7_10
REMARK    7  A    between atoms: C7_10  and  C8_11
REMARK    8  A    between atoms: C8_11  and  N2_12
REMARK    9  A    between atoms: C15_19  and  C16_20
REMARK   10  A    between atoms: C17_21  and  C18_22
REMARK   11  A    between atoms: C26_31  and  O1_32
ROOT
HETATM    1  N2  UNL     1      30.212 -23.784  -8.796  1.00  0.00     0.093 N
HETATM    2  C9  UNL     1      29.494 -22.537  -9.205  1.00  0.00     0.273 C
HETATM    3  C10 UNL     1      29.962 -22.227 -10.610  1.00  0.00     0.037 C
HETATM    4  C11 UNL     1      30.549 -23.539 -11.014  1.00  0.00     0.026 C
HETATM    5  C12 UNL     1      31.285 -23.865  -9.723  1.00  0.00     0.227 C
HETATM    6  C13 UNL     1      32.158 -25.032  -9.751  1.00  0.00     0.038 C
HETATM    7  C14 UNL     1      33.553 -24.566 -10.165  1.00  0.00     0.025 C
HETATM    8  C15 UNL     1      33.621 -24.187 -11.636  1.00  0.00     0.034 C
HETATM    9  C24 UNL     1      34.013 -22.764 -11.803  1.00  0.00     0.032 C
HETATM   10  C25 UNL     1      35.452 -22.656 -12.356  1.00  0.00     0.014 C
HETATM   11  C26 UNL     1      33.093 -21.903 -12.577  1.00  0.00     0.132 C
HETATM   12  C27 UNL     1      31.786 -22.447 -12.982  1.00  0.00    -0.013 C
HETATM   13  C28 UNL     1      30.789 -21.386 -13.313  1.00  0.00     0.018 C
HETATM   14  C29 UNL     1      32.052 -23.162 -14.341  1.00  0.00     0.012 C
HETATM   15  C30 UNL     1      32.673 -24.468 -13.898  1.00  0.00     0.007 C
HETATM   16  C31 UNL     1      32.398 -24.587 -12.390  1.00  0.00     0.012 C
HETATM   17  C32 UNL     1      31.240 -23.640 -12.264  1.00  0.00     0.008 C
ENDROOT
BRANCH   1  18
HETATM   18  C8  UNL     1      29.292 -24.811  -8.588  1.00  0.00     0.273 C
BRANCH  18  19
HETATM   19  C7  UNL     1      28.731 -25.059  -7.234  1.00  0.00     0.032 C
BRANCH  19  20
HETATM   20  C6  UNL     1      27.196 -24.891  -7.195  1.00  0.00     0.029 C
BRANCH  20  21
HETATM   21  C5  UNL     1      26.500 -25.660  -8.268  1.00  0.00     0.232 C
BRANCH  21  22
HETATM   22  N1  UNL     1      25.410 -26.424  -7.723  1.00  0.00    -0.075 N
ATOM     23  H12 UNL     1      24.518 -25.958  -7.887  1.00  0.00     0.277 HD
ATOM     24  H11 UNL     1      25.421 -26.405  -6.704  1.00  0.00     0.277 HD
BRANCH  22  25
HETATM   25  C4  UNL     1      25.387 -27.763  -8.212  1.00  0.00     0.232 C
BRANCH  25  26
HETATM   26  C3  UNL     1      26.566 -28.531  -7.685  1.00  0.00     0.027 C
BRANCH  26  27
HETATM   27  C2  UNL     1      26.172 -29.960  -7.322  1.00  0.00    -0.003 C
HETATM   28  C1  UNL     1      25.316 -30.579  -8.401  1.00  0.00     0.005 C
ENDBRANCH  26  27
ENDBRANCH  25  26
ENDBRANCH  22  25
ENDBRANCH  21  22
ENDBRANCH  20  21
ENDBRANCH  19  20
ENDBRANCH  18  19
ENDBRANCH   1  18
BRANCH   8  29
HETATM   29  C16 UNL     1      34.720 -25.034 -12.170  1.00  0.00    -0.090 C
HETATM   30  C17 UNL     1      35.611 -25.754 -12.604  1.00  0.00    -0.066 C
BRANCH  30  31
HETATM   31  C18 UNL     1      36.628 -26.616 -13.104  1.00  0.00     0.020 A
HETATM   32  C19 UNL     1      37.161 -26.486 -14.379  1.00  0.00     0.038 A
HETATM   33  C20 UNL     1      38.138 -27.333 -14.847  1.00  0.00     0.091 A
HETATM   34  N3  UNL     1      38.604 -28.326 -14.064  1.00  0.00    -0.371 N
HETATM   35  C21 UNL     1      39.640 -29.243 -14.532  1.00  0.00     0.154 C
HETATM   36  C22 UNL     1      38.090 -28.455 -12.828  1.00  0.00     0.091 A
HETATM   37  C23 UNL     1      37.117 -27.630 -12.328  1.00  0.00     0.038 A
ENDBRANCH  30  31
ENDBRANCH   8  29
BRANCH  11  38
HETATM   38  O1  UNL     1      33.025 -20.637 -11.939  1.00  0.00    -0.394 OA
ATOM     39  H1  UNL     1      32.115 -20.362 -11.921  1.00  0.00     0.210 HD
ENDBRANCH  11  38
TORSDOF 11
ENDMDL