MODEL 3
REMARK VINA RESULT: -7.798279925     11.505     15.983
REMARK  10 active torsions:
REMARK  status: ('A' for Active; 'I' for Inactive)
REMARK    1  A    between atoms: C2_2  and  C3_3
REMARK    2  A    between atoms: C3_3  and  C4_4
REMARK    3  A    between atoms: C4_4  and  C5_5
REMARK    4  A    between atoms: C5_5  and  N1_6
REMARK    5  A    between atoms: N3_28  and  C24_29
REMARK    6  A    between atoms: C24_29  and  C25_30
REMARK    7  A    between atoms: C24_29  and  C26_33
REMARK    8  A    between atoms: C25_30  and  O2_31
REMARK    9  A    between atoms: C26_33  and  C27_34
REMARK   10  A    between atoms: C27_34  and  C28_35
ROOT
HETATM    1  N1  UNL     1      20.915 -37.099  -7.218  1.00  0.00    -0.378 N
HETATM    2  C6  UNL     1      19.832 -36.107  -7.265  1.00  0.00     0.128 C
HETATM    3  C7  UNL     1      20.542 -34.892  -6.678  1.00  0.00     0.061 C
HETATM    4  C8  UNL     1      21.917 -35.059  -7.243  1.00  0.00    -0.021 A
HETATM    5  C9  UNL     1      22.925 -34.095  -7.460  1.00  0.00    -0.040 A
HETATM    6  C10 UNL     1      24.128 -34.460  -8.011  1.00  0.00    -0.036 A
HETATM    7  C11 UNL     1      24.315 -35.795  -8.344  1.00  0.00     0.012 A
HETATM    8  C12 UNL     1      23.305 -36.727  -8.122  1.00  0.00     0.072 A
HETATM    9  N2  UNL     1      23.727 -37.926  -8.540  1.00  0.00    -0.353 N
ATOM     10  H2  UNL     1      23.200 -38.799  -8.502  1.00  0.00     0.166 HD
HETATM   11  C13 UNL     1      24.998 -37.768  -9.027  1.00  0.00     0.043 A
HETATM   12  C14 UNL     1      25.827 -38.740  -9.569  1.00  0.00     0.030 A
HETATM   13  C15 UNL     1      27.089 -38.423 -10.027  1.00  0.00     0.002 A
HETATM   14  C16 UNL     1      27.465 -37.105  -9.912  1.00  0.00     0.001 A
HETATM   15  C17 UNL     1      26.654 -36.113  -9.372  1.00  0.00     0.014 A
HETATM   16  C18 UNL     1      25.399 -36.458  -8.924  1.00  0.00     0.004 A
HETATM   17  C19 UNL     1      22.087 -36.374  -7.564  1.00  0.00     0.065 A
HETATM   18  C20 UNL     1      25.216 -33.512  -8.233  1.00  0.00     0.061 C
HETATM   19  C21 UNL     1      25.017 -32.116  -7.726  1.00  0.00     0.062 C
HETATM   20  C22 UNL     1      26.295 -31.606  -7.017  1.00  0.00     0.028 C
HETATM   21  C23 UNL     1      24.519 -31.142  -8.694  1.00  0.00     0.231 C
HETATM   22  O1  UNL     1      24.817 -30.906  -9.915  1.00  0.00    -0.272 OA
HETATM   23  N3  UNL     1      23.633 -30.629  -7.732  1.00  0.00    -0.338 N
HETATM   24  C30 UNL     1      23.820 -31.834  -6.940  1.00  0.00     0.109 C
HETATM   25  C31 UNL     1      22.636 -32.709  -7.106  1.00  0.00     0.066 C
ENDROOT
BRANCH  23  26
HETATM   26  C24 UNL     1      22.863 -29.436  -7.617  1.00  0.00     0.111 C
BRANCH  26  27
HETATM   27  C25 UNL     1      23.484 -28.433  -6.637  1.00  0.00     0.189 C
BRANCH  27  28
HETATM   28  O2  UNL     1      23.131 -27.164  -7.102  1.00  0.00    -0.399 OA
ATOM     29  H2  UNL     1      22.317 -26.939  -6.669  1.00  0.00     0.209 HD
ENDBRANCH  27  28
ENDBRANCH  26  27
BRANCH  26  30
HETATM   30  C26 UNL     1      21.427 -29.592  -7.233  1.00  0.00     0.027 C
BRANCH  30  31
HETATM   31  C27 UNL     1      20.484 -29.759  -8.372  1.00  0.00     0.002 C
BRANCH  31  32
HETATM   32  C28 UNL     1      21.134 -29.422  -9.710  1.00  0.00    -0.004 C
HETATM   33  C29 UNL     1      20.522 -30.253 -10.819  1.00  0.00     0.005 C
ENDBRANCH  31  32
ENDBRANCH  30  31
ENDBRANCH  26  30
ENDBRANCH  23  26
BRANCH   1  34
HETATM   34  C5  UNL     1      20.748 -38.465  -6.883  1.00  0.00     0.123 C
BRANCH  34  35
HETATM   35  C4  UNL     1      21.154 -38.758  -5.440  1.00  0.00     0.020 C
BRANCH  35  36
HETATM   36  C3  UNL     1      22.631 -38.775  -5.254  1.00  0.00     0.001 C
BRANCH  36  37
HETATM   37  C2  UNL     1      22.978 -37.650  -4.293  1.00  0.00    -0.004 C
HETATM   38  C1  UNL     1      24.239 -36.932  -4.713  1.00  0.00     0.005 C
ENDBRANCH  36  37
ENDBRANCH  35  36
ENDBRANCH  34  35
ENDBRANCH   1  34
TORSDOF 10
ENDMDL