MODEL 2
REMARK VINA RESULT: -10.222761945      0.898      1.110
REMARK  9 active torsions:
REMARK  status: ('A' for Active; 'I' for Inactive)
REMARK    1  A    between atoms: C1_2  and  C2_3
REMARK       I    between atoms: C1_2  and  N2_27
REMARK    2  A    between atoms: C2_3  and  C3_4
REMARK    3  A    between atoms: C9_10  and  C10_11
REMARK    4  A    between atoms: C10_11  and  C11_12
REMARK    5  A    between atoms: C11_12  and  C12_13
REMARK    6  A    between atoms: C12_13  and  N1_14
REMARK    7  A    between atoms: N2_27  and  C25_29
REMARK    8  A    between atoms: C25_29  and  C26_30
REMARK    9  A    between atoms: C26_30  and  C27_31
ROOT
HETATM    1  C3  UNL     1      29.200 -25.371  -8.627  1.00  0.00     0.007 C
HETATM    2  C4  UNL     1      30.192 -25.245  -9.763  1.00  0.00     0.015 C
HETATM    3  C5  UNL     1      31.030 -23.996  -9.624  1.00  0.00     0.019 C
HETATM    4  C6  UNL     1      32.129 -24.000 -10.625  1.00  0.00     0.009 C
HETATM    5  C7  UNL     1      33.278 -24.903 -10.369  1.00  0.00     0.005 C
HETATM    6  C8  UNL     1      33.696 -25.000  -8.910  1.00  0.00     0.039 C
HETATM    7  C9  UNL     1      33.083 -23.832  -8.185  1.00  0.00    -0.055 C
HETATM    8  C19 UNL     1      31.632 -23.999  -8.254  1.00  0.00    -0.051 C
HETATM    9  C20 UNL     1      30.799 -24.161  -7.251  1.00  0.00    -0.009 C
HETATM   10  C21 UNL     1      29.350 -24.325  -7.581  1.00  0.00    -0.018 C
HETATM   11  C22 UNL     1      28.557 -24.596  -6.303  1.00  0.00     0.014 C
HETATM   12  C23 UNL     1      28.340 -23.103  -6.220  1.00  0.00     0.002 C
HETATM   13  C24 UNL     1      28.665 -23.030  -7.702  1.00  0.00     0.014 C
ENDROOT
BRANCH   1  14
HETATM   14  C2  UNL     1      27.832 -25.428  -9.252  1.00  0.00     0.108 C
BRANCH  14  15
HETATM   15  C1  UNL     1      27.002 -26.396  -8.454  1.00  0.00     0.217 C
HETATM   16  O1  UNL     1      25.830 -26.101  -8.095  1.00  0.00    -0.274 OA
HETATM   17  N2  UNL     1      27.543 -27.657  -8.102  1.00  0.00    -0.361 N
ATOM     18  H2  UNL     1      28.495 -27.853  -8.413  1.00  0.00     0.162 HD
BRANCH  17  19
HETATM   19  C25 UNL     1      26.886 -28.679  -7.353  1.00  0.00     0.123 C
BRANCH  19  20
HETATM   20  C26 UNL     1      25.873 -29.469  -8.153  1.00  0.00     0.024 C
BRANCH  20  21
HETATM   21  C27 UNL     1      24.860 -30.169  -7.307  1.00  0.00    -0.010 C
HETATM   22  C28 UNL     1      23.485 -29.913  -7.944  1.00  0.00     0.032 C
HETATM   23  C29 UNL     1      22.498 -30.689  -7.076  1.00  0.00     0.232 C
HETATM   24  N3  UNL     1      22.631 -32.089  -7.397  1.00  0.00    -0.075 N
HETATM   25  C30 UNL     1      23.948 -32.444  -7.842  1.00  0.00     0.232 C
ATOM     26  H32 UNL     1      22.345 -32.671  -6.610  1.00  0.00     0.277 HD
ATOM     27  H31 UNL     1      21.928 -32.372  -8.081  1.00  0.00     0.277 HD
HETATM   28  C31 UNL     1      25.048 -31.643  -7.172  1.00  0.00     0.032 C
ENDBRANCH  20  21
ENDBRANCH  19  20
ENDBRANCH  17  19
ENDBRANCH  14  15
ENDBRANCH   1  14
BRANCH   7  29
HETATM   29  C10 UNL     1      33.724 -23.331  -6.987  1.00  0.00    -0.018 C
BRANCH  29  30
HETATM   30  C11 UNL     1      35.100 -22.838  -6.924  1.00  0.00     0.047 C
BRANCH  30  31
HETATM   31  C12 UNL     1      35.294 -21.342  -6.967  1.00  0.00     0.125 C
BRANCH  31  32
HETATM   32  N1  UNL     1      35.248 -20.830  -8.305  1.00  0.00    -0.393 N
HETATM   33  C13 UNL     1      36.069 -21.545  -9.196  1.00  0.00     0.122 C
HETATM   34  C14 UNL     1      35.346 -21.865 -10.512  1.00  0.00     0.020 C
HETATM   35  C15 UNL     1      34.429 -20.687 -10.801  1.00  0.00     0.002 C
HETATM   36  C16 UNL     1      35.293 -19.479 -10.948  1.00  0.00     0.005 C
HETATM   37  C17 UNL     1      35.704 -18.834  -9.674  1.00  0.00     0.044 C
HETATM   38  C18 UNL     1      35.168 -19.428  -8.422  1.00  0.00     0.058 C
ENDBRANCH  31  32
ENDBRANCH  30  31
ENDBRANCH  29  30
ENDBRANCH   7  29
TORSDOF 9
ENDMDL