MODEL 1
REMARK VINA RESULT: -8.745104806      0.000      0.000
REMARK  9 active torsions:
REMARK  status: ('A' for Active; 'I' for Inactive)
REMARK    1  A    between atoms: C6_6  and  N1_7
REMARK       I    between atoms: N1_7  and  C7_8
REMARK    2  A    between atoms: N1_7  and  C22_31
REMARK    3  A    between atoms: C7_8  and  C8_10
REMARK    4  A    between atoms: C8_10  and  C9_11
REMARK    5  A    between atoms: C8_10  and  N2_16
REMARK    6  A    between atoms: C9_11  and  C10_12
REMARK       I    between atoms: N2_16  and  C14_18
REMARK    7  A    between atoms: C14_18  and  C15_20
REMARK    8  A    between atoms: C18_23  and  C19_24
REMARK    9  A    between atoms: C19_24  and  N3_25
ROOT
HETATM    1  C8  UNL     1      30.783 -21.732 -12.988  1.00  0.00     0.177 C
ENDROOT
BRANCH   1   2
HETATM    2  C7  UNL     1      32.093 -22.313 -13.473  1.00  0.00     0.243 C
HETATM    3  N1  UNL     1      32.987 -22.989 -12.655  1.00  0.00    -0.341 N
HETATM    4  O1  UNL     1      32.357 -22.157 -14.683  1.00  0.00    -0.271 OA
BRANCH   3   5
HETATM    5  C6  UNL     1      32.775 -23.136 -11.238  1.00  0.00     0.088 C
HETATM    6  C5  UNL     1      33.880 -22.320 -10.572  1.00  0.00     0.031 C
HETATM    7  C4  UNL     1      33.740 -22.368  -9.098  1.00  0.00     0.005 A
HETATM    8  C2  UNL     1      34.782 -23.155  -8.356  1.00  0.00    -0.036 A
HETATM    9  C29 UNL     1      33.327 -23.633  -8.506  1.00  0.00    -0.032 A
HETATM   10  C1  UNL     1      35.870 -23.892  -9.065  1.00  0.00     0.016 C
HETATM   11  C3  UNL     1      35.204 -22.570  -7.028  1.00  0.00     0.016 C
HETATM   12  C28 UNL     1      33.134 -24.802  -9.376  1.00  0.00     0.012 C
HETATM   13  C30 UNL     1      32.548 -23.554  -7.185  1.00  0.00     0.016 C
HETATM   14  C27 UNL     1      32.787 -24.572 -10.786  1.00  0.00     0.026 C
ENDBRANCH   3   5
BRANCH   3  15
HETATM   15  C22 UNL     1      34.188 -23.551 -13.289  1.00  0.00     0.087 C
HETATM   16  C23 UNL     1      35.445 -22.938 -12.886  1.00  0.00     0.025 C
HETATM   17  C24 UNL     1      36.522 -23.983 -12.801  1.00  0.00     0.002 C
HETATM   18  C25 UNL     1      35.749 -25.237 -12.604  1.00  0.00     0.002 C
HETATM   19  C26 UNL     1      34.314 -24.998 -12.933  1.00  0.00     0.025 C
ENDBRANCH   3  15
ENDBRANCH   1   2
BRANCH   1  20
HETATM   20  C9  UNL     1      30.863 -20.230 -12.850  1.00  0.00     0.039 C
BRANCH  20  21
HETATM   21  C10 UNL     1      31.473 -19.801 -11.559  1.00  0.00    -0.012 C
HETATM   22  C11 UNL     1      30.761 -18.570 -10.963  1.00  0.00     0.005 C
HETATM   23  C12 UNL     1      32.139 -18.192 -10.414  1.00  0.00     0.001 C
HETATM   24  C13 UNL     1      32.683 -18.939 -11.650  1.00  0.00     0.005 C
ENDBRANCH  20  21
ENDBRANCH   1  20
BRANCH   1  25
HETATM   25  N2  UNL     1      30.393 -22.409 -11.771  1.00  0.00    -0.347 N
HETATM   26  C14 UNL     1      29.099 -22.713 -11.315  1.00  0.00     0.222 C
HETATM   27  O2  UNL     1      28.095 -22.409 -12.005  1.00  0.00    -0.273 OA
ATOM     28  H2  UNL     1      31.158 -22.704 -11.163  1.00  0.00     0.163 HD
BRANCH  26  29
HETATM   29  C15 UNL     1      28.892 -23.393 -10.004  1.00  0.00     0.078 C
HETATM   30  C16 UNL     1      29.542 -24.745 -10.012  1.00  0.00     0.014 C
HETATM   31  C17 UNL     1      28.928 -25.529  -8.858  1.00  0.00     0.007 C
HETATM   32  C18 UNL     1      29.230 -24.822  -7.581  1.00  0.00     0.011 C
HETATM   33  C20 UNL     1      28.984 -23.351  -7.574  1.00  0.00     0.007 C
HETATM   34  C21 UNL     1      29.397 -22.633  -8.830  1.00  0.00     0.014 C
BRANCH  32  35
HETATM   35  C19 UNL     1      28.327 -25.446  -6.510  1.00  0.00     0.234 C
BRANCH  35  36
HETATM   36  N3  UNL     1      26.986 -24.899  -6.592  1.00  0.00    -0.079 N
ATOM     37  H33 UNL     1      26.767 -24.573  -7.533  1.00  0.00     0.274 HD
ATOM     38  H32 UNL     1      26.276 -25.626  -6.513  1.00  0.00     0.274 HD
ATOM     39  H31 UNL     1      26.855 -24.165  -5.896  1.00  0.00     0.274 HD
ENDBRANCH  35  36
ENDBRANCH  32  35
ENDBRANCH  26  29
ENDBRANCH   1  25
TORSDOF 9
ENDMDL