MODEL 3
REMARK VINA RESULT: -9.120153500      1.626      1.921
REMARK  6 active torsions:
REMARK  status: ('A' for Active; 'I' for Inactive)
REMARK    1  A    between atoms: C2_2  and  C3_3
REMARK    2  A    between atoms: C3_3  and  C4_4
REMARK    3  A    between atoms: C4_4  and  O1_5
REMARK    4  A    between atoms: C4_4  and  N1_7
REMARK    5  A    between atoms: C7_12  and  O2_13
REMARK    6  A    between atoms: O2_13  and  C8_14
ROOT
HETATM    1  N1  UNL     1      27.442   8.052  -1.389  1.00  0.00    -0.347 N
ATOM      2  H1  UNL     1      27.275   8.722  -2.140  1.00  0.00     0.163 HD
HETATM    3  C5  UNL     1      27.728   8.625  -0.319  1.00  0.00     0.153 A
HETATM    4  C6  UNL     1      28.013   8.035   0.891  1.00  0.00     0.130 A
HETATM    5 CL1  UNL     1      28.000   6.293   1.052  1.00  0.00    -0.076 Cl
HETATM    6  C7  UNL     1      28.323   8.751   2.042  1.00  0.00     0.170 A
HETATM    7  N2  UNL     1      28.349  10.088   1.979  1.00  0.00    -0.319 N
ATOM      8  H2  UNL     1      28.573  10.647   2.803  1.00  0.00     0.169 HD
HETATM    9  C14 UNL     1      28.070  10.678   0.793  1.00  0.00     0.153 A
HETATM   10  C15 UNL     1      28.032  12.042   0.470  1.00  0.00     0.107 A
HETATM   11  C16 UNL     1      28.299  13.119   1.404  1.00  0.00     0.105 C
HETATM   12  N3  UNL     1      28.530  13.975   2.153  1.00  0.00    -0.191 NA
HETATM   13  C17 UNL     1      27.703  12.122  -0.854  1.00  0.00     0.134 A
HETATM   14  N4  UNL     1      27.555  10.883  -1.288  1.00  0.00    -0.300 N
ATOM     15  H4  UNL     1      27.308  10.635  -2.245  1.00  0.00     0.186 HD
HETATM   16  N5  UNL     1      27.771  10.000  -0.318  1.00  0.00    -0.221 N
ENDROOT
BRANCH   6  17
HETATM   17  O2  UNL     1      28.602   8.102   3.234  1.00  0.00    -0.326 OA
BRANCH  17  18
HETATM   18  C8  UNL     1      27.655   7.710   4.170  1.00  0.00     0.160 C
HETATM   19  C9  UNL     1      28.108   6.368   4.756  1.00  0.00     0.035 C
HETATM   20  C10 UNL     1      27.025   5.777   5.626  1.00  0.00     0.017 C
HETATM   21  C11 UNL     1      29.211   6.825   5.648  1.00  0.00    -0.022 C
HETATM   22  C12 UNL     1      29.001   8.083   6.029  1.00  0.00    -0.008 C
HETATM   23  C13 UNL     1      27.725   8.571   5.415  1.00  0.00     0.135 C
HETATM   24 CL2  UNL     1      27.807  10.296   5.034  1.00  0.00    -0.118 Cl
ENDBRANCH  17  18
ENDBRANCH   6  17
BRANCH   1  25
HETATM   25  C4  UNL     1      27.291   6.735  -1.832  1.00  0.00     0.219 C
BRANCH  25  26
HETATM   26  C3  UNL     1      25.803   6.328  -1.821  1.00  0.00     0.053 C
BRANCH  26  27
HETATM   27  C2  UNL     1      25.646   4.907  -2.317  1.00  0.00    -0.000 C
HETATM   28  C1  UNL     1      26.030   3.997  -1.169  1.00  0.00     0.005 C
ENDBRANCH  26  27
ENDBRANCH  25  26
BRANCH  25  29
HETATM   29  O1  UNL     1      27.771   6.522  -3.149  1.00  0.00    -0.377 OA
ATOM     30  H1  UNL     1      28.714   6.418  -3.090  1.00  0.00     0.212 HD
ENDBRANCH  25  29
ENDBRANCH   1  25
TORSDOF 6
ENDMDL