MODEL 3
REMARK VINA RESULT: -8.155369223      1.481      1.689
REMARK  5 active torsions:
REMARK  status: ('A' for Active; 'I' for Inactive)
REMARK    1  A    between atoms: C3_3  and  C4_4
REMARK    2  A    between atoms: C4_4  and  C5_5
REMARK    3  A    between atoms: C9_16  and  C10_17
REMARK    4  A    between atoms: C10_17  and  C12_20
REMARK    5  A    between atoms: C12_20  and  C13_21
ROOT
HETATM    1  C1  UNL     1      27.605   6.443  -0.420  1.00  0.00     0.050 C
HETATM    2  C2  UNL     1      27.096   5.738   0.827  1.00  0.00    -0.033 A
HETATM    3  C3  UNL     1      26.298   4.637   0.681  1.00  0.00     0.002 A
HETATM    4  S1  UNL     1      25.940   4.167   2.267  1.00  0.00    -0.075 SA
HETATM    5  C6  UNL     1      26.809   5.378   3.103  1.00  0.00     0.090 A
HETATM    6  N1  UNL     1      26.865   5.496   4.468  1.00  0.00    -0.316 N
ATOM      7  H1  UNL     1      26.337   4.788   4.980  1.00  0.00     0.170 HD
HETATM    8  C7  UNL     1      27.508   6.401   5.249  1.00  0.00     0.269 C
HETATM    9  O3  UNL     1      27.500   6.233   6.476  1.00  0.00    -0.266 OA
HETATM   10  C8  UNL     1      28.194   7.525   4.822  1.00  0.00     0.114 C
HETATM   11 CL1  UNL     1      29.303   8.276   5.994  1.00  0.00    -0.077 Cl
HETATM   12  C9  UNL     1      28.160   8.070   3.538  1.00  0.00     0.024 C
HETATM   13  C16 UNL     1      28.202   7.260   2.379  1.00  0.00     0.072 C
HETATM   14  N2  UNL     1      29.178   7.595   1.460  1.00  0.00    -0.100 NA
HETATM   15  C17 UNL     1      27.368   6.133   2.106  1.00  0.00     0.030 A
ENDROOT
BRANCH  12  16
HETATM   16  C10 UNL     1      28.027   9.503   3.408  1.00  0.00    -0.033 C
HETATM   17  C11 UNL     1      27.288  10.183   4.244  1.00  0.00     0.092 C
HETATM   18 CL2  UNL     1      26.346   9.604   5.590  1.00  0.00    -0.096 Cl
BRANCH  16  19
HETATM   19  C12 UNL     1      28.716  10.237   2.301  1.00  0.00     0.044 C
BRANCH  19  20
HETATM   20  C13 UNL     1      27.940  11.150   1.440  1.00  0.00    -0.018 C
HETATM   21  C14 UNL     1      28.493  12.511   1.187  1.00  0.00     0.010 C
HETATM   22  C15 UNL     1      27.361  10.494   0.184  1.00  0.00     0.010 C
ENDBRANCH  19  20
ENDBRANCH  16  19
ENDBRANCH  12  16
BRANCH   3  23
HETATM   23  C4  UNL     1      25.808   3.952  -0.565  1.00  0.00     0.159 C
BRANCH  23  24
HETATM   24  C5  UNL     1      25.688   2.487  -0.339  1.00  0.00     0.177 C
HETATM   25  O1  UNL     1      26.631   1.835   0.125  1.00  0.00    -0.648 OA
HETATM   26  O2  UNL     1      24.515   1.807  -0.640  1.00  0.00    -0.648 OA
ENDBRANCH  23  24
ENDBRANCH   3  23
TORSDOF 5
ENDMDL