MODEL 4
REMARK VINA RESULT: -8.175534012      3.532      6.404
REMARK  7 active torsions:
REMARK  status: ('A' for Active; 'I' for Inactive)
REMARK    1  A    between atoms: C2_2  and  C3_3
REMARK    2  A    between atoms: C3_3  and  C4_4
REMARK    3  A    between atoms: C6_6  and  O1_7
REMARK    4  A    between atoms: N1_9  and  C7_10
REMARK    5  A    between atoms: C7_10  and  C8_11
REMARK    6  A    between atoms: C12_16  and  C13_17
REMARK    7  A    between atoms: N2_26  and  N3_27
ROOT
HETATM    1  C4  UNL     1      28.120  11.452   1.271  1.00  0.00    -0.025 A
HETATM    2  C5  UNL     1      28.804  12.665   1.438  1.00  0.00     0.065 A
HETATM    3  C6  UNL     1      29.775  12.657   0.508  1.00  0.00     0.143 A
HETATM    4  N1  UNL     1      29.765  11.512  -0.250  1.00  0.00    -0.323 N
HETATM    5  C12 UNL     1      28.757  10.780   0.217  1.00  0.00     0.073 A
ENDROOT
BRANCH   5   6
HETATM    6  C13 UNL     1      28.310   9.412  -0.142  1.00  0.00     0.109 A
HETATM    7  C14 UNL     1      28.495   8.340   0.713  1.00  0.00     0.072 A
HETATM    8 CL1  UNL     1      29.480   8.531   2.176  1.00  0.00    -0.081 Cl
HETATM    9  C15 UNL     1      28.014   7.070   0.494  1.00  0.00    -0.011 A
HETATM   10  C16 UNL     1      28.223   5.937   1.425  1.00  0.00     0.052 C
HETATM   11  C17 UNL     1      27.301   6.845  -0.660  1.00  0.00     0.111 A
HETATM   12 CL2  UNL     1      26.663   5.245  -0.996  1.00  0.00    -0.078 Cl
HETATM   13  C18 UNL     1      27.112   7.902  -1.518  1.00  0.00     0.288 A
HETATM   14  O3  UNL     1      26.455   7.700  -2.583  1.00  0.00    -0.264 OA
HETATM   15  N2  UNL     1      27.603   9.155  -1.266  1.00  0.00    -0.222 N
BRANCH  15  16
HETATM   16  N3  UNL     1      27.317  10.181  -2.152  1.00  0.00    -0.335 N
ATOM     17  H32 UNL     1      27.540  10.059  -3.140  1.00  0.00     0.177 HD
ATOM     18  H31 UNL     1      26.852  11.026  -1.819  1.00  0.00     0.177 HD
ENDBRANCH  15  16
ENDBRANCH   5   6
BRANCH   1  19
HETATM   19  C3  UNL     1      26.909  11.094   2.040  1.00  0.00     0.041 C
BRANCH  19  20
HETATM   20  C2  UNL     1      27.270  11.334   3.523  1.00  0.00     0.000 C
HETATM   21  C1  UNL     1      27.263  10.037   4.301  1.00  0.00     0.005 C
ENDBRANCH  19  20
ENDBRANCH   1  19
BRANCH   4  22
HETATM   22  C7  UNL     1      30.653  11.235  -1.321  1.00  0.00     0.163 C
BRANCH  22  23
HETATM   23  C8  UNL     1      30.460  11.870  -2.623  1.00  0.00     0.140 C
HETATM   24  C9  UNL     1      31.697  12.048  -3.421  1.00  0.00     0.035 C
HETATM   25  C10 UNL     1      31.178  11.927  -4.863  1.00  0.00     0.029 C
HETATM   26  C11 UNL     1      29.730  11.601  -4.674  1.00  0.00     0.168 C
HETATM   27  O2  UNL     1      29.667  10.994  -3.431  1.00  0.00    -0.384 OA
ENDBRANCH  22  23
ENDBRANCH   4  22
BRANCH   3  28
HETATM   28  O1  UNL     1      30.691  13.661   0.310  1.00  0.00    -0.346 OA
ATOM     29  H1  UNL     1      31.528  13.560  -0.126  1.00  0.00     0.219 HD
ENDBRANCH   3  28
TORSDOF 7
ENDMDL