MODEL 1
REMARK VINA RESULT: -8.445626124      0.000      0.000
REMARK  8 active torsions:
REMARK  status: ('A' for Active; 'I' for Inactive)
REMARK    1  A    between atoms: N2_7  and  C4_8
REMARK    2  A    between atoms: C8_12  and  N3_13
REMARK    3  A    between atoms: N3_13  and  C9_15
REMARK    4  A    between atoms: C12_19  and  O1_20
REMARK    5  A    between atoms: O1_20  and  C13_21
REMARK    6  A    between atoms: C13_21  and  C14_22
REMARK    7  A    between atoms: C14_22  and  N4_23
REMARK    8  A    between atoms: C18_27  and  O2_28
ROOT
HETATM    1  C9  UNL     1      27.862   7.887   2.382  1.00  0.00     0.069 A
HETATM    2  C10 UNL     1      27.781   8.996   3.227  1.00  0.00     0.059 A
HETATM    3  C11 UNL     1      27.478  10.209   2.727  1.00  0.00     0.069 A
HETATM    4 CL2  UNL     1      27.386  11.592   3.837  1.00  0.00    -0.081 Cl
HETATM    5  C12 UNL     1      27.230  10.439   1.366  1.00  0.00     0.093 A
HETATM    6  C17 UNL     1      27.314   9.335   0.556  1.00  0.00     0.077 A
HETATM    7  C18 UNL     1      27.620   8.094   1.042  1.00  0.00     0.095 A
ENDROOT
BRANCH   1   8
HETATM    8  N3  UNL     1      28.162   6.616   2.900  1.00  0.00    -0.338 N
ATOM      9  H3  UNL     1      28.786   6.064   2.311  1.00  0.00     0.167 HD
BRANCH   8  10
HETATM   10  C8  UNL     1      27.803   6.032   3.959  1.00  0.00     0.132 A
HETATM   11  C2  UNL     1      28.113   6.319   5.268  1.00  0.00     0.024 A
HETATM   12  C1  UNL     1      28.957   7.391   5.842  1.00  0.00     0.056 C
HETATM   13  C3  UNL     1      27.447   5.352   6.023  1.00  0.00     0.128 A
HETATM   14 CL1  UNL     1      27.498   5.247   7.765  1.00  0.00    -0.062 Cl
HETATM   15  N1  UNL     1      26.791   4.558   5.165  1.00  0.00    -0.285 N
HETATM   16  N2  UNL     1      26.971   4.921   3.935  1.00  0.00    -0.266 N
ATOM     17  H1  UNL     1      26.218   3.763   5.448  1.00  0.00     0.188 HD
BRANCH  16  18
HETATM   18  C4  UNL     1      26.437   4.325   2.725  1.00  0.00     0.044 C
HETATM   19  C5  UNL     1      25.704   3.062   3.110  1.00  0.00     0.039 C
HETATM   20  C6  UNL     1      27.521   3.961   1.749  1.00  0.00     0.039 C
HETATM   21  C7  UNL     1      25.425   5.265   2.078  1.00  0.00     0.039 C
ENDBRANCH  16  18
ENDBRANCH   8  10
ENDBRANCH   1   8
BRANCH   7  22
HETATM   22  O2  UNL     1      27.697   6.987   0.179  1.00  0.00    -0.358 OA
ATOM     23  H2  UNL     1      27.885   7.149  -0.737  1.00  0.00     0.217 HD
ENDBRANCH   7  22
BRANCH   5  24
HETATM   24  O1  UNL     1      26.938  11.693   1.001  1.00  0.00    -0.348 OA
BRANCH  24  25
HETATM   25  C13 UNL     1      27.636  12.774   0.546  1.00  0.00     0.206 C
BRANCH  25  26
HETATM   26  C14 UNL     1      27.785  12.921  -0.947  1.00  0.00     0.297 C
BRANCH  26  27
HETATM   27  N4  UNL     1      29.147  12.535  -1.268  1.00  0.00     0.082 N
HETATM   28  C15 UNL     1      29.999  12.526  -0.112  1.00  0.00     0.309 C
HETATM   29  C16 UNL     1      29.238  11.365  -2.080  1.00  0.00     0.309 C
ENDBRANCH  26  27
ENDBRANCH  25  26
ENDBRANCH  24  25
ENDBRANCH   5  24
TORSDOF 8
ENDMDL