MODEL 5
REMARK VINA RESULT: -8.132475292      2.169      4.555
REMARK  8 active torsions:
REMARK  status: ('A' for Active; 'I' for Inactive)
REMARK    1  A    between atoms: C3_3  and  C4_4
REMARK    2  A    between atoms: C4_4  and  N1_7
REMARK    3  A    between atoms: N1_7  and  C7_8
REMARK       I    between atoms: N1_7  and  C12_14
REMARK    4  A    between atoms: C7_8  and  C8_9
REMARK    5  A    between atoms: C12_14  and  C13_16
REMARK    6  A    between atoms: C13_16  and  C14_19
REMARK    7  A    between atoms: C14_19  and  O3_20
REMARK    8  A    between atoms: N2_22  and  O4_24
ROOT
HETATM    1  N1  UNL     1      27.327   8.591   1.398  1.00  0.00    -0.307 N
HETATM    2  C12 UNL     1      27.935   9.860   1.316  1.00  0.00     0.306 C
HETATM    3  O2  UNL     1      29.058  10.079   1.913  1.00  0.00    -0.266 OA
ENDROOT
BRANCH   1   4
HETATM    4  C4  UNL     1      28.055   7.528   2.087  1.00  0.00     0.060 C
HETATM    5  C5  UNL     1      29.500   8.076   1.972  1.00  0.00     0.044 C
HETATM    6  C6  UNL     1      28.053   6.265   1.240  1.00  0.00     0.044 C
BRANCH   4   7
HETATM    7  C3  UNL     1      27.724   7.178   3.456  1.00  0.00    -0.006 A
HETATM    8  C2  UNL     1      27.394   5.998   3.945  1.00  0.00     0.021 A
HETATM    9  C1  UNL     1      27.256   4.657   3.295  1.00  0.00     0.055 C
HETATM   10  C18 UNL     1      27.163   6.071   5.391  1.00  0.00     0.290 A
HETATM   11  O5  UNL     1      27.367   7.349   5.778  1.00  0.00    -0.302 OA
HETATM   12  O6  UNL     1      26.833   5.161   6.207  1.00  0.00    -0.260 OA
HETATM   13  C15 UNL     1      27.813   8.069   4.648  1.00  0.00     0.090 A
HETATM   14  C16 UNL     1      26.945   9.292   4.635  1.00  0.00     0.051 C
HETATM   15  C17 UNL     1      29.206   8.502   5.016  1.00  0.00     0.051 C
ENDBRANCH   4   7
ENDBRANCH   1   4
BRANCH   1  16
HETATM   16  C7  UNL     1      26.136   8.284   0.703  1.00  0.00     0.132 C
BRANCH  16  17
HETATM   17  C8  UNL     1      26.103   7.732  -0.640  1.00  0.00     0.090 A
HETATM   18  C9  UNL     1      27.214   7.979  -1.496  1.00  0.00     0.040 A
HETATM   19  C10 UNL     1      26.962   7.371  -2.691  1.00  0.00     0.027 A
HETATM   20  C11 UNL     1      25.736   6.773  -2.566  1.00  0.00     0.142 A
HETATM   21  O1  UNL     1      25.329   7.032  -1.373  1.00  0.00    -0.321 OA
ENDBRANCH  16  17
ENDBRANCH   1  16
BRANCH   2  22
HETATM   22  C13 UNL     1      27.459  11.054   0.594  1.00  0.00     0.387 C
HETATM   23  F1  UNL     1      27.262  10.937  -0.736  1.00  0.00    -0.186 F
HETATM   24  F2  UNL     1      26.145  11.340   1.085  1.00  0.00    -0.186 F
BRANCH  22  25
HETATM   25  C14 UNL     1      28.283  12.249   0.986  1.00  0.00     0.219 C
HETATM   26  N2  UNL     1      29.182  12.703   0.170  1.00  0.00    -0.245 N
ATOM     27  H2  UNL     1      29.305  12.230  -0.725  1.00  0.00     0.196 HD
BRANCH  25  28
HETATM   28  O3  UNL     1      28.154  12.920   2.181  1.00  0.00    -0.343 OA
ATOM     29  H3  UNL     1      27.482  12.737   2.827  1.00  0.00     0.219 HD
ENDBRANCH  25  28
BRANCH  26  30
HETATM   30  O4  UNL     1      29.975  13.786   0.448  1.00  0.00    -0.288 OA
ATOM     31  H4  UNL     1      30.917  13.789   0.325  1.00  0.00     0.244 HD
ENDBRANCH  26  30
ENDBRANCH  22  25
ENDBRANCH   2  22
TORSDOF 8
ENDMDL