MODEL 5
REMARK VINA RESULT: -8.836735544      2.126      5.642
REMARK  9 active torsions:
REMARK  status: ('A' for Active; 'I' for Inactive)
REMARK    1  A    between atoms: O1_2  and  C2_3
REMARK    2  A    between atoms: C2_3  and  C7_14
REMARK    3  A    between atoms: N1_4  and  C3_6
REMARK    4  A    between atoms: C3_6  and  C4_10
REMARK    5  A    between atoms: C8_18  and  C9_19
REMARK    6  A    between atoms: C8_18  and  C16_29
REMARK    7  A    between atoms: C9_19  and  C10_20
REMARK    8  A    between atoms: C13_23  and  O3_24
REMARK    9  A    between atoms: C16_29  and  N4_30
ROOT
HETATM    1  C7  UNL     1      26.904   9.211   0.499  1.00  0.00     0.086 C
HETATM    2  N3  UNL     1      26.004   8.480   1.019  1.00  0.00    -0.266 N
ATOM      3  H3  UNL     1      25.565   8.691   1.915  1.00  0.00     0.194 HD
HETATM    4  O2  UNL     1      25.678   7.382   0.268  1.00  0.00    -0.266 OA
HETATM    5  C8  UNL     1      26.748   7.154  -0.667  1.00  0.00     0.124 C
HETATM    6  C19 UNL     1      27.270   8.554  -0.797  1.00  0.00     0.106 C
ENDROOT
BRANCH   5   7
HETATM    7  C9  UNL     1      27.701   6.172  -0.089  1.00  0.00     0.081 C
BRANCH   7   8
HETATM    8  C10 UNL     1      27.117   5.117   0.753  1.00  0.00    -0.053 A
HETATM    9  C11 UNL     1      26.453   4.004   0.267  1.00  0.00     0.010 A
HETATM   10  C12 UNL     1      25.926   3.054   1.117  1.00  0.00     0.039 A
HETATM   11  C13 UNL     1      26.038   3.173   2.484  1.00  0.00     0.087 A
HETATM   12  C14 UNL     1      26.692   4.269   2.989  1.00  0.00     0.067 A
HETATM   13 CL1  UNL     1      26.843   4.436   4.724  1.00  0.00    -0.081 Cl
HETATM   14  C15 UNL     1      27.204   5.196   2.127  1.00  0.00     0.034 A
BRANCH  11  15
HETATM   15  O3  UNL     1      25.506   2.215   3.354  1.00  0.00    -0.359 OA
ATOM     16  H3  UNL     1      24.788   1.649   3.097  1.00  0.00     0.217 HD
ENDBRANCH  11  15
ENDBRANCH   7   8
ENDBRANCH   5   7
BRANCH   5  17
HETATM   17  C16 UNL     1      26.135   6.743  -1.960  1.00  0.00     0.312 C
BRANCH  17  18
HETATM   18  N4  UNL     1      26.918   5.907  -2.808  1.00  0.00     0.083 N
HETATM   19  C17 UNL     1      27.388   6.643  -3.984  1.00  0.00     0.309 C
HETATM   20  C18 UNL     1      26.269   4.704  -3.251  1.00  0.00     0.309 C
ENDBRANCH  17  18
ENDBRANCH   5  17
BRANCH   1  21
HETATM   21  C2  UNL     1      27.490  10.446   1.018  1.00  0.00     0.168 C
HETATM   22  N1  UNL     1      27.672  10.734   2.224  1.00  0.00    -0.323 N
ATOM     23  H1  UNL     1      28.098  11.650   2.366  1.00  0.00     0.169 HD
BRANCH  21  24
HETATM   24  O1  UNL     1      27.900  11.428   0.084  1.00  0.00    -0.339 OA
HETATM   25  C1  UNL     1      27.660  12.815   0.357  1.00  0.00     0.211 C
ENDBRANCH  21  24
BRANCH  22  26
HETATM   26  C3  UNL     1      27.412  10.058   3.404  1.00  0.00     0.116 C
HETATM   27  N2  UNL     1      26.507  10.484   4.217  1.00  0.00    -0.386 N
ATOM     28  H22 UNL     1      26.015  11.337   3.951  1.00  0.00     0.157 HD
ATOM     29  H21 UNL     1      26.315   9.986   5.086  1.00  0.00     0.157 HD
BRANCH  26  30
HETATM   30  C4  UNL     1      28.136   8.804   3.795  1.00  0.00     0.153 C
HETATM   31  C5  UNL     1      28.730   8.919   5.177  1.00  0.00     0.060 C
HETATM   32  C6  UNL     1      29.241   8.511   2.826  1.00  0.00     0.060 C
HETATM   33  F1  UNL     1      27.228   7.737   3.836  1.00  0.00    -0.235 F
ENDBRANCH  26  30
ENDBRANCH  22  26
ENDBRANCH   1  21
TORSDOF 9
ENDMDL