MODEL 3
REMARK VINA RESULT: -8.095452013      1.540      2.202
REMARK  7 active torsions:
REMARK  status: ('A' for Active; 'I' for Inactive)
REMARK    1  A    between atoms: C2_2  and  N1_3
REMARK    2  A    between atoms: N1_3  and  C3_4
REMARK       I    between atoms: N1_3  and  C14_22
REMARK    3  A    between atoms: C3_4  and  C4_5
REMARK    4  A    between atoms: C5_6  and  O1_7
REMARK    5  A    between atoms: N2_9  and  C6_10
REMARK    6  A    between atoms: C6_10  and  C7_11
REMARK    7  A    between atoms: C14_22  and  O4_24
ROOT
HETATM    1  C4  UNL     1      27.904   7.745   1.674  1.00  0.00     0.043 A
HETATM    2  C5  UNL     1      27.475   8.827   0.876  1.00  0.00     0.156 A
HETATM    3  N2  UNL     1      27.380   9.937   1.623  1.00  0.00    -0.317 N
HETATM    4  C8  UNL     1      27.717   9.686   2.892  1.00  0.00     0.070 A
HETATM    5  C9  UNL     1      27.768  10.456   4.023  1.00  0.00     0.063 A
HETATM    6 CL1  UNL     1      27.332  12.139   4.005  1.00  0.00    -0.082 Cl
HETATM    7  C10 UNL     1      28.148   9.913   5.257  1.00  0.00     0.050 A
HETATM    8  C11 UNL     1      28.461   8.592   5.273  1.00  0.00     0.036 A
HETATM    9 CL2  UNL     1      28.932   7.823   6.772  1.00  0.00    -0.084 Cl
HETATM   10  C12 UNL     1      28.419   7.791   4.151  1.00  0.00     0.038 A
HETATM   11  C13 UNL     1      28.046   8.302   2.916  1.00  0.00     0.010 A
ENDROOT
BRANCH   1  12
HETATM   12  C3  UNL     1      28.104   6.396   1.161  1.00  0.00     0.113 C
BRANCH  12  13
HETATM   13  N1  UNL     1      27.097   5.427   1.211  1.00  0.00    -0.303 N
HETATM   14  C14 UNL     1      26.907   4.503   2.296  1.00  0.00     0.366 C
HETATM   15  O3  UNL     1      27.670   4.561   3.298  1.00  0.00    -0.238 OA
BRANCH  13  16
HETATM   16  C2  UNL     1      26.188   5.299   0.070  1.00  0.00     0.129 C
HETATM   17  C1  UNL     1      26.925   5.309  -1.243  1.00  0.00     0.027 C
ENDBRANCH  13  16
BRANCH  14  18
HETATM   18  O4  UNL     1      25.923   3.541   2.310  1.00  0.00    -0.309 OA
HETATM   19  C15 UNL     1      25.508   2.813   3.448  1.00  0.00     0.215 C
ENDBRANCH  14  18
ENDBRANCH  12  13
ENDBRANCH   1  12
BRANCH   2  20
HETATM   20  O1  UNL     1      27.214   8.670  -0.471  1.00  0.00    -0.345 OA
ATOM     21  H1  UNL     1      27.612   9.236  -1.122  1.00  0.00     0.219 HD
ENDBRANCH   2  20
BRANCH   3  22
HETATM   22  C6  UNL     1      26.927  11.185   1.075  1.00  0.00     0.223 C
BRANCH  22  23
HETATM   23  C7  UNL     1      27.962  11.991   0.397  1.00  0.00     0.215 C
HETATM   24  O2  UNL     1      28.864  12.534   0.968  1.00  0.00    -0.283 OA
HETATM   25  S1  UNL     1      27.973  12.247  -1.405  1.00  0.00    -0.010 SA
ENDBRANCH  22  23
ENDBRANCH   3  22
TORSDOF 7
ENDMDL