MODEL 3
REMARK VINA RESULT: -8.415701117      1.107      1.453
REMARK  7 active torsions:
REMARK  status: ('A' for Active; 'I' for Inactive)
REMARK    1  A    between atoms: O1_1  and  C1_3
REMARK    2  A    between atoms: C3_5  and  C4_6
REMARK    3  A    between atoms: C4_6  and  O2_7
REMARK    4  A    between atoms: C4_6  and  N1_9
REMARK    5  A    between atoms: N2_22  and  C14_23
REMARK    6  A    between atoms: C14_23  and  C15_24
REMARK    7  A    between atoms: C15_24  and  N3_25
ROOT
HETATM    1  C4  UNL     1      28.598   7.789   1.702  1.00  0.00     0.256 C
ENDROOT
BRANCH   1   2
HETATM    2  C3  UNL     1      28.289   9.195   2.063  1.00  0.00     0.010 A
HETATM    3  C2  UNL     1      27.593   9.555   3.191  1.00  0.00     0.069 A
HETATM    4  C1  UNL     1      27.504  10.953   3.164  1.00  0.00     0.142 A
HETATM    5  N2  UNL     1      28.109  11.427   2.089  1.00  0.00    -0.336 N
HETATM    6  C13 UNL     1      28.592  10.361   1.408  1.00  0.00     0.104 A
BRANCH   4   7
HETATM    7  O1  UNL     1      26.839  11.654   4.194  1.00  0.00    -0.346 OA
ATOM      8  H1  UNL     1      25.933  11.923   4.093  1.00  0.00     0.219 HD
ENDBRANCH   4   7
BRANCH   5   9
HETATM    9  C14 UNL     1      28.232  12.830   1.724  1.00  0.00     0.160 C
BRANCH   9  10
HETATM   10  C15 UNL     1      29.319  13.162   0.799  1.00  0.00     0.292 C
BRANCH  10  11
HETATM   11  N3  UNL     1      29.133  13.195  -0.573  1.00  0.00     0.090 N
HETATM   12  C16 UNL     1      27.905  13.068  -1.217  1.00  0.00     0.274 C
HETATM   13  C17 UNL     1      28.429  11.864  -1.970  1.00  0.00     0.060 C
HETATM   14  C18 UNL     1      29.782  12.304  -1.457  1.00  0.00     0.274 C
ENDBRANCH  10  11
ENDBRANCH   9  10
ENDBRANCH   5   9
ENDBRANCH   1   2
BRANCH   1  15
HETATM   15  O2  UNL     1      29.962   7.827   1.281  1.00  0.00    -0.372 OA
ATOM     16  H2  UNL     1      30.455   7.642   2.071  1.00  0.00     0.212 HD
ENDBRANCH   1  15
BRANCH   1  17
HETATM   17  N1  UNL     1      27.775   7.254   0.656  1.00  0.00    -0.346 N
HETATM   18  C5  UNL     1      27.505   8.037  -0.527  1.00  0.00     0.153 C
HETATM   19  C6  UNL     1      26.717   7.343  -1.581  1.00  0.00     0.195 C
HETATM   20  O3  UNL     1      26.874   5.928  -1.586  1.00  0.00    -0.347 OA
HETATM   21  C7  UNL     1      26.754   5.274  -0.373  1.00  0.00     0.097 A
HETATM   22  C8  UNL     1      26.206   4.016  -0.318  1.00  0.00     0.064 A
HETATM   23  C12 UNL     1      27.214   5.954   0.763  1.00  0.00     0.068 A
HETATM   24  C9  UNL     1      26.101   3.382   0.926  1.00  0.00     0.058 A
HETATM   25 CL1  UNL     1      25.403   1.791   0.959  1.00  0.00    -0.082 Cl
HETATM   26  C10 UNL     1      26.553   4.055   2.044  1.00  0.00     0.058 A
HETATM   27 CL2  UNL     1      26.404   3.226   3.588  1.00  0.00    -0.082 Cl
HETATM   28  C11 UNL     1      27.100   5.317   1.973  1.00  0.00     0.057 A
ENDBRANCH   1  17
TORSDOF 7
ENDMDL