MODEL 5
REMARK VINA RESULT: -7.930870139      3.557      7.789
REMARK  6 active torsions:
REMARK  status: ('A' for Active; 'I' for Inactive)
REMARK    1  A    between atoms: C2_2  and  C3_3
REMARK    2  A    between atoms: C3_3  and  C4_4
REMARK    3  A    between atoms: C4_4  and  N1_5
REMARK    4  A    between atoms: N1_5  and  C5_7
REMARK    5  A    between atoms: N4_12  and  C7_13
REMARK    6  A    between atoms: C10_17  and  N5_18
ROOT
HETATM    1  C5  UNL     1      28.617  12.994   2.644  1.00  0.00     0.188 C
HETATM    2  N2  UNL     1      27.709  12.245   3.536  1.00  0.00    -0.343 N
ATOM      3  H2  UNL     1      27.304  12.712   4.348  1.00  0.00     0.164 HD
HETATM    4  C6  UNL     1      27.422  11.009   3.302  1.00  0.00     0.192 C
HETATM    5  N3  UNL     1      26.538  10.338   4.199  1.00  0.00    -0.063 NA
HETATM    6  N4  UNL     1      27.940  10.292   2.202  1.00  0.00    -0.319 N
HETATM    7  C16 UNL     1      28.685  10.961   1.204  1.00  0.00     0.144 C
HETATM    8  C17 UNL     1      28.567  12.483   1.261  1.00  0.00     0.007 C
HETATM    9  C18 UNL     1      27.426  12.940   0.399  1.00  0.00     0.020 C
HETATM   10  C19 UNL     1      29.848  12.989   0.565  1.00  0.00     0.020 C
ENDROOT
BRANCH   6  11
HETATM   11  C7  UNL     1      27.696   8.906   2.124  1.00  0.00     0.060 A
HETATM   12  C8  UNL     1      26.957   8.433   1.028  1.00  0.00     0.057 A
HETATM   13  C9  UNL     1      26.672   7.083   0.882  1.00  0.00     0.062 A
HETATM   14 CL1  UNL     1      25.739   6.564  -0.503  1.00  0.00    -0.082 Cl
HETATM   15  C10 UNL     1      27.114   6.196   1.815  1.00  0.00     0.053 A
HETATM   16  C14 UNL     1      27.847   6.671   2.903  1.00  0.00     0.057 A
HETATM   17  C15 UNL     1      28.137   8.001   3.061  1.00  0.00     0.063 A
HETATM   18 CL2  UNL     1      29.059   8.511   4.440  1.00  0.00    -0.082 Cl
BRANCH  15  19
HETATM   19  N5  UNL     1      26.860   4.794   1.719  1.00  0.00    -0.379 N
HETATM   20  C11 UNL     1      27.445   3.705   0.911  1.00  0.00     0.124 C
HETATM   21  C12 UNL     1      26.104   3.045   0.934  1.00  0.00     0.040 C
HETATM   22  C13 UNL     1      26.003   3.783   2.281  1.00  0.00     0.124 C
ENDBRANCH  15  19
ENDBRANCH   6  11
BRANCH   1  23
HETATM   23  N1  UNL     1      28.459  14.343   2.938  1.00  0.00    -0.401 N
ATOM     24  H1  UNL     1      28.515  15.017   2.175  1.00  0.00     0.155 HD
BRANCH  23  25
HETATM   25  C4  UNL     1      28.224  14.819   4.236  1.00  0.00     0.115 C
BRANCH  25  26
HETATM   26  C3  UNL     1      29.513  15.251   4.949  1.00  0.00     0.019 C
BRANCH  26  27
HETATM   27  C2  UNL     1      29.430  14.915   6.410  1.00  0.00    -0.003 C
HETATM   28  C1  UNL     1      28.196  14.079   6.629  1.00  0.00     0.005 C
ENDBRANCH  26  27
ENDBRANCH  25  26
ENDBRANCH  23  25
ENDBRANCH   1  23
TORSDOF 6
ENDMDL