MODEL 4
REMARK VINA RESULT: -8.206839464      0.827      1.139
REMARK  7 active torsions:
REMARK  status: ('A' for Active; 'I' for Inactive)
REMARK    1  A    between atoms: O1_2  and  C2_3
REMARK    2  A    between atoms: C4_5  and  O2_6
REMARK    3  A    between atoms: N1_16  and  C11_18
REMARK    4  A    between atoms: C11_18  and  C12_19
REMARK    5  A    between atoms: C12_19  and  C13_20
REMARK    6  A    between atoms: C13_20  and  N2_21
REMARK    7  A    between atoms: N2_21  and  O3_23
ROOT
HETATM    1  C2  UNL     1      27.574   6.010   4.758  1.00  0.00     0.081 A
HETATM    2  C3  UNL     1      27.016   4.740   4.880  1.00  0.00     0.075 A
HETATM    3  C4  UNL     1      26.746   4.020   3.745  1.00  0.00     0.092 A
HETATM    4  C5  UNL     1      27.038   4.580   2.513  1.00  0.00     0.101 A
HETATM    5 CL1  UNL     1      26.705   3.685   1.033  1.00  0.00    -0.078 Cl
HETATM    6  C6  UNL     1      27.588   5.828   2.362  1.00  0.00     0.103 A
HETATM    7  C7  UNL     1      27.864   6.565   3.519  1.00  0.00     0.025 A
HETATM    8  C8  UNL     1      28.448   7.906   3.571  1.00  0.00     0.102 C
HETATM    9 BR1  UNL     1      28.342   8.739   5.304  1.00  0.00    -0.086 Br
HETATM   10  C9  UNL     1      27.726   8.848   2.624  1.00  0.00     0.075 C
HETATM   11  C10 UNL     1      27.928   8.551   1.211  1.00  0.00     0.008 C
HETATM   12  N1  UNL     1      27.559   9.453   0.395  1.00  0.00    -0.395 N
ATOM     13  H1  UNL     1      27.690   9.268  -0.598  1.00  0.00     0.159 HD
HETATM   14  C15 UNL     1      28.501   7.345   0.551  1.00  0.00     0.227 C
HETATM   15  O4  UNL     1      27.797   6.189   1.034  1.00  0.00    -0.343 OA
ENDROOT
BRANCH  12  16
HETATM   16  C11 UNL     1      26.974  10.706   0.757  1.00  0.00     0.120 C
BRANCH  16  17
HETATM   17  C12 UNL     1      27.577  11.887   0.052  1.00  0.00     0.036 C
BRANCH  17  18
HETATM   18  C13 UNL     1      28.937  12.244   0.552  1.00  0.00     0.121 C
BRANCH  18  19
HETATM   19  N2  UNL     1      29.022  13.627   1.037  1.00  0.00    -0.204 NA
HETATM   20  C14 UNL     1      28.530  13.671   2.407  1.00  0.00     0.143 C
BRANCH  19  21
HETATM   21  O3  UNL     1      30.306  14.064   0.977  1.00  0.00    -0.314 OA
ATOM     22  H3  UNL     1      30.568  14.421   1.817  1.00  0.00     0.237 HD
ENDBRANCH  19  21
ENDBRANCH  18  19
ENDBRANCH  17  18
ENDBRANCH  16  17
ENDBRANCH  12  16
BRANCH   1  23
HETATM   23  O1  UNL     1      27.833   6.705   5.913  1.00  0.00    -0.355 OA
HETATM   24  C1  UNL     1      28.002   5.962   7.127  1.00  0.00     0.210 C
ENDBRANCH   1  23
BRANCH   3  25
HETATM   25  O2  UNL     1      26.186   2.741   3.802  1.00  0.00    -0.359 OA
ATOM     26  H2  UNL     1      26.141   2.181   3.036  1.00  0.00     0.217 HD
ENDBRANCH   3  25
TORSDOF 7
ENDMDL