MODEL 2
REMARK VINA RESULT: -4.903239593      0.602      2.077
REMARK  1 active torsions:
REMARK  status: ('A' for Active; 'I' for Inactive)
REMARK    1  A    between atoms: C1_4  and  C2_6
ROOT
HETATM    1  C2  UNL     1       7.837  36.880  27.220  1.00  0.00     0.016 C
HETATM    2  C3  UNL     1       8.034  38.342  27.065  1.00  0.00     0.021 C
HETATM    3  C4  UNL     1       7.260  38.847  25.864  1.00  0.00    -0.013 C
HETATM    4  C5  UNL     1       5.796  38.610  26.124  1.00  0.00     0.009 C
HETATM    5  C6  UNL     1       5.598  37.114  26.270  1.00  0.00    -0.013 C
HETATM    6  C7  UNL     1       6.013  36.467  24.995  1.00  0.00     0.009 C
HETATM    7  C8  UNL     1       7.511  36.625  24.785  1.00  0.00    -0.013 C
HETATM    8  C9  UNL     1       7.772  38.111  24.651  1.00  0.00     0.009 C
HETATM    9  C10 UNL     1       8.227  36.092  25.987  1.00  0.00     0.021 C
HETATM   10  C11 UNL     1       6.362  36.610  27.451  1.00  0.00     0.021 C
ENDROOT
BRANCH   1  11
HETATM   11  C1  UNL     1       8.654  36.368  28.353  1.00  0.00     0.095 C
HETATM   12  N1  UNL     1       9.239  37.199  29.119  1.00  0.00    -0.390 N
ATOM     13  H12 UNL     1       9.800  36.848  29.895  1.00  0.00     0.157 HD
ATOM     14  H11 UNL     1       9.146  38.200  28.948  1.00  0.00     0.157 HD
HETATM   15  N2  UNL     1       8.784  34.967  28.592  1.00  0.00    -0.087 NA
ENDBRANCH   1  11
TORSDOF 1
ENDMDL