MODEL 2
REMARK VINA RESULT: -5.971635400      1.842      2.250
REMARK  3 active torsions:
REMARK  status: ('A' for Active; 'I' for Inactive)
REMARK    1  A    between atoms: C2_2  and  C4_5
REMARK    2  A    between atoms: C4_5  and  N2_9
REMARK    3  A    between atoms: C5_11  and  C6_13
ROOT
HETATM    1  N2  UNL     1       8.054  36.057  25.477  1.00  0.00    -0.335 N
ATOM      2  H2  UNL     1       8.826  35.817  24.855  1.00  0.00     0.168 HD
HETATM    3  C5  UNL     1       8.173  35.809  26.737  1.00  0.00     0.098 C
HETATM    4  N3  UNL     1       7.116  36.131  27.635  1.00  0.00    -0.087 NA
ENDROOT
BRANCH   1   5
HETATM    5  C4  UNL     1       6.899  36.647  24.924  1.00  0.00     0.115 C
HETATM    6  N1  UNL     1       5.811  35.996  24.678  1.00  0.00    -0.386 N
ATOM      7  H12 UNL     1       4.975  36.422  24.279  1.00  0.00     0.157 HD
ATOM      8  H11 UNL     1       5.817  35.001  24.908  1.00  0.00     0.157 HD
BRANCH   5   9
HETATM    9  C2  UNL     1       6.890  38.099  24.589  1.00  0.00     0.153 C
HETATM   10  C1  UNL     1       8.158  38.368  23.805  1.00  0.00     0.060 C
HETATM   11  C3  UNL     1       5.648  38.480  23.812  1.00  0.00     0.060 C
HETATM   12  F1  UNL     1       6.942  38.895  25.716  1.00  0.00    -0.235 F
ENDBRANCH   5   9
ENDBRANCH   1   5
BRANCH   3  13
HETATM   13  C6  UNL     1       9.380  35.197  27.298  1.00  0.00     0.050 C
HETATM   14  C7  UNL     1       9.594  33.775  26.901  1.00  0.00     0.012 C
HETATM   15  C8  UNL     1      10.524  33.286  27.995  1.00  0.00     0.001 C
HETATM   16  C9  UNL     1       9.786  33.798  29.239  1.00  0.00     0.001 C
HETATM   17  C10 UNL     1       9.418  35.212  28.804  1.00  0.00     0.012 C
ENDBRANCH   3  13
TORSDOF 3
ENDMDL