MODEL 5
REMARK VINA RESULT: -4.511619113      1.682      2.429
REMARK  1 active torsions:
REMARK  status: ('A' for Active; 'I' for Inactive)
REMARK    1  A    between atoms: N1_2  and  C2_5
ROOT
HETATM    1  C2  UNL     1       8.318  36.860  27.651  1.00  0.00     0.193 C
HETATM    2  C3  UNL     1       8.089  35.908  26.515  1.00  0.00     0.041 C
HETATM    3  C4  UNL     1       7.080  36.683  25.652  1.00  0.00     0.028 C
HETATM    4  C5  UNL     1       7.850  37.766  24.968  1.00  0.00     0.012 C
HETATM    5  C6  UNL     1       7.540  39.145  25.495  1.00  0.00    -0.014 C
HETATM    6  C7  UNL     1       6.250  39.623  24.893  1.00  0.00     0.005 C
HETATM    7  C8  UNL     1       5.162  38.589  24.956  1.00  0.00     0.004 C
HETATM    8  C9  UNL     1       5.041  38.003  26.335  1.00  0.00     0.044 C
HETATM    9  C10 UNL     1       6.180  37.177  26.763  1.00  0.00     0.113 C
HETATM   10  F1  UNL     1       5.763  36.049  27.469  1.00  0.00    -0.242 F
HETATM   11  C11 UNL     1       7.190  37.876  27.641  1.00  0.00     0.057 C
HETATM   12  C12 UNL     1       7.571  39.169  26.986  1.00  0.00     0.014 C
ENDROOT
BRANCH   1  13
HETATM   13  N1  UNL     1       8.303  36.207  28.943  1.00  0.00    -0.074 N
HETATM   14  C1  UNL     1       9.151  35.039  28.985  1.00  0.00     0.267 C
ATOM     15  H12 UNL     1       7.350  35.978  29.226  1.00  0.00     0.277 HD
ATOM     16  H11 UNL     1       8.543  36.861  29.688  1.00  0.00     0.277 HD
ENDBRANCH   1  13
TORSDOF 1
ENDMDL