MODEL 1
REMARK VINA RESULT: -5.308454945      0.000      0.000
REMARK  2 active torsions:
REMARK  status: ('A' for Active; 'I' for Inactive)
REMARK    1  A    between atoms: C2_2  and  C4_4
REMARK    2  A    between atoms: C7_7  and  C8_8
ROOT
HETATM    1  C4  UNL     1       7.062  37.574  26.651  1.00  0.00     0.010 C
HETATM    2  C5  UNL     1       5.705  37.960  27.258  1.00  0.00     0.023 C
HETATM    3  C6  UNL     1       7.388  36.130  26.970  1.00  0.00     0.028 C
HETATM    4  C7  UNL     1       8.892  36.023  27.097  1.00  0.00     0.051 C
HETATM    5  C9  UNL     1       9.227  36.565  28.494  1.00  0.00     0.015 C
HETATM    6  C10 UNL     1       8.394  37.817  28.663  1.00  0.00     0.039 C
HETATM    7  C11 UNL     1       8.084  38.449  27.298  1.00  0.00     0.182 C
HETATM    8  F1  UNL     1       7.526  39.697  27.602  1.00  0.00    -0.248 F
ENDROOT
BRANCH   4   9
HETATM    9  C8  UNL     1       9.398  34.668  26.903  1.00  0.00     0.090 C
HETATM   10  N1  UNL     1       9.571  34.147  25.742  1.00  0.00    -0.391 N
ATOM     11  H12 UNL     1       9.335  34.730  24.939  1.00  0.00     0.157 HD
ATOM     12  H11 UNL     1       9.925  33.201  25.607  1.00  0.00     0.157 HD
HETATM   13  N2  UNL     1       9.726  33.859  28.019  1.00  0.00    -0.088 NA
ENDBRANCH   4   9
BRANCH   1  14
HETATM   14  C2  UNL     1       6.943  37.708  25.197  1.00  0.00    -0.082 C
HETATM   15  C1  UNL     1       7.759  38.387  24.427  1.00  0.00     0.015 C
HETATM   16  C3  UNL     1       5.775  36.994  24.564  1.00  0.00     0.043 C
ENDBRANCH   1  14
TORSDOF 2
ENDMDL