MODEL 5
REMARK VINA RESULT: -4.823557196      2.286      3.716
REMARK  1 active torsions:
REMARK  status: ('A' for Active; 'I' for Inactive)
REMARK    1  A    between atoms: C10_15  and  C11_16
ROOT
HETATM    1  N1  UNL     1       8.808  39.844  29.691  1.00  0.00    -0.389 N
ATOM      2  H11 UNL     1       8.382  40.764  29.587  1.00  0.00     0.157 HD
ATOM      3  H12 UNL     1       9.617  39.583  30.256  1.00  0.00     0.157 HD
HETATM    4  C1  UNL     1       8.241  38.928  29.021  1.00  0.00     0.074 C
HETATM    5  N2  UNL     1       8.850  37.615  29.169  1.00  0.00    -0.380 N
ATOM      6  H2  UNL     1       9.094  37.477  30.150  1.00  0.00     0.160 HD
HETATM    7  C2  UNL     1       9.225  36.463  28.443  1.00  0.00     0.121 C
HETATM    8  C3  UNL     1       8.184  35.735  27.603  1.00  0.00     0.024 C
HETATM    9  C4  UNL     1       7.147  36.779  27.351  1.00  0.00    -0.007 C
HETATM   10  C5  UNL     1       5.760  36.580  27.032  1.00  0.00     0.005 C
HETATM   11  C6  UNL     1       5.066  37.914  27.365  1.00  0.00     0.001 C
HETATM   12  C7  UNL     1       5.750  38.709  28.469  1.00  0.00     0.012 C
HETATM   13  C8  UNL     1       7.050  39.312  28.189  1.00  0.00     0.053 C
HETATM   14  C9  UNL     1       7.389  39.211  26.707  1.00  0.00     0.019 C
HETATM   15  C10 UNL     1       7.820  37.772  26.552  1.00  0.00     0.019 C
ENDROOT
BRANCH  15  16
HETATM   16  C11 UNL     1       7.790  37.469  25.077  1.00  0.00     0.227 C
HETATM   17  F1  UNL     1       8.758  37.998  24.311  1.00  0.00    -0.255 F
ENDBRANCH  15  16
TORSDOF 1
ENDMDL