MODEL 5
REMARK VINA RESULT: -4.996727601      1.461      2.445
REMARK  2 active torsions:
REMARK  status: ('A' for Active; 'I' for Inactive)
REMARK    1  A    between atoms: C2_2  and  N2_6
REMARK    2  A    between atoms: N2_6  and  C3_8
ROOT
HETATM    1  C3  UNL     1       7.803  36.534  26.834  1.00  0.00     0.122 C
HETATM    2  C4  UNL     1       8.786  37.092  27.833  1.00  0.00     0.028 C
HETATM    3  C5  UNL     1       8.039  38.058  28.729  1.00  0.00     0.002 C
HETATM    4  C6  UNL     1       7.474  39.219  27.974  1.00  0.00     0.005 C
HETATM    5  C7  UNL     1       6.251  38.836  27.154  1.00  0.00    -0.011 C
HETATM    6  C8  UNL     1       5.345  40.073  27.054  1.00  0.00     0.010 C
HETATM    7  C9  UNL     1       6.719  38.535  25.765  1.00  0.00     0.034 A
HETATM    8  C10 UNL     1       6.277  37.369  24.999  1.00  0.00     0.054 A
HETATM    9  C11 UNL     1       7.660  37.430  25.622  1.00  0.00     0.128 A
HETATM   10  F1  UNL     1       8.760  37.503  24.822  1.00  0.00    -0.240 F
ENDROOT
BRANCH   1  11
HETATM   11  N2  UNL     1       8.173  35.233  26.342  1.00  0.00    -0.373 N
ATOM     12  H2  UNL     1       7.453  34.690  25.865  1.00  0.00     0.161 HD
BRANCH  11  13
HETATM   13  C2  UNL     1       9.444  34.650  26.465  1.00  0.00     0.066 C
HETATM   14  C1  UNL     1       9.688  33.759  27.629  1.00  0.00     0.088 C
HETATM   15  N1  UNL     1      10.413  34.830  25.646  1.00  0.00    -0.389 N
ATOM     16  H12 UNL     1      11.337  34.406  25.735  1.00  0.00     0.157 HD
ATOM     17  H11 UNL     1      10.246  35.441  24.847  1.00  0.00     0.157 HD
ENDBRANCH  11  13
ENDBRANCH   1  11
TORSDOF 2
ENDMDL