MODEL 1
REMARK VINA RESULT: -4.362973443      0.000      0.000
REMARK  1 active torsions:
REMARK  status: ('A' for Active; 'I' for Inactive)
REMARK    1  A    between atoms: N1_1  and  C1_5
ROOT
HETATM    1  C1  UNL     1       7.993  35.880  26.085  1.00  0.00     0.191 C
HETATM    2  C2  UNL     1       7.633  36.675  27.316  1.00  0.00     0.018 C
HETATM    3  C3  UNL     1       8.063  38.104  27.253  1.00  0.00     0.011 C
HETATM    4  C4  UNL     1       7.412  38.772  26.041  1.00  0.00    -0.012 C
HETATM    5  C5  UNL     1       7.942  38.055  24.828  1.00  0.00     0.011 C
HETATM    6  C6  UNL     1       7.530  36.613  24.862  1.00  0.00     0.018 C
HETATM    7  C7  UNL     1       5.994  36.605  24.915  1.00  0.00     0.032 C
HETATM    8  C8  UNL     1       5.511  37.212  26.195  1.00  0.00     0.038 C
HETATM    9 CL1  UNL     1       3.754  37.034  26.270  1.00  0.00    -0.119 Cl
HETATM   10  C9  UNL     1       5.925  38.686  26.176  1.00  0.00     0.030 C
HETATM   11  C10 UNL     1       6.104  36.608  27.427  1.00  0.00     0.032 C
ENDROOT
BRANCH   1  12
HETATM   12  N1  UNL     1       9.357  35.463  26.044  1.00  0.00    -0.074 N
ATOM     13  H13 UNL     1       9.694  35.435  25.081  1.00  0.00     0.274 HD
ATOM     14  H12 UNL     1       9.966  36.191  26.419  1.00  0.00     0.274 HD
ATOM     15  H11 UNL     1       9.532  34.575  26.511  1.00  0.00     0.274 HD
ENDBRANCH   1  12
TORSDOF 1
ENDMDL