MODEL 1
REMARK VINA RESULT: -4.733468593      0.000      0.000
REMARK  2 active torsions:
REMARK  status: ('A' for Active; 'I' for Inactive)
REMARK    1  A    between atoms: C1_2  and  N1_4
REMARK    2  A    between atoms: N1_4  and  C2_6
ROOT
HETATM    1  C2  UNL     1       8.985  35.437  26.451  1.00  0.00     0.083 C
HETATM    2  C3  UNL     1       8.251  35.899  27.716  1.00  0.00     0.025 C
HETATM    3  C4  UNL     1       9.354  36.029  28.765  1.00  0.00     0.002 C
HETATM    4  C5  UNL     1      10.007  34.720  29.025  1.00  0.00     0.000 C
HETATM    5  C6  UNL     1      10.418  33.943  27.810  1.00  0.00     0.002 C
HETATM    6  C7  UNL     1       9.407  34.025  26.685  1.00  0.00     0.025 C
ENDROOT
BRANCH   1   7
HETATM    7  N1  UNL     1       8.248  35.624  25.253  1.00  0.00    -0.370 N
ATOM      8  H1  UNL     1       8.351  34.896  24.547  1.00  0.00     0.161 HD
BRANCH   7   9
HETATM    9  C1  UNL     1       7.397  36.687  24.922  1.00  0.00     0.145 C
HETATM   10  S1  UNL     1       8.007  38.133  24.491  1.00  0.00    -0.052 SA
HETATM   11  S2  UNL     1       5.606  36.425  24.971  1.00  0.00    -0.021 SA
ENDBRANCH   7   9
ENDBRANCH   1   7
TORSDOF 2
ENDMDL