MODEL 3
REMARK VINA RESULT: -4.334430058      1.364      3.022
REMARK  2 active torsions:
REMARK  status: ('A' for Active; 'I' for Inactive)
REMARK    1  A    between atoms: C10_10  and  C11_11
REMARK    2  A    between atoms: C11_11  and  N1_12
ROOT
HETATM    1  C1  UNL     1       4.979  36.491  24.167  1.00  0.00     0.011 C
HETATM    2  C2  UNL     1       5.912  36.387  25.324  1.00  0.00    -0.004 C
HETATM    3  C3  UNL     1       7.343  36.665  24.970  1.00  0.00    -0.009 C
HETATM    4  C4  UNL     1       8.206  36.177  26.117  1.00  0.00     0.010 C
HETATM    5  C5  UNL     1       7.829  36.950  27.352  1.00  0.00    -0.013 C
HETATM    6  C6  UNL     1       8.113  38.401  27.135  1.00  0.00     0.009 C
HETATM    7  C7  UNL     1       7.279  38.914  25.985  1.00  0.00    -0.013 C
HETATM    8  C8  UNL     1       7.548  38.138  24.709  1.00  0.00     0.010 C
HETATM    9  C9  UNL     1       5.824  38.691  26.322  1.00  0.00     0.016 C
HETATM   10  C10 UNL     1       5.527  37.229  26.505  1.00  0.00    -0.012 C
HETATM   11  C12 UNL     1       6.372  36.737  27.663  1.00  0.00     0.016 C
ENDROOT
BRANCH  10  12
HETATM   12  C11 UNL     1       4.054  37.110  26.844  1.00  0.00     0.239 C
BRANCH  12  13
HETATM   13  N1  UNL     1       3.949  36.374  28.084  1.00  0.00    -0.079 N
ATOM     14  H13 UNL     1       3.009  36.015  28.255  1.00  0.00     0.274 HD
ATOM     15  H12 UNL     1       4.432  35.475  28.055  1.00  0.00     0.274 HD
ATOM     16  H11 UNL     1       4.284  36.981  28.832  1.00  0.00     0.274 HD
ENDBRANCH  12  13
ENDBRANCH  10  12
TORSDOF 2
ENDMDL