MODEL 1
REMARK VINA RESULT: -5.407471745      0.000      0.000
REMARK  1 active torsions:
REMARK  status: ('A' for Active; 'I' for Inactive)
REMARK    1  A    between atoms: C5_5  and  C6_6
ROOT
HETATM    1  C1  UNL     1       9.493  34.241  28.695  1.00  0.00     0.011 C
HETATM    2  C2  UNL     1       9.345  35.563  27.924  1.00  0.00     0.007 C
HETATM    3  C3  UNL     1       8.114  36.275  28.310  1.00  0.00     0.008 C
HETATM    4  C4  UNL     1       7.040  36.361  27.298  1.00  0.00     0.035 C
HETATM    5  C5  UNL     1       7.519  36.391  25.875  1.00  0.00     0.216 C
HETATM    6  N2  UNL     1       8.384  35.275  25.676  1.00  0.00    -0.069 N
ATOM      7  H21 UNL     1       8.633  35.187  24.691  1.00  0.00     0.277 HD
ATOM      8  H22 UNL     1       7.876  34.400  25.805  1.00  0.00     0.277 HD
HETATM    9  C11 UNL     1       9.551  35.296  26.484  1.00  0.00     0.237 C
ENDROOT
BRANCH   5  10
HETATM   10  C6  UNL     1       8.178  37.688  25.494  1.00  0.00     0.216 C
HETATM   11  C7  UNL     1       7.306  38.880  25.713  1.00  0.00     0.035 C
HETATM   12  C8  UNL     1       6.190  38.892  24.712  1.00  0.00     0.004 C
HETATM   13  C9  UNL     1       6.791  39.121  23.339  1.00  0.00     0.027 C
HETATM   14  C10 UNL     1       8.261  38.789  23.354  1.00  0.00     0.233 C
HETATM   15  N1  UNL     1       8.561  37.617  24.116  1.00  0.00    -0.069 N
ATOM     16  H12 UNL     1       9.551  37.385  24.035  1.00  0.00     0.277 HD
ATOM     17  H11 UNL     1       8.151  36.793  23.676  1.00  0.00     0.277 HD
ENDBRANCH   5  10
TORSDOF 1
ENDMDL