MODEL 3
REMARK VINA RESULT: -7.114696882      3.583      5.887
REMARK  13 active torsions:
REMARK  status: ('A' for Active; 'I' for Inactive)
REMARK    1  A    between atoms: C2_2  and  C3_3
REMARK    2  A    between atoms: C12_13  and  O2_14
REMARK    3  A    between atoms: C13_16  and  O3_18
REMARK    4  A    between atoms: C15_20  and  O4_21
REMARK    5  A    between atoms: C22_29  and  C24_31
REMARK    6  A    between atoms: C24_31  and  O5_32
REMARK    7  A    between atoms: O5_32  and  C25_33
REMARK    8  A    between atoms: C28_37  and  N1_38
REMARK    9  A    between atoms: N1_38  and  C30_40
REMARK   10  A    between atoms: C30_40  and  C31_41
REMARK   11  A    between atoms: C31_41  and  N2_42
REMARK   12  A    between atoms: N2_42  and  C32_43
REMARK   13  A    between atoms: N2_42  and  C34_45
ROOT
HETATM    1  C3  UNL     1       4.320  43.771  25.428  1.00  0.00    -0.020 C
HETATM    2  C4  UNL     1       3.575  45.097  25.197  1.00  0.00     0.020 C
HETATM    3  C5  UNL     1       3.676  42.792  24.471  1.00  0.00     0.016 C
HETATM    4  C6  UNL     1       4.287  43.045  23.126  1.00  0.00     0.037 C
HETATM    5  C7  UNL     1       5.653  42.342  23.159  1.00  0.00     0.152 C
HETATM    6  O1  UNL     1       6.123  42.321  21.912  1.00  0.00    -0.370 OA
HETATM    7  C8  UNL     1       6.475  41.196  21.242  1.00  0.00     0.071 A
HETATM    8  C9  UNL     1       5.092  40.490  21.045  1.00  0.00     0.047 C
HETATM    9  C10 UNL     1       7.409  41.266  20.101  1.00  0.00     0.053 A
HETATM   10  C11 UNL     1       8.292  42.280  19.607  1.00  0.00     0.017 C
HETATM   11  C12 UNL     1       9.061  43.297  20.287  1.00  0.00     0.076 C
HETATM   12  C13 UNL     1      10.166  43.120  21.200  1.00  0.00     0.128 C
HETATM   13  C14 UNL     1      10.319  44.585  21.752  1.00  0.00     0.056 C
HETATM   14  C15 UNL     1      10.447  42.209  22.258  1.00  0.00     0.167 C
HETATM   15  C16 UNL     1       9.436  41.292  22.921  1.00  0.00     0.051 C
HETATM   16  C17 UNL     1       8.297  41.851  23.544  1.00  0.00    -0.018 C
HETATM   17  C18 UNL     1       7.760  42.771  24.440  1.00  0.00     0.002 C
HETATM   18  C19 UNL     1       6.415  43.030  24.253  1.00  0.00    -0.047 C
HETATM   19  C20 UNL     1       5.755  44.027  25.185  1.00  0.00     0.025 C
HETATM   20  C21 UNL     1       6.581  44.136  26.434  1.00  0.00     0.016 C
HETATM   21  C22 UNL     1       8.869  40.257  21.939  1.00  0.00    -0.006 C
HETATM   22  C23 UNL     1       9.913  39.767  20.965  1.00  0.00     0.018 C
HETATM   23  C38 UNL     1       7.617  40.409  21.261  1.00  0.00     0.042 A
ENDROOT
BRANCH  21  24
HETATM   24  C24 UNL     1       8.766  39.001  22.865  1.00  0.00     0.183 C
BRANCH  24  25
HETATM   25  O5  UNL     1       7.477  38.517  22.888  1.00  0.00    -0.338 OA
BRANCH  25  26
HETATM   26  C25 UNL     1       6.985  38.265  24.154  1.00  0.00     0.413 C
HETATM   27  O6  UNL     1       7.466  39.150  25.104  1.00  0.00    -0.332 OA
HETATM   28  C26 UNL     1       6.894  38.974  26.322  1.00  0.00     0.158 C
HETATM   29  C27 UNL     1       5.951  40.169  26.538  1.00  0.00     0.042 C
HETATM   30  C28 UNL     1       6.255  37.671  26.618  1.00  0.00     0.279 C
HETATM   31  C36 UNL     1       6.472  36.612  25.577  1.00  0.00     0.158 C
HETATM   32  C37 UNL     1       5.190  36.230  24.871  1.00  0.00     0.042 C
HETATM   33  O7  UNL     1       7.393  36.985  24.607  1.00  0.00    -0.332 OA
BRANCH  30  34
HETATM   34  N1  UNL     1       6.583  37.152  27.932  1.00  0.00     0.095 N
HETATM   35  C29 UNL     1       5.807  37.734  28.985  1.00  0.00     0.310 C
BRANCH  34  36
HETATM   36  C30 UNL     1       7.983  37.076  28.193  1.00  0.00     0.302 C
BRANCH  36  37
HETATM   37  C31 UNL     1       8.372  35.972  29.128  1.00  0.00     0.302 C
BRANCH  37  38
HETATM   38  N2  UNL     1       9.526  35.217  28.733  1.00  0.00     0.089 N
BRANCH  38  39
HETATM   39  C32 UNL     1       9.245  34.729  27.371  1.00  0.00     0.268 C
HETATM   40  C33 UNL     1       9.685  33.269  27.242  1.00  0.00     0.037 C
ENDBRANCH  38  39
BRANCH  38  41
HETATM   41  C34 UNL     1       9.536  33.992  29.550  1.00  0.00     0.268 C
HETATM   42  C35 UNL     1       9.404  34.388  30.995  1.00  0.00     0.037 C
ENDBRANCH  38  41
ENDBRANCH  37  38
ENDBRANCH  36  37
ENDBRANCH  34  36
ENDBRANCH  30  34
ENDBRANCH  25  26
ENDBRANCH  24  25
ENDBRANCH  21  24
BRANCH  14  43
HETATM   43  O4  UNL     1      11.613  41.395  22.096  1.00  0.00    -0.391 OA
ATOM     44  H4  UNL     1      11.583  40.756  21.394  1.00  0.00     0.210 HD
ENDBRANCH  14  43
BRANCH  12  45
HETATM   45  O3  UNL     1      11.396  43.107  20.435  1.00  0.00    -0.381 OA
ATOM     46  H3  UNL     1      11.768  43.981  20.449  1.00  0.00     0.211 HD
ENDBRANCH  12  45
BRANCH  11  47
HETATM   47  O2  UNL     1       8.182  44.404  20.574  1.00  0.00    -0.362 OA
ATOM     48  H2  UNL     1       8.714  45.131  20.876  1.00  0.00     0.217 HD
ENDBRANCH  11  47
BRANCH   1  49
HETATM   49  C2  UNL     1       4.018  43.380  26.840  1.00  0.00    -0.027 C
HETATM   50  C1  UNL     1       3.067  42.453  27.003  1.00  0.00     0.007 C
ENDBRANCH   1  49
TORSDOF 13
ENDMDL