MODEL 4
REMARK VINA RESULT: -7.754901346      2.740      9.723
REMARK  15 active torsions:
REMARK  status: ('A' for Active; 'I' for Inactive)
REMARK    1  A    between atoms: C2_2  and  O1_3
REMARK    2  A    between atoms: O1_3  and  C3_4
REMARK    3  A    between atoms: C3_4  and  C4_5
REMARK    4  A    between atoms: C4_5  and  C5_6
REMARK    5  A    between atoms: C4_5  and  O4_14
REMARK    6  A    between atoms: C5_6  and  C6_7
REMARK    7  A    between atoms: C6_7  and  C7_8
REMARK       I    between atoms: C7_8  and  N1_10
REMARK    8  A    between atoms: N1_10  and  O3_12
REMARK    9  A    between atoms: O4_14  and  C10_15
REMARK   10  A    between atoms: C11_16  and  C12_17
REMARK   11  A    between atoms: C12_17  and  O5_18
REMARK   12  A    between atoms: C16_23  and  O6_24
REMARK   13  A    between atoms: C23_32  and  O7_33
REMARK   14  A    between atoms: O7_33  and  C24_34
REMARK   15  A    between atoms: C28_39  and  O9_40
ROOT
HETATM    1  C10 UNL     1       8.745  41.096  21.305  1.00  0.00     0.135 C
HETATM    2  C11 UNL     1       8.790  39.952  20.379  1.00  0.00     0.039 C
HETATM    3  C13 UNL     1       7.362  39.524  19.957  1.00  0.00     0.016 C
HETATM    4  C14 UNL     1       6.429  40.573  20.421  1.00  0.00     0.018 C
HETATM    5  C15 UNL     1       5.157  40.658  19.606  1.00  0.00     0.013 C
HETATM    6  C16 UNL     1       6.297  40.785  21.882  1.00  0.00     0.075 C
HETATM    7  C17 UNL     1       7.704  41.055  22.386  1.00  0.00     0.051 C
HETATM    8  C18 UNL     1       8.227  40.218  23.474  1.00  0.00     0.011 C
HETATM    9  C19 UNL     1       7.130  40.034  24.554  1.00  0.00     0.006 C
HETATM   10  C20 UNL     1       6.136  39.187  23.790  1.00  0.00     0.001 C
HETATM   11  C21 UNL     1       5.364  38.378  24.736  1.00  0.00    -0.002 C
HETATM   12  C22 UNL     1       4.931  39.014  26.028  1.00  0.00     0.038 C
HETATM   13  C23 UNL     1       4.567  37.898  27.007  1.00  0.00     0.137 C
HETATM   14  C26 UNL     1       4.051  36.664  26.360  1.00  0.00     0.026 C
HETATM   15  C27 UNL     1       3.161  35.942  27.321  1.00  0.00     0.039 C
HETATM   16  C28 UNL     1       1.726  36.276  27.270  1.00  0.00     0.118 C
HETATM   17  C29 UNL     1       1.337  37.485  26.488  1.00  0.00     0.032 C
HETATM   18  C30 UNL     1       2.070  37.708  25.212  1.00  0.00     0.012 C
HETATM   19  C31 UNL     1       3.322  36.931  25.038  1.00  0.00    -0.034 C
HETATM   20  C32 UNL     1       2.924  35.560  24.506  1.00  0.00     0.016 C
HETATM   21  C33 UNL     1       4.321  37.508  24.079  1.00  0.00    -0.001 C
HETATM   22  C34 UNL     1       3.670  38.120  22.900  1.00  0.00     0.007 C
HETATM   23  C35 UNL     1       4.500  39.000  22.036  1.00  0.00     0.013 C
HETATM   24  C36 UNL     1       5.418  39.968  22.728  1.00  0.00    -0.008 C
HETATM   25  C37 UNL     1       4.418  40.863  23.495  1.00  0.00     0.019 C
ENDROOT
BRANCH   1  26
HETATM   26  O4  UNL     1       9.995  41.305  21.875  1.00  0.00    -0.378 OA
BRANCH  26  27
HETATM   27  C4  UNL     1      10.295  42.632  22.140  1.00  0.00     0.146 C
BRANCH  27  28
HETATM   28  C3  UNL     1      10.437  43.417  20.816  1.00  0.00     0.199 C
BRANCH  28  29
HETATM   29  O1  UNL     1      11.750  43.852  20.664  1.00  0.00    -0.389 OA
BRANCH  29  30
HETATM   30  C2  UNL     1      12.109  43.611  19.342  1.00  0.00     0.163 C
HETATM   31  C1  UNL     1      11.593  42.318  18.804  1.00  0.00     0.033 C
ENDBRANCH  29  30
ENDBRANCH  28  29
ENDBRANCH  27  28
BRANCH  27  32
HETATM   32  C5  UNL     1      11.533  42.908  22.890  1.00  0.00     0.043 C
BRANCH  32  33
HETATM   33  C6  UNL     1      12.363  41.768  23.352  1.00  0.00     0.107 C
BRANCH  33  34
HETATM   34  C7  UNL     1      13.505  41.597  22.419  1.00  0.00     0.242 C
HETATM   35  O2  UNL     1      13.384  40.844  21.433  1.00  0.00    -0.271 OA
HETATM   36  N1  UNL     1      14.721  42.276  22.636  1.00  0.00    -0.231 N
HETATM   37  C8  UNL     1      15.839  42.108  21.718  1.00  0.00     0.188 C
BRANCH  36  38
HETATM   38  O3  UNL     1      14.931  43.110  23.683  1.00  0.00    -0.281 OA
HETATM   39  C9  UNL     1      15.113  44.402  23.192  1.00  0.00     0.238 C
ENDBRANCH  36  38
ENDBRANCH  33  34
ENDBRANCH  32  33
ENDBRANCH  27  32
ENDBRANCH  26  27
ENDBRANCH   1  26
BRANCH   2  40
HETATM   40  C12 UNL     1       9.602  38.755  20.678  1.00  0.00     0.171 C
BRANCH  40  41
HETATM   41  O5  UNL     1      10.942  38.950  20.945  1.00  0.00    -0.400 OA
ATOM     42  H5  UNL     1      11.527  38.214  20.803  1.00  0.00     0.209 HD
ENDBRANCH  40  41
ENDBRANCH   2  40
BRANCH   6  43
HETATM   43  O6  UNL     1       5.700  42.102  21.898  1.00  0.00    -0.388 OA
ATOM     44  H6  UNL     1       5.981  42.405  22.754  1.00  0.00     0.210 HD
ENDBRANCH   6  43
BRANCH  13  45
HETATM   45  O7  UNL     1       5.595  37.785  27.908  1.00  0.00    -0.316 OA
BRANCH  45  46
HETATM   46  C24 UNL     1       6.646  36.898  27.888  1.00  0.00     0.255 C
HETATM   47  C25 UNL     1       7.549  36.681  26.739  1.00  0.00     0.126 C
HETATM   48  O8  UNL     1       6.747  36.295  28.962  1.00  0.00    -0.266 OA
ENDBRANCH  45  46
ENDBRANCH  13  45
BRANCH  16  49
HETATM   49  O9  UNL     1       1.200  36.480  28.574  1.00  0.00    -0.396 OA
ATOM     50  H9  UNL     1       1.311  37.381  28.851  1.00  0.00     0.210 HD
ENDBRANCH  16  49
TORSDOF 15
ENDMDL