MODEL 4
REMARK VINA RESULT: -7.301305985      1.847      3.922
REMARK  13 active torsions:
REMARK  status: ('A' for Active; 'I' for Inactive)
REMARK    1  A    between atoms: C4_4  and  C5_5
REMARK    2  A    between atoms: C5_5  and  C6_6
REMARK    3  A    between atoms: C12_13  and  C13_14
REMARK    4  A    between atoms: C13_14  and  O2_15
REMARK    5  A    between atoms: O2_15  and  C14_16
REMARK    6  A    between atoms: C14_16  and  C15_17
REMARK    7  A    between atoms: N1_21  and  C18_22
REMARK    8  A    between atoms: C18_22  and  C19_23
REMARK    9  A    between atoms: C23_27  and  O4_28
REMARK   10  A    between atoms: C24_30  and  C25_31
REMARK   11  A    between atoms: C25_31  and  O5_32
REMARK   12  A    between atoms: C29_37  and  O6_38
REMARK   13  A    between atoms: C29_37  and  C30_40
ROOT
HETATM    1  C6  UNL     1       7.065  38.084  27.237  1.00  0.00    -0.041 C
HETATM    2  C7  UNL     1       6.197  37.149  26.391  1.00  0.00     0.027 C
HETATM    3  C8  UNL     1       5.280  36.267  27.146  1.00  0.00     0.015 C
HETATM    4  C9  UNL     1       5.729  37.913  25.270  1.00  0.00     0.095 C
HETATM    5  C10 UNL     1       6.929  38.241  24.484  1.00  0.00     0.135 C
HETATM    6  O1  UNL     1       7.679  37.297  24.333  1.00  0.00    -0.297 OA
HETATM    7  C11 UNL     1       7.378  39.464  23.860  1.00  0.00     0.090 C
HETATM    8  C12 UNL     1       6.257  40.481  24.010  1.00  0.00    -0.010 C
HETATM    9  C27 UNL     1       6.112  41.004  25.417  1.00  0.00     0.015 C
HETATM   10  C28 UNL     1       7.027  40.516  26.433  1.00  0.00     0.044 C
HETATM   11  C29 UNL     1       6.776  39.485  27.492  1.00  0.00     0.085 C
HETATM   12  C33 UNL     1       5.065  39.981  23.322  1.00  0.00     0.046 C
HETATM   13  C34 UNL     1       4.193  38.969  23.805  1.00  0.00     0.155 C
HETATM   14  O7  UNL     1       3.224  38.544  22.951  1.00  0.00    -0.348 OA
HETATM   15  C35 UNL     1       2.585  37.553  23.722  1.00  0.00     0.158 C
HETATM   16  C36 UNL     1       1.894  36.524  22.891  1.00  0.00     0.078 C
HETATM   17  C37 UNL     1       1.586  38.183  24.679  1.00  0.00     0.078 C
HETATM   18  O8  UNL     1       3.587  36.977  24.536  1.00  0.00    -0.347 OA
HETATM   19  C38 UNL     1       4.755  37.600  24.237  1.00  0.00     0.166 C
ENDROOT
BRANCH   8  20
HETATM   20  C13 UNL     1       6.783  41.617  23.063  1.00  0.00     0.177 C
BRANCH  20  21
HETATM   21  O2  UNL     1       6.058  41.718  21.955  1.00  0.00    -0.390 OA
BRANCH  21  22
HETATM   22  C14 UNL     1       6.660  41.713  20.758  1.00  0.00     0.176 C
BRANCH  22  23
HETATM   23  C15 UNL     1       7.903  40.899  20.528  1.00  0.00     0.062 C
HETATM   24  C16 UNL     1       7.769  39.631  19.800  1.00  0.00     0.178 C
HETATM   25  O3  UNL     1       8.798  39.529  18.829  1.00  0.00    -0.362 OA
HETATM   26  C17 UNL     1       9.992  39.656  19.539  1.00  0.00     0.440 C
HETATM   27  N1  UNL     1      10.257  41.057  19.830  1.00  0.00     0.112 N
HETATM   28  C26 UNL     1       9.036  41.790  20.032  1.00  0.00     0.284 C
BRANCH  27  29
HETATM   29  C18 UNL     1      11.053  41.102  21.037  1.00  0.00     0.280 C
BRANCH  29  30
HETATM   30  C19 UNL     1      12.415  41.719  20.785  1.00  0.00     0.026 C
HETATM   31  C20 UNL     1      12.312  43.183  21.152  1.00  0.00     0.033 C
HETATM   32  C21 UNL     1      11.944  43.251  22.603  1.00  0.00    -0.028 C
HETATM   33  C22 UNL     1      12.649  42.487  23.431  1.00  0.00     0.001 C
HETATM   34  C23 UNL     1      13.726  41.629  22.928  1.00  0.00     0.147 C
HETATM   35  C24 UNL     1      13.457  41.001  21.587  1.00  0.00     0.048 C
BRANCH  34  36
HETATM   36  O4  UNL     1      14.940  42.354  22.924  1.00  0.00    -0.391 OA
ATOM     37  H4  UNL     1      14.750  43.285  22.935  1.00  0.00     0.210 HD
ENDBRANCH  34  36
BRANCH  35  38
HETATM   38  C25 UNL     1      14.793  41.036  20.829  1.00  0.00     0.172 C
BRANCH  38  39
HETATM   39  O5  UNL     1      15.605  39.982  21.170  1.00  0.00    -0.400 OA
ATOM     40  H5  UNL     1      16.369  39.924  20.608  1.00  0.00     0.209 HD
ENDBRANCH  38  39
ENDBRANCH  35  38
ENDBRANCH  29  30
ENDBRANCH  27  29
ENDBRANCH  22  23
ENDBRANCH  21  22
ENDBRANCH  20  21
ENDBRANCH   8  20
BRANCH  11  41
HETATM   41  O6  UNL     1       8.066  39.726  28.188  1.00  0.00    -0.385 OA
ATOM     42  H6  UNL     1       7.654  40.123  28.947  1.00  0.00     0.211 HD
ENDBRANCH  11  41
BRANCH  11  43
HETATM   43  C30 UNL     1       5.910  39.951  28.595  1.00  0.00     0.016 C
HETATM   44  C31 UNL     1       4.439  39.978  28.501  1.00  0.00     0.013 C
HETATM   45  C32 UNL     1       6.237  41.399  29.034  1.00  0.00     0.013 C
ENDBRANCH  11  43
BRANCH   1  46
HETATM   46  C5  UNL     1       7.518  37.175  28.315  1.00  0.00     0.006 C
BRANCH  46  47
HETATM   47  C4  UNL     1       8.460  36.094  28.103  1.00  0.00     0.002 C
HETATM   48  C2  UNL     1       8.962  35.325  29.062  1.00  0.00    -0.088 C
HETATM   49  C1  UNL     1       9.912  34.255  28.742  1.00  0.00     0.043 C
HETATM   50  C3  UNL     1       8.545  35.562  30.457  1.00  0.00     0.043 C
ENDBRANCH  46  47
ENDBRANCH   1  46
TORSDOF 13
ENDMDL