MODEL 4
REMARK VINA RESULT: -7.600925502      2.465      7.424
REMARK  15 active torsions:
REMARK  status: ('A' for Active; 'I' for Inactive)
REMARK    1  A    between atoms: C2_2  and  C4_4
REMARK    2  A    between atoms: C6_6  and  C8_8
REMARK    3  A    between atoms: C8_8  and  O1_9
REMARK    4  A    between atoms: C11_12  and  C12_13
REMARK    5  A    between atoms: C12_13  and  O2_14
REMARK    6  A    between atoms: C12_13  and  C13_16
REMARK    7  A    between atoms: C21_25  and  O4_26
REMARK    8  A    between atoms: C24_31  and  O6_32
REMARK    9  A    between atoms: O6_32  and  C25_33
REMARK   10  A    between atoms: C25_33  and  C26_34
REMARK   11  A    between atoms: C26_34  and  O7_35
REMARK   12  A    between atoms: C26_34  and  C27_37
REMARK   13  A    between atoms: C27_37  and  C34_46
REMARK   14  A    between atoms: C28_38  and  O8_39
REMARK   15  A    between atoms: C28_38  and  C29_41
ROOT
HETATM    1  C13 UNL     1       6.580  38.395  25.065  1.00  0.00     0.158 C
HETATM    2  O3  UNL     1       6.529  38.564  26.463  1.00  0.00    -0.366 OA
HETATM    3  C14 UNL     1       6.508  37.352  27.065  1.00  0.00     0.122 C
HETATM    4  C15 UNL     1       5.063  37.038  27.506  1.00  0.00     0.052 C
HETATM    5  C16 UNL     1       6.813  36.302  26.023  1.00  0.00     0.036 C
HETATM    6  C17 UNL     1       8.213  35.834  25.965  1.00  0.00     0.046 C
HETATM    7  C18 UNL     1       8.582  35.383  27.335  1.00  0.00    -0.035 C
HETATM    8  C19 UNL     1       9.254  34.320  27.827  1.00  0.00    -0.050 C
HETATM    9  C20 UNL     1       9.825  33.264  26.967  1.00  0.00     0.046 C
HETATM   10  C21 UNL     1       9.333  34.426  29.315  1.00  0.00     0.150 C
HETATM   11  C22 UNL     1       9.279  35.970  29.443  1.00  0.00     0.085 C
HETATM   12  C23 UNL     1       8.160  36.213  28.451  1.00  0.00     0.150 A
HETATM   13  O5  UNL     1       6.922  36.061  29.020  1.00  0.00    -0.328 OA
HETATM   14  C24 UNL     1       7.359  37.303  28.271  1.00  0.00     0.234 A
HETATM   15  C38 UNL     1       6.324  36.995  24.751  1.00  0.00     0.020 C
HETATM   16  C39 UNL     1       4.930  36.546  24.504  1.00  0.00     0.013 C
ENDROOT
BRANCH  14  17
HETATM   17  O6  UNL     1       7.367  38.336  29.157  1.00  0.00    -0.347 OA
BRANCH  17  18
HETATM   18  C25 UNL     1       8.201  39.383  29.000  1.00  0.00     0.208 C
BRANCH  18  19
HETATM   19  C26 UNL     1       7.547  40.731  29.078  1.00  0.00     0.174 C
BRANCH  19  20
HETATM   20  O7  UNL     1       7.113  40.992  27.712  1.00  0.00    -0.389 OA
ATOM     21  H7  UNL     1       6.956  41.929  27.695  1.00  0.00     0.210 HD
ENDBRANCH  19  20
BRANCH  19  22
HETATM   22  C27 UNL     1       6.463  41.039  29.983  1.00  0.00    -0.008 C
HETATM   23  C28 UNL     1       5.079  41.164  29.602  1.00  0.00     0.077 C
BRANCH  23  24
HETATM   24  O8  UNL     1       4.726  42.434  29.515  1.00  0.00    -0.360 OA
ATOM     25  H8  UNL     1       3.782  42.528  29.564  1.00  0.00     0.217 HD
ENDBRANCH  23  24
BRANCH  23  26
HETATM   26  C29 UNL     1       4.037  40.267  29.299  1.00  0.00    -0.027 C
HETATM   27  C30 UNL     1       3.406  40.268  27.949  1.00  0.00     0.051 C
HETATM   28  C31 UNL     1       3.586  39.349  30.129  1.00  0.00    -0.079 C
HETATM   29  C32 UNL     1       4.103  39.122  31.494  1.00  0.00     0.043 C
HETATM   30  C33 UNL     1       2.460  38.434  29.714  1.00  0.00     0.043 C
ENDBRANCH  23  26
BRANCH  22  31
HETATM   31  C34 UNL     1       6.809  42.119  31.015  1.00  0.00    -0.023 C
HETATM   32  C35 UNL     1       7.865  41.566  31.955  1.00  0.00     0.019 C
HETATM   33  C36 UNL     1       5.634  42.581  31.823  1.00  0.00     0.019 C
HETATM   34  C37 UNL     1       7.402  43.331  30.309  1.00  0.00     0.019 C
ENDBRANCH  22  31
ENDBRANCH  19  22
ENDBRANCH  18  19
ENDBRANCH  17  18
ENDBRANCH  14  17
BRANCH   1  35
HETATM   35  C12 UNL     1       5.812  39.476  24.462  1.00  0.00     0.176 C
BRANCH  35  36
HETATM   36  C11 UNL     1       6.392  40.212  23.318  1.00  0.00     0.154 C
HETATM   37  C10 UNL     1       7.904  39.974  23.380  1.00  0.00     0.046 C
HETATM   38  C6  UNL     1       8.656  40.879  22.402  1.00  0.00    -0.018 C
HETATM   39  C5  UNL     1       7.868  41.102  21.150  1.00  0.00     0.047 C
HETATM   40  C7  UNL     1       8.967  42.126  23.160  1.00  0.00     0.018 C
HETATM   41  C4  UNL     1       6.413  40.874  21.215  1.00  0.00     0.150 C
HETATM   42  O9  UNL     1       6.031  39.794  22.052  1.00  0.00    -0.374 OA
BRANCH  38  43
HETATM   43  C8  UNL     1       9.909  40.120  22.070  1.00  0.00     0.176 C
BRANCH  43  44
HETATM   44  O1  UNL     1      11.073  40.449  22.642  1.00  0.00    -0.395 OA
HETATM   45  C9  UNL     1      12.190  40.607  21.925  1.00  0.00     0.201 C
ENDBRANCH  43  44
ENDBRANCH  38  43
BRANCH  41  46
HETATM   46  C2  UNL     1       5.865  40.729  19.841  1.00  0.00    -0.065 C
HETATM   47  C1  UNL     1       4.592  40.414  19.686  1.00  0.00     0.016 C
HETATM   48  C3  UNL     1       6.705  40.927  18.640  1.00  0.00     0.045 C
ENDBRANCH  41  46
ENDBRANCH  35  36
BRANCH  35  49
HETATM   49  O2  UNL     1       4.523  39.057  24.064  1.00  0.00    -0.390 OA
ATOM     50  H2  UNL     1       4.043  38.859  24.859  1.00  0.00     0.210 HD
ENDBRANCH  35  49
ENDBRANCH   1  35
BRANCH  10  51
HETATM   51  O4  UNL     1      10.484  33.906  29.841  1.00  0.00    -0.391 OA
ATOM     52  H4  UNL     1      10.693  34.241  30.704  1.00  0.00     0.210 HD
ENDBRANCH  10  51
TORSDOF 15
ENDMDL