MODEL 5
REMARK VINA RESULT: -8.150291323      4.823      7.312
REMARK  11 active torsions:
REMARK  status: ('A' for Active; 'I' for Inactive)
REMARK    1  A    between atoms: C2_2  and  C3_3
REMARK    2  A    between atoms: C2_2  and  N4_36
REMARK    3  A    between atoms: C3_3  and  N1_4
REMARK    4  A    between atoms: N1_4  and  C4_7
REMARK    5  A    between atoms: C4_7  and  C6_10
REMARK    6  A    between atoms: C6_10  and  C7_12
REMARK    7  A    between atoms: C14_19  and  N3_20
REMARK    8  A    between atoms: C25_31  and  O2_32
REMARK    9  A    between atoms: C30_39  and  C31_40
REMARK   10  A    between atoms: C31_40  and  C32_41
REMARK   11  A    between atoms: C32_41  and  N5_42
ROOT
HETATM    1  C4  UNL     1       1.585  38.513  24.505  1.00  0.00     0.360 C
HETATM    2  C5  UNL     1       1.661  38.851  22.974  1.00  0.00     0.100 C
HETATM    3  N2  UNL     1       1.700  39.080  21.834  1.00  0.00    -0.195 NA
ENDROOT
BRANCH   1   4
HETATM    4  N1  UNL     1       0.221  37.893  24.553  1.00  0.00    -0.050 N
ATOM      5  H12 UNL     1       0.237  36.879  24.443  1.00  0.00     0.279 HD
ATOM      6  H11 UNL     1      -0.344  38.105  23.730  1.00  0.00     0.279 HD
BRANCH   4   7
HETATM    7  C3  UNL     1      -0.392  38.322  25.790  1.00  0.00     0.269 C
BRANCH   7   8
HETATM    8  C2  UNL     1      -0.439  37.286  26.836  1.00  0.00     0.244 C
HETATM    9  C1  UNL     1      -1.612  36.363  26.724  1.00  0.00     0.045 C
BRANCH   8  10
HETATM   10  N4  UNL     1      -0.365  37.843  28.170  1.00  0.00     0.094 N
HETATM   11  C28 UNL     1       0.725  38.836  28.178  1.00  0.00     0.273 C
HETATM   12  C29 UNL     1       0.738  39.413  29.530  1.00  0.00     0.035 C
HETATM   13  C30 UNL     1       1.224  38.387  30.545  1.00  0.00    -0.010 C
HETATM   14  C38 UNL     1       1.147  36.991  29.878  1.00  0.00     0.035 C
HETATM   15  C39 UNL     1      -0.183  36.881  29.197  1.00  0.00     0.273 C
BRANCH  13  16
HETATM   16  C31 UNL     1       2.679  38.618  30.843  1.00  0.00     0.024 C
BRANCH  16  17
HETATM   17  C32 UNL     1       2.956  38.680  32.350  1.00  0.00     0.122 C
BRANCH  17  18
HETATM   18  N5  UNL     1       3.906  39.793  32.447  1.00  0.00    -0.390 N
HETATM   19  C33 UNL     1       4.969  39.720  31.502  1.00  0.00     0.152 C
HETATM   20  C34 UNL     1       5.387  41.170  31.221  1.00  0.00     0.292 C
HETATM   21  N6  UNL     1       5.685  41.826  32.455  1.00  0.00     0.090 N
HETATM   22  C35 UNL     1       7.043  42.330  32.336  1.00  0.00     0.310 C
HETATM   23  C36 UNL     1       5.635  40.963  33.616  1.00  0.00     0.316 C
HETATM   24  C37 UNL     1       4.322  40.198  33.723  1.00  0.00     0.088 C
ENDBRANCH  17  18
ENDBRANCH  16  17
ENDBRANCH  13  16
ENDBRANCH   8  10
ENDBRANCH   7   8
ENDBRANCH   4   7
ENDBRANCH   1   4
BRANCH   1  25
HETATM   25  C6  UNL     1       2.657  37.527  24.611  1.00  0.00     0.176 C
HETATM   26  O1  UNL     1       2.414  36.305  24.605  1.00  0.00    -0.294 OA
BRANCH  25  27
HETATM   27  C7  UNL     1       4.096  37.945  24.789  1.00  0.00     0.070 C
HETATM   28  C8  UNL     1       4.983  36.953  24.083  1.00  0.00     0.013 C
HETATM   29  C9  UNL     1       5.593  36.113  25.173  1.00  0.00     0.007 C
HETATM   30  C10 UNL     1       5.784  37.164  26.225  1.00  0.00     0.002 C
HETATM   31  C11 UNL     1       6.175  36.623  27.553  1.00  0.00     0.000 C
HETATM   32  C26 UNL     1       4.402  37.813  26.279  1.00  0.00    -0.004 C
HETATM   33  C12 UNL     1       7.680  36.855  27.731  1.00  0.00     0.001 C
HETATM   34  C23 UNL     1       5.949  37.696  28.596  1.00  0.00     0.001 C
HETATM   35  C13 UNL     1       8.316  35.484  27.881  1.00  0.00     0.041 C
HETATM   36  C21 UNL     1       7.372  37.478  29.057  1.00  0.00    -0.036 C
HETATM   37  C14 UNL     1       9.534  35.628  28.735  1.00  0.00     0.223 C
HETATM   38  C19 UNL     1       8.974  35.873  30.156  1.00  0.00     0.036 C
HETATM   39  C20 UNL     1       7.562  36.431  30.104  1.00  0.00     0.012 C
HETATM   40  C22 UNL     1       8.112  38.751  29.401  1.00  0.00     0.016 C
HETATM   41  C24 UNL     1       5.760  39.043  27.940  1.00  0.00     0.038 C
HETATM   42  C25 UNL     1       4.621  39.125  26.977  1.00  0.00     0.128 C
HETATM   43  C27 UNL     1       3.452  37.026  27.095  1.00  0.00     0.019 C
BRANCH  37  44
HETATM   44  N3  UNL     1      10.218  34.322  28.734  1.00  0.00     0.093 N
HETATM   45  C15 UNL     1       9.488  33.427  29.652  1.00  0.00     0.273 C
HETATM   46  C16 UNL     1       9.990  32.090  29.129  1.00  0.00     0.032 C
HETATM   47  C17 UNL     1       9.585  32.265  27.655  1.00  0.00     0.032 C
HETATM   48  C18 UNL     1       9.956  33.699  27.422  1.00  0.00     0.273 C
ENDBRANCH  37  44
BRANCH  42  49
HETATM   49  O2  UNL     1       4.830  40.150  26.064  1.00  0.00    -0.395 OA
ATOM     50  H2  UNL     1       5.424  39.867  25.378  1.00  0.00     0.210 HD
ENDBRANCH  42  49
ENDBRANCH  25  27
ENDBRANCH   1  25
TORSDOF 11
ENDMDL