MODEL 2
REMARK VINA RESULT: -6.330599056      2.819      8.968
REMARK  14 active torsions:
REMARK  status: ('A' for Active; 'I' for Inactive)
REMARK    1  A    between atoms: C2_2  and  C3_3
REMARK    2  A    between atoms: C3_3  and  O1_5
REMARK    3  A    between atoms: C3_3  and  C5_7
REMARK    4  A    between atoms: C5_7  and  C6_8
REMARK    5  A    between atoms: C6_8  and  C7_9
REMARK    6  A    between atoms: C7_9  and  C9_11
REMARK    7  A    between atoms: C20_22  and  O2_23
REMARK    8  A    between atoms: O2_23  and  C21_24
REMARK    9  A    between atoms: C25_29  and  O4_30
REMARK   10  A    between atoms: C27_32  and  N1_33
REMARK   11  A    between atoms: C30_36  and  O5_37
REMARK   12  A    between atoms: C31_39  and  O6_40
REMARK   13  A    between atoms: O6_40  and  C32_41
REMARK   14  A    between atoms: C35_45  and  O8_47
ROOT
HETATM    1  C9  UNL     1      11.529  43.215  21.885  1.00  0.00     0.020 C
HETATM    2  C10 UNL     1      12.601  42.978  20.821  1.00  0.00    -0.025 C
HETATM    3  C11 UNL     1      12.316  42.253  19.803  1.00  0.00    -0.030 C
HETATM    4  C12 UNL     1      11.029  41.570  19.492  1.00  0.00     0.033 C
HETATM    5  C13 UNL     1      10.104  41.662  20.677  1.00  0.00     0.010 C
HETATM    6  C14 UNL     1      10.881  41.848  21.975  1.00  0.00    -0.032 C
HETATM    7  C15 UNL     1      12.026  40.871  22.129  1.00  0.00     0.016 C
HETATM    8  C16 UNL     1       9.951  41.819  23.125  1.00  0.00     0.011 C
HETATM    9  C17 UNL     1       8.937  40.687  23.100  1.00  0.00     0.013 C
HETATM   10  C18 UNL     1       8.068  40.803  21.837  1.00  0.00    -0.005 C
HETATM   11  C19 UNL     1       7.394  42.128  21.956  1.00  0.00     0.019 C
HETATM   12  C20 UNL     1       7.041  39.700  21.866  1.00  0.00     0.163 C
HETATM   13  C31 UNL     1       6.313  39.560  20.540  1.00  0.00     0.164 C
HETATM   14  C34 UNL     1       7.167  39.641  19.339  1.00  0.00     0.073 C
HETATM   15  C35 UNL     1       8.265  40.675  19.358  1.00  0.00     0.065 C
HETATM   16  C36 UNL     1       7.707  41.953  18.896  1.00  0.00     0.047 C
HETATM   17  C37 UNL     1       9.018  40.669  20.673  1.00  0.00     0.001 C
HETATM   18  C38 UNL     1       9.568  39.242  20.701  1.00  0.00     0.019 C
ENDROOT
BRANCH  12  19
HETATM   19  O2  UNL     1       6.038  39.870  22.802  1.00  0.00    -0.350 OA
BRANCH  19  20
HETATM   20  C21 UNL     1       5.613  38.732  23.440  1.00  0.00     0.292 C
HETATM   21  O3  UNL     1       6.441  38.522  24.521  1.00  0.00    -0.346 OA
HETATM   22  C22 UNL     1       6.070  39.035  25.715  1.00  0.00     0.085 C
HETATM   23  C23 UNL     1       7.083  38.539  26.754  1.00  0.00     0.048 C
HETATM   24  C24 UNL     1       6.229  40.558  25.713  1.00  0.00     0.048 C
HETATM   25  C25 UNL     1       4.713  38.609  26.208  1.00  0.00     0.179 C
HETATM   26  C27 UNL     1       3.841  38.054  25.114  1.00  0.00     0.144 C
HETATM   27  C30 UNL     1       4.155  38.657  23.754  1.00  0.00     0.198 C
BRANCH  25  28
HETATM   28  O4  UNL     1       4.772  37.662  27.227  1.00  0.00    -0.386 OA
HETATM   29  C26 UNL     1       3.945  37.978  28.296  1.00  0.00     0.202 C
ENDBRANCH  25  28
BRANCH  26  30
HETATM   30  N1  UNL     1       3.684  36.655  25.115  1.00  0.00    -0.412 N
HETATM   31  C28 UNL     1       4.468  35.836  24.333  1.00  0.00     0.143 C
HETATM   32  C29 UNL     1       2.331  36.166  25.222  1.00  0.00     0.143 C
ENDBRANCH  26  30
BRANCH  27  33
HETATM   33  O5  UNL     1       3.432  37.876  22.842  1.00  0.00    -0.388 OA
ATOM     34  H5  UNL     1       3.919  37.127  22.521  1.00  0.00     0.210 HD
ENDBRANCH  27  33
ENDBRANCH  19  20
ENDBRANCH  12  19
BRANCH  13  35
HETATM   35  O6  UNL     1       5.225  40.417  20.381  1.00  0.00    -0.314 OA
BRANCH  35  36
HETATM   36  C32 UNL     1       3.925  40.091  20.133  1.00  0.00     0.255 C
HETATM   37  C33 UNL     1       2.926  41.146  19.834  1.00  0.00     0.126 C
HETATM   38  O7  UNL     1       3.623  38.863  20.173  1.00  0.00    -0.266 OA
ENDBRANCH  35  36
ENDBRANCH  13  35
BRANCH  15  39
HETATM   39  O8  UNL     1       9.142  40.206  18.369  1.00  0.00    -0.389 OA
ATOM     40  H8  UNL     1       9.978  40.558  18.651  1.00  0.00     0.210 HD
ENDBRANCH  15  39
BRANCH   1  41
HETATM   41  C7  UNL     1      12.279  43.730  23.041  1.00  0.00    -0.010 C
HETATM   42  C8  UNL     1      11.892  45.013  23.697  1.00  0.00     0.010 C
BRANCH  41  43
HETATM   43  C6  UNL     1      13.779  43.889  22.718  1.00  0.00     0.008 C
BRANCH  43  44
HETATM   44  C5  UNL     1      14.293  45.266  23.032  1.00  0.00     0.042 C
BRANCH  44  45
HETATM   45  C3  UNL     1      15.109  45.804  21.866  1.00  0.00     0.071 C
HETATM   46  C4  UNL     1      15.941  44.658  21.335  1.00  0.00     0.050 C
BRANCH  45  47
HETATM   47  C2  UNL     1      14.215  46.347  20.821  1.00  0.00    -0.000 C
HETATM   48  C1  UNL     1      14.310  45.993  19.550  1.00  0.00     0.010 C
ENDBRANCH  45  47
BRANCH  45  49
HETATM   49  O1  UNL     1      15.970  46.808  22.296  1.00  0.00    -0.386 OA
ATOM     50  H1  UNL     1      16.651  46.424  22.837  1.00  0.00     0.211 HD
ENDBRANCH  45  49
ENDBRANCH  44  45
ENDBRANCH  43  44
ENDBRANCH  41  43
ENDBRANCH   1  41
TORSDOF 14
ENDMDL