MODEL 4
REMARK VINA RESULT: -6.334977925      3.348      6.849
REMARK  13 active torsions:
REMARK  status: ('A' for Active; 'I' for Inactive)
REMARK    1  A    between atoms: C2_2  and  C3_3
REMARK    2  A    between atoms: C3_3  and  C4_4
REMARK    3  A    between atoms: C4_4  and  C5_5
REMARK    4  A    between atoms: C5_5  and  C6_6
REMARK    5  A    between atoms: C6_6  and  O1_7
REMARK    6  A    between atoms: C13_16  and  C14_17
REMARK    7  A    between atoms: C25_28  and  O3_29
REMARK    8  A    between atoms: O3_29  and  C26_30
REMARK    9  A    between atoms: C29_34  and  O5_35
REMARK   10  A    between atoms: C30_37  and  O6_38
REMARK   11  A    between atoms: C32_40  and  O7_41
REMARK   12  A    between atoms: C37_48  and  C38_49
REMARK   13  A    between atoms: C38_49  and  O9_50
ROOT
HETATM    1  C6  UNL     1       2.281  39.370  22.865  1.00  0.00     0.070 C
HETATM    2  C7  UNL     1       0.779  39.793  22.835  1.00  0.00     0.054 C
HETATM    3  C8  UNL     1       0.952  39.762  24.368  1.00  0.00     0.030 C
HETATM    4  C9  UNL     1       1.304  41.103  24.818  1.00  0.00     0.134 C
HETATM    5  C10 UNL     1       2.423  41.174  25.775  1.00  0.00     0.036 C
HETATM    6  C11 UNL     1       2.967  39.865  26.219  1.00  0.00     0.046 C
HETATM    7  C12 UNL     1       3.088  38.754  25.243  1.00  0.00     0.098 C
HETATM    8  O2  UNL     1       2.948  37.528  25.960  1.00  0.00    -0.365 OA
HETATM    9  C13 UNL     1       3.446  37.435  27.185  1.00  0.00     0.151 C
HETATM   10  C17 UNL     1       4.620  36.464  27.411  1.00  0.00     0.037 C
HETATM   11  C18 UNL     1       5.590  36.967  28.439  1.00  0.00     0.011 C
HETATM   12  C19 UNL     1       7.036  36.876  28.081  1.00  0.00     0.010 C
HETATM   13  C20 UNL     1       7.834  37.872  28.918  1.00  0.00     0.015 C
HETATM   14  C21 UNL     1       7.399  36.909  26.671  1.00  0.00    -0.084 C
HETATM   15  C22 UNL     1       8.139  35.702  26.105  1.00  0.00     0.043 C
HETATM   16  C23 UNL     1       7.181  37.853  25.773  1.00  0.00    -0.021 C
HETATM   17  C24 UNL     1       6.494  39.149  25.966  1.00  0.00     0.064 C
HETATM   18  C25 UNL     1       5.603  39.521  24.806  1.00  0.00     0.159 C
HETATM   19  C33 UNL     1       4.449  38.613  24.635  1.00  0.00    -0.025 C
HETATM   20  C34 UNL     1       4.652  37.547  23.858  1.00  0.00     0.020 C
HETATM   21  C35 UNL     1       1.981  38.743  24.168  1.00  0.00     0.035 C
HETATM   22  C36 UNL     1       1.387  37.363  23.978  1.00  0.00     0.023 C
HETATM   23  O8  UNL     1       0.008  41.193  25.381  1.00  0.00    -0.377 OA
HETATM   24  C37 UNL     1      -0.262  39.834  25.062  1.00  0.00     0.158 C
ENDROOT
BRANCH   9  25
HETATM   25  C14 UNL     1       2.443  36.991  28.188  1.00  0.00    -0.065 C
HETATM   26  C15 UNL     1       1.823  35.841  28.081  1.00  0.00     0.016 C
HETATM   27  C16 UNL     1       2.109  37.810  29.413  1.00  0.00     0.045 C
ENDBRANCH   9  25
BRANCH  18  28
HETATM   28  O3  UNL     1       6.401  39.350  23.656  1.00  0.00    -0.349 OA
BRANCH  28  29
HETATM   29  C26 UNL     1       7.404  40.250  23.484  1.00  0.00     0.292 C
HETATM   30  O4  UNL     1       6.905  41.404  22.812  1.00  0.00    -0.351 OA
HETATM   31  C27 UNL     1       7.869  42.368  22.697  1.00  0.00     0.152 C
HETATM   32  C28 UNL     1       7.916  42.801  21.229  1.00  0.00     0.042 C
HETATM   33  C29 UNL     1       9.266  41.913  23.056  1.00  0.00     0.178 C
HETATM   34  C30 UNL     1       9.556  40.660  22.307  1.00  0.00     0.185 C
HETATM   35  C32 UNL     1       8.419  39.683  22.520  1.00  0.00     0.204 C
BRANCH  33  36
HETATM   36  O5  UNL     1      10.168  42.912  22.668  1.00  0.00    -0.390 OA
ATOM     37  H5  UNL     1      10.974  42.495  22.391  1.00  0.00     0.210 HD
ENDBRANCH  33  36
BRANCH  34  38
HETATM   38  O6  UNL     1      10.789  40.101  22.598  1.00  0.00    -0.385 OA
HETATM   39  C31 UNL     1      11.687  40.124  21.571  1.00  0.00     0.202 C
ENDBRANCH  34  38
BRANCH  35  40
HETATM   40  O7  UNL     1       8.842  38.439  22.882  1.00  0.00    -0.388 OA
ATOM     41  H7  UNL     1       9.759  38.294  22.679  1.00  0.00     0.210 HD
ENDBRANCH  35  40
ENDBRANCH  28  29
ENDBRANCH  18  28
BRANCH   1  42
HETATM   42  C5  UNL     1       2.485  38.704  21.574  1.00  0.00     0.039 C
BRANCH  42  43
HETATM   43  C4  UNL     1       2.989  39.709  20.491  1.00  0.00     0.007 C
BRANCH  43  44
HETATM   44  C3  UNL     1       4.417  39.329  20.116  1.00  0.00     0.026 C
BRANCH  44  45
HETATM   45  C2  UNL     1       5.242  40.529  19.915  1.00  0.00    -0.037 C
HETATM   46  C1  UNL     1       5.907  40.748  18.813  1.00  0.00     0.007 C
ENDBRANCH  44  45
ENDBRANCH  43  44
ENDBRANCH  42  43
ENDBRANCH   1  42
BRANCH   1  47
HETATM   47  O1  UNL     1       3.008  40.575  22.878  1.00  0.00    -0.389 OA
ATOM     48  H1  UNL     1       2.628  41.171  22.243  1.00  0.00     0.210 HD
ENDBRANCH   1  47
BRANCH  24  49
HETATM   49  C38 UNL     1      -0.733  39.147  26.256  1.00  0.00     0.199 C
BRANCH  49  50
HETATM   50  O9  UNL     1      -1.663  38.162  26.051  1.00  0.00    -0.393 OA
HETATM   51  C39 UNL     1      -1.415  36.899  26.456  1.00  0.00     0.201 C
ENDBRANCH  49  50
ENDBRANCH  24  49
TORSDOF 13
ENDMDL