MODEL 4
REMARK VINA RESULT: -6.823736079      4.719     10.442
REMARK  12 active torsions:
REMARK  status: ('A' for Active; 'I' for Inactive)
REMARK    1  A    between atoms: C4_4  and  N1_5
REMARK    2  A    between atoms: C7_8  and  O1_9
REMARK    3  A    between atoms: C8_11  and  O2_12
REMARK    4  A    between atoms: O2_12  and  C9_13
REMARK    5  A    between atoms: C18_23  and  N2_24
REMARK    6  A    between atoms: N2_24  and  C19_26
REMARK    7  A    between atoms: C19_26  and  C20_27
REMARK    8  A    between atoms: C20_27  and  C21_28
REMARK    9  A    between atoms: C21_28  and  N3_29
REMARK   10  A    between atoms: C23_34  and  C24_35
REMARK   11  A    between atoms: C24_35  and  C25_36
REMARK   12  A    between atoms: C25_36  and  N4_37
ROOT
HETATM    1  C9  UNL     1       5.485  40.169  22.654  1.00  0.00     0.142 C
HETATM    2  C10 UNL     1       4.961  39.110  23.547  1.00  0.00     0.034 C
HETATM    3  C11 UNL     1       6.129  38.339  24.125  1.00  0.00     0.017 C
HETATM    4  C12 UNL     1       4.026  38.138  22.948  1.00  0.00    -0.023 C
HETATM    5  C13 UNL     1       3.282  37.320  23.676  1.00  0.00    -0.023 C
HETATM    6  C14 UNL     1       3.250  37.227  25.145  1.00  0.00     0.105 C
HETATM    7  C15 UNL     1       1.813  37.106  25.609  1.00  0.00     0.139 C
HETATM    8  O3  UNL     1       0.964  36.962  24.757  1.00  0.00    -0.297 OA
HETATM    9  C16 UNL     1       1.525  37.168  27.076  1.00  0.00     0.101 C
HETATM   10  C17 UNL     1       1.847  35.738  27.558  1.00  0.00     0.024 C
HETATM   11  C18 UNL     1       0.225  37.640  27.481  1.00  0.00     0.023 C
HETATM   12  C22 UNL     1      -0.141  38.919  27.683  1.00  0.00     0.001 C
HETATM   13  C23 UNL     1      -1.151  39.911  28.051  1.00  0.00     0.157 C
HETATM   14  O4  UNL     1      -0.121  40.756  28.480  1.00  0.00    -0.371 OA
HETATM   15  C28 UNL     1       0.672  40.103  27.486  1.00  0.00     0.160 C
HETATM   16  C29 UNL     1       0.591  40.832  26.199  1.00  0.00     0.019 C
HETATM   17  C30 UNL     1      -0.320  40.297  25.153  1.00  0.00     0.013 C
HETATM   18  C31 UNL     1       1.948  41.096  25.545  1.00  0.00    -0.012 C
HETATM   19  C32 UNL     1       2.976  41.508  26.546  1.00  0.00     0.010 C
HETATM   20  C33 UNL     1       1.835  42.121  24.459  1.00  0.00     0.016 C
HETATM   21  C34 UNL     1       3.057  42.234  23.589  1.00  0.00     0.052 C
HETATM   22  C35 UNL     1       2.951  43.573  22.870  1.00  0.00     0.018 C
HETATM   23  C36 UNL     1       3.176  41.172  22.556  1.00  0.00     0.137 C
HETATM   24  O5  UNL     1       2.229  40.505  22.280  1.00  0.00    -0.297 OA
HETATM   25  C37 UNL     1       4.469  40.970  21.887  1.00  0.00     0.081 C
HETATM   26  C38 UNL     1       4.284  40.413  20.472  1.00  0.00     0.020 C
ENDROOT
BRANCH   1  27
HETATM   27  O2  UNL     1       6.428  39.745  21.723  1.00  0.00    -0.352 OA
BRANCH  27  28
HETATM   28  C8  UNL     1       7.750  39.816  22.180  1.00  0.00     0.291 C
HETATM   29  C7  UNL     1       8.743  39.114  21.342  1.00  0.00     0.195 C
HETATM   30  C4  UNL     1       9.822  39.944  20.714  1.00  0.00     0.114 C
HETATM   31  C3  UNL     1      10.246  41.116  21.556  1.00  0.00     0.059 C
HETATM   32  C2  UNL     1       9.301  41.354  22.711  1.00  0.00     0.122 C
HETATM   33  C1  UNL     1       9.577  42.761  23.254  1.00  0.00     0.040 C
HETATM   34  O6  UNL     1       7.989  41.183  22.370  1.00  0.00    -0.354 OA
BRANCH  29  35
HETATM   35  O1  UNL     1       9.325  38.080  22.119  1.00  0.00    -0.389 OA
ATOM     36  H1  UNL     1       8.682  37.736  22.729  1.00  0.00     0.210 HD
ENDBRANCH  29  35
BRANCH  30  37
HETATM   37  N1  UNL     1       9.574  40.374  19.380  1.00  0.00    -0.414 N
HETATM   38  C5  UNL     1       9.660  41.767  19.115  1.00  0.00     0.143 C
HETATM   39  C6  UNL     1       8.517  39.699  18.698  1.00  0.00     0.143 C
ENDBRANCH  30  37
ENDBRANCH  27  28
ENDBRANCH   1  27
BRANCH  11  40
HETATM   40  N2  UNL     1      -0.833  36.657  27.692  1.00  0.00    -0.392 N
ATOM     41  H2  UNL     1      -0.685  35.949  28.411  1.00  0.00     0.159 HD
BRANCH  40  42
HETATM   42  C19 UNL     1      -2.051  36.616  26.971  1.00  0.00     0.121 C
BRANCH  42  43
HETATM   43  C20 UNL     1      -2.147  35.640  25.837  1.00  0.00     0.047 C
BRANCH  43  44
HETATM   44  C21 UNL     1      -3.462  34.994  25.613  1.00  0.00     0.231 C
BRANCH  44  45
HETATM   45  N3  UNL     1      -3.368  33.566  25.598  1.00  0.00    -0.079 N
ATOM     46  H33 UNL     1      -3.905  33.169  24.827  1.00  0.00     0.274 HD
ATOM     47  H32 UNL     1      -2.435  33.261  25.319  1.00  0.00     0.274 HD
ATOM     48  H31 UNL     1      -3.641  33.152  26.489  1.00  0.00     0.274 HD
ENDBRANCH  44  45
ENDBRANCH  43  44
ENDBRANCH  42  43
ENDBRANCH  40  42
ENDBRANCH  11  40
BRANCH  13  49
HETATM   49  C24 UNL     1      -2.074  39.550  29.201  1.00  0.00     0.067 C
BRANCH  49  50
HETATM   50  C25 UNL     1      -1.253  39.634  30.474  1.00  0.00     0.274 C
BRANCH  50  51
HETATM   51  N4  UNL     1      -0.979  38.325  31.017  1.00  0.00     0.080 N
HETATM   52  C26 UNL     1      -1.616  38.236  32.313  1.00  0.00     0.309 C
HETATM   53  C27 UNL     1       0.444  38.132  31.189  1.00  0.00     0.309 C
ENDBRANCH  50  51
ENDBRANCH  49  50
ENDBRANCH  13  49
TORSDOF 12
ENDMDL