MODEL 2
REMARK VINA RESULT: -8.064929817      2.269      3.311
REMARK  13 active torsions:
REMARK  status: ('A' for Active; 'I' for Inactive)
REMARK    1  A    between atoms: O1_2  and  C2_3
REMARK    2  A    between atoms: C8_9  and  O2_10
REMARK    3  A    between atoms: O2_10  and  C9_11
REMARK    4  A    between atoms: C9_11  and  C10_12
REMARK    5  A    between atoms: C10_12  and  C11_13
REMARK    6  A    between atoms: C11_13  and  N1_14
REMARK    7  A    between atoms: C24_27  and  C25_28
REMARK    8  A    between atoms: C25_28  and  S1_29
REMARK    9  A    between atoms: S1_29  and  C26_30
REMARK   10  A    between atoms: C27_32  and  C28_33
REMARK   11  A    between atoms: C28_33  and  O4_34
REMARK   12  A    between atoms: C29_36  and  O5_37
REMARK   13  A    between atoms: C32_42  and  O6_43
ROOT
HETATM    1  C2  UNL     1       6.836  41.861  25.028  1.00  0.00     0.126 C
HETATM    2  C3  UNL     1       8.031  42.182  24.082  1.00  0.00     0.038 C
HETATM    3  C4  UNL     1       7.606  41.595  22.766  1.00  0.00     0.007 C
HETATM    4  C5  UNL     1       8.804  41.778  21.848  1.00  0.00    -0.017 C
HETATM    5  C6  UNL     1      10.016  41.024  22.239  1.00  0.00     0.018 C
HETATM    6  C7  UNL     1       9.151  43.244  21.872  1.00  0.00     0.018 C
HETATM    7  C8  UNL     1       8.265  41.435  20.467  1.00  0.00     0.129 C
HETATM    8  C16 UNL     1       8.006  39.999  20.436  1.00  0.00     0.033 C
HETATM    9  C17 UNL     1       7.754  39.330  21.767  1.00  0.00     0.012 C
HETATM   10  C18 UNL     1       7.067  40.206  22.804  1.00  0.00    -0.035 C
HETATM   11  C19 UNL     1       5.609  40.182  22.352  1.00  0.00     0.016 C
HETATM   12  C20 UNL     1       7.205  39.539  24.162  1.00  0.00     0.001 C
HETATM   13  C21 UNL     1       6.251  38.366  24.191  1.00  0.00     0.006 C
HETATM   14  C22 UNL     1       6.306  37.613  25.504  1.00  0.00     0.006 C
HETATM   15  C23 UNL     1       6.512  38.444  26.710  1.00  0.00    -0.001 C
HETATM   16  C24 UNL     1       5.663  37.874  27.837  1.00  0.00     0.002 C
HETATM   17  C31 UNL     1       4.207  38.041  27.615  1.00  0.00     0.037 C
HETATM   18  C32 UNL     1       3.829  39.147  26.686  1.00  0.00     0.119 C
HETATM   19  C33 UNL     1       4.801  40.227  26.445  1.00  0.00     0.041 C
HETATM   20  C34 UNL     1       6.259  39.902  26.512  1.00  0.00    -0.031 C
HETATM   21  C35 UNL     1       6.808  40.637  27.751  1.00  0.00     0.016 C
HETATM   22  C36 UNL     1       7.078  40.424  25.352  1.00  0.00     0.028 C
ENDROOT
BRANCH  16  23
HETATM   23  C25 UNL     1       6.155  36.498  28.147  1.00  0.00     0.082 C
BRANCH  23  24
HETATM   24  S1  UNL     1       7.635  36.314  29.084  1.00  0.00    -0.126 SA
BRANCH  24  25
HETATM   25  C26 UNL     1       9.142  36.005  28.213  1.00  0.00     0.246 C
HETATM   26  O3  UNL     1       9.984  35.192  29.021  1.00  0.00    -0.356 OA
HETATM   27  C27 UNL     1       9.395  33.922  28.996  1.00  0.00     0.177 C
HETATM   28  C29 UNL     1      10.053  33.085  27.951  1.00  0.00     0.158 C
HETATM   29  C30 UNL     1       9.685  33.573  26.555  1.00  0.00     0.111 C
HETATM   30  S2  UNL     1       8.922  35.211  26.624  1.00  0.00    -0.124 SA
BRANCH  27  31
HETATM   31  C28 UNL     1       9.502  33.252  30.339  1.00  0.00     0.198 C
BRANCH  31  32
HETATM   32  O4  UNL     1      10.687  32.515  30.439  1.00  0.00    -0.398 OA
ATOM     33  H4  UNL     1      11.291  32.744  29.742  1.00  0.00     0.209 HD
ENDBRANCH  31  32
ENDBRANCH  27  31
BRANCH  28  34
HETATM   34  O5  UNL     1       9.578  31.767  28.088  1.00  0.00    -0.392 OA
ATOM     35  H5  UNL     1      10.198  31.187  27.664  1.00  0.00     0.210 HD
ENDBRANCH  28  34
ENDBRANCH  24  25
ENDBRANCH  23  24
ENDBRANCH  16  23
BRANCH  18  36
HETATM   36  O6  UNL     1       2.647  39.740  27.177  1.00  0.00    -0.396 OA
ATOM     37  H6  UNL     1       2.756  39.878  28.111  1.00  0.00     0.210 HD
ENDBRANCH  18  36
BRANCH   1  38
HETATM   38  O1  UNL     1       6.969  42.759  26.041  1.00  0.00    -0.390 OA
HETATM   39  C1  UNL     1       6.724  44.036  25.601  1.00  0.00     0.202 C
ENDBRANCH   1  38
BRANCH   7  40
HETATM   40  O2  UNL     1       9.012  42.037  19.472  1.00  0.00    -0.385 OA
BRANCH  40  41
HETATM   41  C9  UNL     1       8.897  41.420  18.263  1.00  0.00     0.170 C
BRANCH  41  42
HETATM   42  C10 UNL     1       7.850  41.872  17.295  1.00  0.00     0.056 C
BRANCH  42  43
HETATM   43  C11 UNL     1       8.273  42.858  16.302  1.00  0.00     0.274 C
BRANCH  43  44
HETATM   44  N1  UNL     1       9.233  43.835  16.459  1.00  0.00     0.088 N
HETATM   45  C12 UNL     1      10.136  44.197  15.448  1.00  0.00     0.272 C
HETATM   46  C13 UNL     1       9.225  44.716  14.345  1.00  0.00     0.032 C
HETATM   47  C14 UNL     1       8.154  45.415  15.164  1.00  0.00     0.032 C
HETATM   48  C15 UNL     1       8.484  45.116  16.615  1.00  0.00     0.272 C
ENDBRANCH  43  44
ENDBRANCH  42  43
ENDBRANCH  41  42
ENDBRANCH  40  41
ENDBRANCH   7  40
TORSDOF 13
ENDMDL