MODEL 1
REMARK VINA RESULT: -7.022684165      0.000      0.000
REMARK  13 active torsions:
REMARK  status: ('A' for Active; 'I' for Inactive)
REMARK    1  A    between atoms: C2_2  and  C3_3
REMARK    2  A    between atoms: C3_3  and  C5_5
REMARK    3  A    between atoms: C5_5  and  O2_7
REMARK    4  A    between atoms: O2_7  and  C6_8
REMARK    5  A    between atoms: C14_16  and  O3_17
REMARK    6  A    between atoms: O3_17  and  C15_18
REMARK    7  A    between atoms: C19_23  and  N1_24
REMARK    8  A    between atoms: C22_27  and  O5_28
REMARK    9  A    between atoms: C23_30  and  C24_31
REMARK   10  A    between atoms: C26_33  and  O6_34
REMARK   11  A    between atoms: C31_40  and  O7_41
REMARK   12  A    between atoms: C36_47  and  C37_48
REMARK   13  A    between atoms: C37_48  and  C38_49
ROOT
HETATM    1  C6  UNL     1       3.760  39.695  21.411  1.00  0.00     0.141 C
HETATM    2  C7  UNL     1       3.589  38.206  21.420  1.00  0.00     0.067 C
HETATM    3  C8  UNL     1       3.294  37.593  22.731  1.00  0.00    -0.077 C
HETATM    4  C9  UNL     1       2.038  36.704  22.682  1.00  0.00     0.044 C
HETATM    5  C10 UNL     1       3.395  38.429  24.007  1.00  0.00    -0.058 C
HETATM    6  C11 UNL     1       4.562  37.982  24.867  1.00  0.00     0.004 C
HETATM    7  C12 UNL     1       4.677  36.447  24.614  1.00  0.00     0.022 C
HETATM    8  C13 UNL     1       5.911  38.419  24.326  1.00  0.00     0.022 C
HETATM    9  C14 UNL     1       4.551  38.006  26.359  1.00  0.00     0.143 C
HETATM   10  C23 UNL     1       3.289  37.875  27.090  1.00  0.00     0.048 C
HETATM   11  C26 UNL     1       3.185  38.622  28.400  1.00  0.00     0.153 C
HETATM   12  C27 UNL     1       2.143  39.732  28.431  1.00  0.00    -0.055 C
HETATM   13  C28 UNL     1       0.742  39.318  28.288  1.00  0.00     0.046 C
HETATM   14  C29 UNL     1       2.625  40.940  27.738  1.00  0.00     0.003 C
HETATM   15  C30 UNL     1       2.354  41.495  26.597  1.00  0.00     0.005 C
HETATM   16  C31 UNL     1       1.538  41.333  25.441  1.00  0.00     0.145 C
HETATM   17  C32 UNL     1       1.658  40.337  24.366  1.00  0.00     0.027 C
HETATM   18  C33 UNL     1       0.529  39.294  24.318  1.00  0.00     0.014 C
HETATM   19  C34 UNL     1       2.991  39.848  23.845  1.00  0.00    -0.007 C
HETATM   20  C35 UNL     1       4.024  40.872  24.263  1.00  0.00     0.021 C
HETATM   21  C36 UNL     1       2.862  40.274  22.350  1.00  0.00     0.038 C
ENDROOT
BRANCH   9  22
HETATM   22  O3  UNL     1       5.546  38.808  26.974  1.00  0.00    -0.352 OA
BRANCH  22  23
HETATM   23  C15 UNL     1       6.635  38.234  27.502  1.00  0.00     0.291 C
HETATM   24  O4  UNL     1       6.649  38.512  28.882  1.00  0.00    -0.354 OA
HETATM   25  C16 UNL     1       7.762  38.134  29.549  1.00  0.00     0.122 C
HETATM   26  C17 UNL     1       8.399  39.396  30.150  1.00  0.00     0.040 C
HETATM   27  C18 UNL     1       8.808  37.375  28.817  1.00  0.00     0.070 C
HETATM   28  C19 UNL     1       8.277  36.470  27.740  1.00  0.00     0.257 C
HETATM   29  C22 UNL     1       6.803  36.740  27.494  1.00  0.00     0.206 C
BRANCH  28  30
HETATM   30  N1  UNL     1       8.615  35.097  27.857  1.00  0.00     0.087 N
HETATM   31  C20 UNL     1       9.316  34.689  29.024  1.00  0.00     0.310 C
HETATM   32  C21 UNL     1       9.246  34.570  26.658  1.00  0.00     0.310 C
ENDBRANCH  28  30
BRANCH  29  33
HETATM   33  O5  UNL     1       6.101  36.160  28.573  1.00  0.00    -0.388 OA
ATOM     34  H5  UNL     1       6.707  35.760  29.185  1.00  0.00     0.210 HD
ENDBRANCH  29  33
ENDBRANCH  22  23
ENDBRANCH   9  22
BRANCH  10  35
HETATM   35  C24 UNL     1       2.844  36.440  27.424  1.00  0.00     0.006 C
HETATM   36  C25 UNL     1       1.630  35.968  26.767  1.00  0.00     0.006 C
ENDBRANCH  10  35
BRANCH  11  37
HETATM   37  O6  UNL     1       2.940  37.799  29.491  1.00  0.00    -0.391 OA
ATOM     38  H6  UNL     1       3.482  37.019  29.509  1.00  0.00     0.210 HD
ENDBRANCH  11  37
BRANCH  21  39
HETATM   39  C37 UNL     1       2.718  41.712  22.122  1.00  0.00     0.121 C
BRANCH  39  40
HETATM   40  C38 UNL     1       1.526  42.154  21.359  1.00  0.00     0.173 C
HETATM   41  O8  UNL     1       1.324  43.312  20.942  1.00  0.00    -0.648 OA
HETATM   42  O9  UNL     1       0.506  41.228  21.050  1.00  0.00    -0.648 OA
ENDBRANCH  39  40
ENDBRANCH  21  39
BRANCH   1  43
HETATM   43  O2  UNL     1       3.944  40.259  20.187  1.00  0.00    -0.315 OA
BRANCH  43  44
HETATM   44  C5  UNL     1       5.128  40.504  19.510  1.00  0.00     0.263 C
HETATM   45  O1  UNL     1       4.908  40.795  18.287  1.00  0.00    -0.265 OA
BRANCH  44  46
HETATM   46  C3  UNL     1       6.487  40.466  20.032  1.00  0.00     0.081 C
HETATM   47  C4  UNL     1       7.505  40.105  18.939  1.00  0.00     0.020 C
BRANCH  46  48
HETATM   48  C2  UNL     1       6.973  41.693  20.744  1.00  0.00     0.010 C
HETATM   49  C1  UNL     1       7.018  41.361  22.226  1.00  0.00     0.006 C
ENDBRANCH  46  48
ENDBRANCH  44  46
ENDBRANCH  43  44
ENDBRANCH   1  43
BRANCH  16  50
HETATM   50  O7  UNL     1       0.180  41.245  25.876  1.00  0.00    -0.391 OA
ATOM     51  H7  UNL     1      -0.090  40.338  25.799  1.00  0.00     0.210 HD
ENDBRANCH  16  50
TORSDOF 13
ENDMDL