MODEL 4
REMARK VINA RESULT: -6.066360598      2.401      4.616
REMARK  4 active torsions:
REMARK  status: ('A' for Active; 'I' for Inactive)
REMARK    1  A    between atoms: C3_3  and  C4_4
REMARK    2  A    between atoms: C4_4  and  N1_5
REMARK    3  A    between atoms: N2_7  and  O1_8
REMARK    4  A    between atoms: C6_10  and  N3_11
ROOT
HETATM    1  N1  UNL     1      -8.356  35.608  28.564  1.00  0.00    -0.327 N
HETATM    2  C5  UNL     1      -7.809  35.185  27.391  1.00  0.00     0.236 A
HETATM    3  N2  UNL     1      -6.582  35.555  27.016  1.00  0.00    -0.048 N
HETATM    4  C6  UNL     1      -5.845  36.356  27.780  1.00  0.00     0.704 A
HETATM    5  N4  UNL     1      -6.375  36.782  28.942  1.00  0.00    -0.179 N
ATOM      6  H4  UNL     1      -5.829  37.397  29.545  1.00  0.00     0.185 HD
HETATM    7  C7  UNL     1      -7.610  36.411  29.322  1.00  0.00     0.097 A
HETATM    8  C8  UNL     1      -8.122  36.922  30.617  1.00  0.00     0.090 C
ENDROOT
BRANCH   1   9
HETATM    9  C4  UNL     1      -9.685  35.193  28.944  1.00  0.00     0.158 C
BRANCH   9  10
HETATM   10  C3  UNL     1      -9.859  33.722  28.822  1.00  0.00    -0.011 C
HETATM   11  C2  UNL     1      -9.283  32.852  29.635  1.00  0.00    -0.033 C
HETATM   12  C1  UNL     1      -8.399  33.237  30.757  1.00  0.00     0.036 C
ENDBRANCH   9  10
ENDBRANCH   1   9
BRANCH   3  13
HETATM   13  O1  UNL     1      -6.081  35.093  25.817  1.00  0.00    -0.269 OA
ATOM     14  H1  UNL     1      -5.142  34.975  25.724  1.00  0.00     0.246 HD
ENDBRANCH   3  13
BRANCH   4  15
HETATM   15  N3  UNL     1      -4.667  36.695  27.393  1.00  0.00    -0.232 N
ATOM     16  H32 UNL     1      -4.067  36.071  26.855  1.00  0.00     0.174 HD
ATOM     17  H31 UNL     1      -4.308  37.621  27.627  1.00  0.00     0.174 HD
ENDBRANCH   4  15
TORSDOF 4
ENDMDL