MODEL 4
REMARK VINA RESULT: -6.341628152      1.515      2.023
REMARK  2 active torsions:
REMARK  status: ('A' for Active; 'I' for Inactive)
REMARK    1  A    between atoms: C4_4  and  C5_5
REMARK    2  A    between atoms: C5_5  and  N1_6
ROOT
HETATM    1  C1  UNL     1      -3.170  37.089  28.276  1.00  0.00     0.068 C
HETATM    2  C2  UNL     1      -4.654  36.957  28.352  1.00  0.00     0.007 A
HETATM    3  C3  UNL     1      -5.414  36.227  27.465  1.00  0.00     0.036 A
HETATM    4  C4  UNL     1      -6.755  36.320  27.831  1.00  0.00     0.005 A
HETATM    5  C8  UNL     1      -6.780  37.114  28.944  1.00  0.00     0.124 A
HETATM    6  N4  UNL     1      -7.973  37.470  29.650  1.00  0.00    -0.082 NA
HETATM    7  N5  UNL     1      -5.512  37.478  29.228  1.00  0.00    -0.348 N
ATOM      8  H5  UNL     1      -5.244  38.075  30.012  1.00  0.00     0.167 HD
ENDROOT
BRANCH   4   9
HETATM    9  C5  UNL     1      -7.906  35.681  27.142  1.00  0.00     0.192 C
BRANCH   9  10
HETATM   10  N1  UNL     1      -8.467  34.650  28.011  1.00  0.00    -0.282 N
HETATM   11  C6  UNL     1      -9.775  34.438  28.226  1.00  0.00     0.201 A
HETATM   12  N2  UNL     1      -9.938  33.415  29.075  1.00  0.00    -0.346 N
HETATM   13  C7  UNL     1      -8.697  32.998  29.382  1.00  0.00     0.198 A
ATOM     14  H2  UNL     1     -10.819  33.033  29.418  1.00  0.00     0.167 HD
HETATM   15  N3  UNL     1      -7.805  33.761  28.726  1.00  0.00    -0.293 N
ATOM     16  H3  UNL     1      -6.790  33.668  28.772  1.00  0.00     0.188 HD
ENDBRANCH   9  10
ENDBRANCH   4   9
TORSDOF 2
ENDMDL