MODEL 3
REMARK VINA RESULT: -5.281218535      1.877      5.700
REMARK  3 active torsions:
REMARK  status: ('A' for Active; 'I' for Inactive)
REMARK    1  A    between atoms: C3_4  and  C4_5
REMARK    2  A    between atoms: C4_5  and  N1_6
REMARK    3  A    between atoms: C6_10  and  N3_11
ROOT
HETATM    1  N1  UNL     1      -8.451  33.152  31.179  1.00  0.00    -0.267 N
HETATM    2  C5  UNL     1      -8.580  34.414  31.642  1.00  0.00     0.218 A
HETATM    3  N2  UNL     1      -8.602  34.426  32.986  1.00  0.00    -0.185 N
ATOM      4  H2  UNL     1      -8.690  35.238  33.597  1.00  0.00     0.185 HD
HETATM    5  C6  UNL     1      -8.484  33.139  33.354  1.00  0.00     0.691 A
HETATM    6  N4  UNL     1      -8.394  32.376  32.249  1.00  0.00    -0.129 N
ATOM      7  H4  UNL     1      -8.296  31.361  32.238  1.00  0.00     0.206 HD
ENDROOT
BRANCH   1   8
HETATM    8  C4  UNL     1      -8.388  32.732  29.778  1.00  0.00     0.217 C
BRANCH   8   9
HETATM    9  C3  UNL     1      -7.990  33.859  28.892  1.00  0.00     0.090 A
HETATM   10  O1  UNL     1      -6.835  34.486  28.842  1.00  0.00    -0.299 OA
HETATM   11  C2  UNL     1      -6.888  35.429  27.917  1.00  0.00     0.121 A
HETATM   12  C1  UNL     1      -5.770  36.358  27.560  1.00  0.00     0.098 C
HETATM   13  N5  UNL     1      -8.099  35.423  27.349  1.00  0.00    -0.343 N
HETATM   14  C7  UNL     1      -8.793  34.444  27.953  1.00  0.00     0.126 A
HETATM   15  C8  UNL     1      -8.555  36.316  26.281  1.00  0.00     0.157 C
ENDBRANCH   8   9
ENDBRANCH   1   8
BRANCH   5  16
HETATM   16  N3  UNL     1      -8.461  32.701  34.582  1.00  0.00    -0.233 N
ATOM     17  H32 UNL     1      -8.116  33.218  35.391  1.00  0.00     0.174 HD
ATOM     18  H31 UNL     1      -8.786  31.784  34.889  1.00  0.00     0.174 HD
ENDBRANCH   5  16
TORSDOF 3
ENDMDL