MODEL 4
REMARK VINA RESULT: -5.985692236      4.500      7.210
REMARK  3 active torsions:
REMARK  status: ('A' for Active; 'I' for Inactive)
REMARK    1  A    between atoms: C6_7  and  C7_8
REMARK    2  A    between atoms: C7_8  and  C8_9
REMARK    3  A    between atoms: C9_14  and  N4_15
ROOT
HETATM    1  C8  UNL     1      -8.432  33.050  31.999  1.00  0.00     0.115 A
HETATM    2  N2  UNL     1      -7.975  31.882  32.458  1.00  0.00    -0.274 N
ATOM      3  H2  UNL     1      -7.635  31.125  31.866  1.00  0.00     0.189 HD
HETATM    4  N3  UNL     1      -8.020  31.833  33.777  1.00  0.00    -0.131 N
ATOM      5  H3  UNL     1      -7.730  31.054  34.367  1.00  0.00     0.205 HD
HETATM    6  C9  UNL     1      -8.528  33.020  34.194  1.00  0.00     0.691 A
HETATM    7  N5  UNL     1      -8.776  33.756  33.092  1.00  0.00    -0.178 N
ATOM      8  H5  UNL     1      -9.163  34.700  33.087  1.00  0.00     0.185 HD
ENDROOT
BRANCH   1   9
HETATM    9  C7  UNL     1      -8.518  33.434  30.564  1.00  0.00     0.108 C
BRANCH   9  10
HETATM   10  C6  UNL     1      -8.142  34.847  30.340  1.00  0.00     0.010 C
HETATM   11  C5  UNL     1      -7.807  35.273  29.140  1.00  0.00     0.030 A
HETATM   12  N1  UNL     1      -7.423  36.596  28.762  1.00  0.00    -0.361 N
HETATM   13  C4  UNL     1      -7.745  34.499  27.905  1.00  0.00     0.030 A
HETATM   14  C1  UNL     1      -7.352  37.690  29.710  1.00  0.00     0.155 C
HETATM   15  C2  UNL     1      -7.165  36.638  27.510  1.00  0.00     0.090 A
HETATM   16  C3  UNL     1      -7.358  35.320  26.915  1.00  0.00     0.019 A
ENDBRANCH   9  10
ENDBRANCH   1   9
BRANCH   6  17
HETATM   17  N4  UNL     1      -8.741  33.391  35.410  1.00  0.00    -0.233 N
ATOM     18  H42 UNL     1      -9.633  33.336  35.902  1.00  0.00     0.174 HD
ATOM     19  H41 UNL     1      -8.063  33.789  36.060  1.00  0.00     0.174 HD
ENDBRANCH   6  17
TORSDOF 3
ENDMDL