MODEL 3
REMARK VINA RESULT: -5.069487842      1.333      4.906
REMARK  4 active torsions:
REMARK  status: ('A' for Active; 'I' for Inactive)
REMARK    1  A    between atoms: C3_5  and  N2_6
REMARK    2  A    between atoms: C5_12  and  N4_13
REMARK    3  A    between atoms: N4_13  and  C6_14
REMARK    4  A    between atoms: N4_13  and  C8_16
ROOT
HETATM    1  C1  UNL     1     -10.339  33.726  28.012  1.00  0.00     0.046 C
HETATM    2  C2  UNL     1      -9.394  33.633  28.903  1.00  0.00     0.068 A
HETATM    3  N1  UNL     1      -9.405  32.728  29.902  1.00  0.00    -0.191 N
ATOM      4  H1  UNL     1     -10.127  32.029  30.073  1.00  0.00     0.184 HD
HETATM    5  C3  UNL     1      -8.299  32.914  30.626  1.00  0.00     0.676 A
HETATM    6  N3  UNL     1      -7.592  33.942  30.074  1.00  0.00    -0.189 N
ATOM      7  H3  UNL     1      -6.703  34.299  30.424  1.00  0.00     0.184 HD
HETATM    8  C4  UNL     1      -8.238  34.402  29.018  1.00  0.00     0.090 A
HETATM    9  C5  UNL     1      -7.939  35.376  28.186  1.00  0.00     0.118 C
ENDROOT
BRANCH   9  10
HETATM   10  N4  UNL     1      -6.834  36.222  28.178  1.00  0.00    -0.389 N
BRANCH  10  11
HETATM   11  C6  UNL     1      -6.462  37.148  29.190  1.00  0.00     0.118 C
HETATM   12  C7  UNL     1      -7.627  37.709  29.993  1.00  0.00     0.026 C
ENDBRANCH  10  11
BRANCH  10  13
HETATM   13  C8  UNL     1      -5.928  36.114  27.012  1.00  0.00     0.118 C
HETATM   14  C9  UNL     1      -6.663  35.682  25.782  1.00  0.00     0.026 C
ENDBRANCH  10  13
ENDBRANCH   9  10
BRANCH   5  15
HETATM   15  N2  UNL     1      -7.907  32.266  31.685  1.00  0.00    -0.234 N
ATOM     16  H22 UNL     1      -8.329  32.390  32.605  1.00  0.00     0.174 HD
ATOM     17  H21 UNL     1      -7.164  31.572  31.764  1.00  0.00     0.174 HD
ENDBRANCH   5  15
TORSDOF 4
ENDMDL