MODEL 2
REMARK VINA RESULT: -4.838422788      4.043      6.333
REMARK  3 active torsions:
REMARK  status: ('A' for Active; 'I' for Inactive)
REMARK    1  A    between atoms: C3_4  and  N2_5
REMARK    2  A    between atoms: C6_14  and  C7_15
REMARK    3  A    between atoms: C7_15  and  N6_16
ROOT
HETATM    1  C1  UNL     1      -9.474  34.315  27.439  1.00  0.00     0.157 C
HETATM    2  N1  UNL     1      -9.018  34.456  28.793  1.00  0.00    -0.346 N
HETATM    3  C2  UNL     1      -9.113  33.497  29.722  1.00  0.00     0.142 A
HETATM    4  C3  UNL     1      -8.573  33.998  30.892  1.00  0.00     0.145 A
HETATM    5  N5  UNL     1      -8.179  35.248  30.591  1.00  0.00    -0.328 N
ATOM      6  H5  UNL     1      -7.737  35.884  31.254  1.00  0.00     0.169 HD
HETATM    7  C6  UNL     1      -8.441  35.557  29.306  1.00  0.00     0.110 A
ENDROOT
BRANCH   4   8
HETATM    8  N2  UNL     1      -8.455  33.331  32.159  1.00  0.00    -0.233 N
HETATM    9  C4  UNL     1      -8.064  32.066  32.387  1.00  0.00     0.209 A
HETATM   10  N3  UNL     1      -8.073  31.780  33.701  1.00  0.00    -0.346 N
HETATM   11  C5  UNL     1      -8.489  32.924  34.299  1.00  0.00     0.199 A
ATOM     12  H3  UNL     1      -7.822  30.898  34.148  1.00  0.00     0.167 HD
HETATM   13  N4  UNL     1      -8.712  33.847  33.325  1.00  0.00    -0.287 N
ATOM     14  H4  UNL     1      -9.033  34.802  33.486  1.00  0.00     0.188 HD
ENDBRANCH   4   8
BRANCH   7  15
HETATM   15  C7  UNL     1      -8.150  36.838  28.619  1.00  0.00     0.306 C
BRANCH  15  16
HETATM   16  N6  UNL     1      -6.838  36.853  28.006  1.00  0.00    -0.073 N
ATOM     17  H63 UNL     1      -6.736  36.088  27.339  1.00  0.00     0.274 HD
ATOM     18  H62 UNL     1      -6.741  37.642  27.366  1.00  0.00     0.274 HD
ATOM     19  H61 UNL     1      -6.085  36.844  28.694  1.00  0.00     0.274 HD
ENDBRANCH  15  16
ENDBRANCH   7  15
TORSDOF 3
ENDMDL