MODEL 3
REMARK VINA RESULT: -6.021933845      2.068      4.155
REMARK  4 active torsions:
REMARK  status: ('A' for Active; 'I' for Inactive)
REMARK    1  A    between atoms: C2_2  and  C3_3
REMARK    2  A    between atoms: C3_3  and  N1_4
REMARK    3  A    between atoms: N1_4  and  C4_6
REMARK    4  A    between atoms: C7_11  and  N3_12
ROOT
HETATM    1  C4  UNL     1      -8.906  34.821  27.952  1.00  0.00     0.693 A
HETATM    2  N2  UNL     1      -8.688  35.631  28.992  1.00  0.00    -0.191 N
ATOM      3  H2  UNL     1      -8.691  36.639  28.833  1.00  0.00     0.184 HD
HETATM    4  C5  UNL     1      -8.462  35.173  30.260  1.00  0.00     0.067 A
HETATM    5  C6  UNL     1      -8.235  36.179  31.312  1.00  0.00     0.073 C
HETATM    6  C7  UNL     1      -8.458  33.823  30.469  1.00  0.00     0.139 A
HETATM    7  N4  UNL     1      -8.682  33.027  29.394  1.00  0.00    -0.270 N
ATOM      8  H4  UNL     1      -8.682  32.017  29.533  1.00  0.00     0.189 HD
HETATM    9  N5  UNL     1      -8.896  33.485  28.190  1.00  0.00    -0.131 N
ATOM     10  H5  UNL     1      -9.059  32.833  27.423  1.00  0.00     0.205 HD
ENDROOT
BRANCH   1  11
HETATM   11  N1  UNL     1      -9.119  35.274  26.752  1.00  0.00    -0.221 N
ATOM     12  H1  UNL     1      -9.913  34.934  26.209  1.00  0.00     0.178 HD
BRANCH  11  13
HETATM   13  C3  UNL     1      -8.226  36.258  26.194  1.00  0.00     0.164 C
BRANCH  13  14
HETATM   14  C2  UNL     1      -6.873  35.692  26.065  1.00  0.00    -0.017 C
HETATM   15  C1  UNL     1      -5.886  36.103  26.848  1.00  0.00     0.008 C
ENDBRANCH  13  14
ENDBRANCH  11  13
ENDBRANCH   1  11
BRANCH   6  16
HETATM   16  N3  UNL     1      -8.272  33.254  31.557  1.00  0.00    -0.378 N
HETATM   17  C8  UNL     1      -8.104  31.954  32.034  1.00  0.00     0.147 C
ATOM     18  H3  UNL     1      -8.231  33.930  32.320  1.00  0.00     0.160 HD
ENDBRANCH   6  16
TORSDOF 4
ENDMDL