MODEL 3
REMARK VINA RESULT: -5.227214619      2.094      5.135
REMARK  4 active torsions:
REMARK  status: ('A' for Active; 'I' for Inactive)
REMARK    1  A    between atoms: N2_7  and  C5_8
REMARK    2  A    between atoms: C5_8  and  C6_9
REMARK    3  A    between atoms: C6_9  and  N3_10
REMARK    4  A    between atoms: N5_17  and  O1_18
ROOT
HETATM    1  C1  UNL     1      -6.973  35.895  25.692  1.00  0.00     0.091 C
HETATM    2  C2  UNL     1      -7.396  35.290  26.993  1.00  0.00     0.108 A
HETATM    3  N1  UNL     1      -8.025  34.109  27.201  1.00  0.00    -0.340 N
ATOM      4  H1  UNL     1      -8.306  33.448  26.476  1.00  0.00     0.167 HD
HETATM    5  C3  UNL     1      -8.218  33.953  28.531  1.00  0.00     0.099 A
HETATM    6  C4  UNL     1      -8.729  33.130  29.538  1.00  0.00     0.143 A
HETATM    7  N2  UNL     1      -8.480  33.798  30.679  1.00  0.00    -0.298 N
HETATM    8  N4  UNL     1      -7.866  34.943  30.433  1.00  0.00    -0.280 N
ATOM      9  H4  UNL     1      -7.576  35.618  31.141  1.00  0.00     0.189 HD
HETATM   10  C7  UNL     1      -7.682  35.084  29.108  1.00  0.00     0.177 A
HETATM   11  N5  UNL     1      -7.177  35.905  28.167  1.00  0.00    -0.192 N
ENDROOT
BRANCH   7  12
HETATM   12  C5  UNL     1      -8.820  33.357  32.009  1.00  0.00     0.175 C
BRANCH  12  13
HETATM   13  C6  UNL     1      -8.067  32.055  32.262  1.00  0.00     0.251 C
BRANCH  13  14
HETATM   14  N3  UNL     1      -7.925  31.894  33.680  1.00  0.00    -0.078 N
ATOM     15  H33 UNL     1      -8.814  31.722  34.149  1.00  0.00     0.274 HD
ATOM     16  H32 UNL     1      -7.466  31.019  33.933  1.00  0.00     0.274 HD
ATOM     17  H31 UNL     1      -7.439  32.714  34.044  1.00  0.00     0.274 HD
ENDBRANCH  13  14
ENDBRANCH  12  13
ENDBRANCH   7  12
BRANCH  11  18
HETATM   18  O1  UNL     1      -6.560  37.132  28.381  1.00  0.00    -0.280 OA
ATOM     19  H1  UNL     1      -6.944  37.997  28.298  1.00  0.00     0.245 HD
ENDBRANCH  11  18
TORSDOF 4
ENDMDL