MODEL 4
REMARK VINA RESULT: -4.523382616      1.954      4.363
REMARK  2 active torsions:
REMARK  status: ('A' for Active; 'I' for Inactive)
REMARK    1  A    between atoms: C2_2  and  N1_3
REMARK    2  A    between atoms: C3_6  and  N3_7
ROOT
HETATM    1  N1  UNL     1      -7.253  36.220  29.000  1.00  0.00    -0.267 N
HETATM    2  N2  UNL     1      -7.469  35.510  30.100  1.00  0.00    -0.129 N
ATOM      3  H2  UNL     1      -6.914  35.707  30.933  1.00  0.00     0.206 HD
HETATM    4  C3  UNL     1      -8.400  34.538  30.151  1.00  0.00     0.694 A
HETATM    5  N4  UNL     1      -9.140  34.266  29.062  1.00  0.00    -0.168 N
HETATM    6  C4  UNL     1     -10.130  33.216  29.154  1.00  0.00     0.177 C
HETATM    7  C5  UNL     1      -8.970  34.960  27.897  1.00  0.00     0.166 A
HETATM    8  N5  UNL     1      -9.393  35.092  26.627  1.00  0.00    -0.308 N
ATOM      9  H5  UNL     1     -10.104  34.610  26.077  1.00  0.00     0.176 HD
HETATM   10  S1  UNL     1      -8.328  36.333  26.282  1.00  0.00     0.011 SA
HETATM   11  C6  UNL     1      -7.987  35.956  27.910  1.00  0.00     0.154 A
ENDROOT
BRANCH   4  12
HETATM   12  N3  UNL     1      -8.606  33.849  31.226  1.00  0.00    -0.233 N
ATOM     13  H32 UNL     1      -7.921  33.142  31.490  1.00  0.00     0.174 HD
ATOM     14  H31 UNL     1      -9.430  33.997  31.809  1.00  0.00     0.174 HD
ENDBRANCH   4  12
BRANCH   1  15
HETATM   15  C2  UNL     1      -6.241  37.259  28.988  1.00  0.00     0.146 C
HETATM   16  C1  UNL     1      -5.043  36.755  28.234  1.00  0.00     0.028 C
ENDBRANCH   1  15
TORSDOF 2
ENDMDL