MODEL 4
REMARK VINA RESULT: -5.975999145      4.239      5.380
REMARK  3 active torsions:
REMARK  status: ('A' for Active; 'I' for Inactive)
REMARK    1  A    between atoms: N2_7  and  C5_9
REMARK    2  A    between atoms: C5_9  and  C6_10
REMARK    3  A    between atoms: N3_11  and  C7_13
ROOT
HETATM    1  C1  UNL     1      50.294 -24.473  10.384  1.00  0.00     0.070 C
HETATM    2  C2  UNL     1      51.241 -25.323   9.615  1.00  0.00     0.024 A
HETATM    3  C3  UNL     1      52.459 -25.715  10.126  1.00  0.00     0.114 A
HETATM    4  N1  UNL     1      53.292 -26.489   9.395  1.00  0.00    -0.346 N
ATOM      5  H1  UNL     1      54.186 -26.760   9.806  1.00  0.00     0.167 HD
HETATM    6  C4  UNL     1      53.007 -26.920   8.155  1.00  0.00     0.171 A
HETATM    7  N2  UNL     1      53.792 -27.658   7.446  1.00  0.00    -0.367 N
ATOM      8  H2  UNL     1      53.504 -27.946   6.511  1.00  0.00     0.161 HD
HETATM    9  C8  UNL     1      51.766 -26.515   7.648  1.00  0.00     0.289 A
HETATM   10  O1  UNL     1      51.490 -26.916   6.484  1.00  0.00    -0.264 OA
HETATM   11  N5  UNL     1      50.941 -25.747   8.375  1.00  0.00    -0.323 N
ATOM     12  H5  UNL     1      50.045 -25.475   7.970  1.00  0.00     0.169 HD
ENDROOT
BRANCH   7  13
HETATM   13  C5  UNL     1      55.057 -28.077   7.951  1.00  0.00     0.165 C
BRANCH  13  14
HETATM   14  C6  UNL     1      55.519 -29.249   7.167  1.00  0.00     0.081 C
HETATM   15  N3  UNL     1      56.769 -29.514   7.097  1.00  0.00    -0.365 N
ATOM     16  H3  UNL     1      57.097 -30.317   6.561  1.00  0.00     0.165 HD
BRANCH  15  17
HETATM   17  C7  UNL     1      57.690 -28.682   7.770  1.00  0.00     0.172 C
HETATM   18  N4  UNL     1      58.337 -27.792   7.114  1.00  0.00    -0.395 N
ATOM     19  H42 UNL     1      58.176 -27.698   6.111  1.00  0.00     0.156 HD
ATOM     20  H41 UNL     1      59.003 -27.191   7.601  1.00  0.00     0.156 HD
ENDBRANCH  15  17
ENDBRANCH  13  14
ENDBRANCH   7  13
TORSDOF 3
ENDMDL