MODEL 2
REMARK VINA RESULT: -5.668976671      1.860      4.697
REMARK  5 active torsions:
REMARK  status: ('A' for Active; 'I' for Inactive)
REMARK    1  A    between atoms: C2_2  and  C3_3
REMARK    2  A    between atoms: C3_3  and  C4_4
REMARK    3  A    between atoms: C5_5  and  N1_6
REMARK    4  A    between atoms: N1_6  and  O1_8
REMARK    5  A    between atoms: C8_15  and  N4_16
ROOT
HETATM    1  C4  UNL     1      51.597 -26.023   9.969  1.00  0.00     0.049 A
HETATM    2  C5  UNL     1      51.367 -26.511  11.220  1.00  0.00     0.139 A
HETATM    3  N2  UNL     1      50.226 -27.136  11.570  1.00  0.00    -0.332 N
HETATM    4  C6  UNL     1      50.054 -27.618  12.915  1.00  0.00     0.158 C
HETATM    5  C7  UNL     1      49.301 -27.261  10.607  1.00  0.00     0.186 A
HETATM    6  N3  UNL     1      49.449 -26.818   9.367  1.00  0.00    -0.327 N
ATOM      7  H3  UNL     1      48.702 -26.951   8.684  1.00  0.00     0.169 HD
HETATM    8  C8  UNL     1      50.626 -26.170   8.997  1.00  0.00     0.188 A
ENDROOT
BRANCH   2   9
HETATM    9  N1  UNL     1      52.370 -26.420  12.199  1.00  0.00    -0.252 N
ATOM     10  H1  UNL     1      53.021 -27.153  12.481  1.00  0.00     0.196 HD
BRANCH   9  11
HETATM   11  O1  UNL     1      52.294 -25.129  12.703  1.00  0.00    -0.288 OA
ATOM     12  H1  UNL     1      51.508 -25.103  13.236  1.00  0.00     0.244 HD
ENDBRANCH   9  11
ENDBRANCH   2   9
BRANCH   1  13
HETATM   13  C3  UNL     1      52.828 -25.289   9.656  1.00  0.00     0.074 C
BRANCH  13  14
HETATM   14  C2  UNL     1      53.895 -26.316   9.452  1.00  0.00    -0.032 C
HETATM   15  C1  UNL     1      53.879 -27.181   8.452  1.00  0.00     0.007 C
ENDBRANCH  13  14
ENDBRANCH   1  13
BRANCH   8  16
HETATM   16  N4  UNL     1      50.741 -25.800   7.857  1.00  0.00    -0.410 NA
HETATM   17  C9  UNL     1      51.058 -25.750   6.567  1.00  0.00     0.231 C
ENDBRANCH   8  16
TORSDOF 5
ENDMDL