MODEL 2
REMARK VINA RESULT: -5.342862100      1.204      1.704
REMARK  2 active torsions:
REMARK  status: ('A' for Active; 'I' for Inactive)
REMARK    1  A    between atoms: N2_5  and  C4_6
REMARK    2  A    between atoms: C4_6  and  C5_7
ROOT
HETATM    1  C5  UNL     1      51.544 -25.823   9.335  1.00  0.00     0.060 A
HETATM    2  C6  UNL     1      52.608 -26.560   8.880  1.00  0.00     0.133 A
HETATM    3  N3  UNL     1      52.556 -26.675   7.535  1.00  0.00    -0.200 N
ATOM      4  H3  UNL     1      53.221 -27.169   6.941  1.00  0.00     0.183 HD
HETATM    5  C7  UNL     1      51.455 -26.009   7.129  1.00  0.00     0.676 A
HETATM    6  N4  UNL     1      51.077 -25.900   5.901  1.00  0.00    -0.234 N
ATOM      7  H41 UNL     1      50.245 -25.397   5.594  1.00  0.00     0.174 HD
ATOM      8  H42 UNL     1      51.532 -26.285   5.073  1.00  0.00     0.174 HD
HETATM    9  N5  UNL     1      50.849 -25.496   8.230  1.00  0.00    -0.193 N
ATOM     10  H5  UNL     1      49.992 -24.944   8.221  1.00  0.00     0.184 HD
ENDROOT
BRANCH   1  11
HETATM   11  C4  UNL     1      51.257 -25.481  10.752  1.00  0.00     0.188 C
BRANCH  11  12
HETATM   12  N2  UNL     1      50.599 -26.553  11.451  1.00  0.00    -0.346 N
HETATM   13  C3  UNL     1      49.655 -27.364  10.947  1.00  0.00     0.109 A
HETATM   14  C2  UNL     1      49.262 -28.261  11.903  1.00  0.00     0.108 A
HETATM   15  N1  UNL     1      49.972 -27.995  12.998  1.00  0.00    -0.356 N
HETATM   16  C1  UNL     1      49.922 -28.674  14.297  1.00  0.00     0.156 C
HETATM   17  C8  UNL     1      50.791 -26.945  12.715  1.00  0.00     0.185 A
ENDBRANCH  11  12
ENDBRANCH   1  11
TORSDOF 2
ENDMDL