MODEL 4
REMARK VINA RESULT: -4.976176955      1.246      2.309
REMARK  4 active torsions:
REMARK  status: ('A' for Active; 'I' for Inactive)
REMARK    1  A    between atoms: C5_8  and  N3_9
REMARK    2  A    between atoms: N3_9  and  C6_11
REMARK    3  A    between atoms: C6_11  and  C7_12
REMARK    4  A    between atoms: C7_12  and  N4_13
ROOT
HETATM    1  C1  UNL     1      51.387 -25.910   6.704  1.00  0.00     0.154 C
HETATM    2  N1  UNL     1      51.381 -26.066   8.144  1.00  0.00    -0.368 N
HETATM    3  C2  UNL     1      52.356 -25.473   8.851  1.00  0.00     0.092 A
HETATM    4  C3  UNL     1      52.390 -25.593  10.208  1.00  0.00     0.049 A
HETATM    5  C4  UNL     1      51.401 -26.338  10.829  1.00  0.00     0.079 A
HETATM    6  N2  UNL     1      51.176 -26.629  12.121  1.00  0.00    -0.190 N
ATOM      7  H2  UNL     1      51.756 -26.314  12.899  1.00  0.00     0.184 HD
HETATM    8  C5  UNL     1      50.080 -27.394  12.244  1.00  0.00     0.679 A
HETATM    9  N5  UNL     1      49.614 -27.580  10.995  1.00  0.00    -0.188 N
ATOM     10  H5  UNL     1      48.785 -28.122  10.753  1.00  0.00     0.184 HD
HETATM   11  C8  UNL     1      50.411 -26.940  10.109  1.00  0.00     0.092 A
HETATM   12  C9  UNL     1      50.416 -26.792   8.734  1.00  0.00     0.122 A
ENDROOT
BRANCH   8  13
HETATM   13  N3  UNL     1      49.522 -27.887  13.282  1.00  0.00    -0.224 N
ATOM     14  H3  UNL     1      48.519 -27.738  13.393  1.00  0.00     0.177 HD
BRANCH  13  15
HETATM   15  C6  UNL     1      50.200 -28.635  14.306  1.00  0.00     0.165 C
BRANCH  15  16
HETATM   16  C7  UNL     1      50.518 -27.646  15.433  1.00  0.00     0.249 C
BRANCH  16  17
HETATM   17  N4  UNL     1      51.316 -28.264  16.457  1.00  0.00    -0.078 N
ATOM     18  H43 UNL     1      51.953 -27.595  16.889  1.00  0.00     0.274 HD
ATOM     19  H42 UNL     1      50.757 -28.500  17.276  1.00  0.00     0.274 HD
ATOM     20  H41 UNL     1      51.814 -29.077  16.096  1.00  0.00     0.274 HD
ENDBRANCH  16  17
ENDBRANCH  15  16
ENDBRANCH  13  15
ENDBRANCH   8  13
TORSDOF 4
ENDMDL