MODEL 5
REMARK VINA RESULT: -5.542934403      1.695      2.355
REMARK  5 active torsions:
REMARK  status: ('A' for Active; 'I' for Inactive)
REMARK    1  A    between atoms: N1_2  and  C2_4
REMARK    2  A    between atoms: C4_8  and  C5_9
REMARK    3  A    between atoms: C5_9  and  N3_10
REMARK    4  A    between atoms: N3_10  and  O1_12
REMARK    5  A    between atoms: C7_14  and  N4_15
ROOT
HETATM    1  C2  UNL     1      49.737 -27.259  11.761  1.00  0.00     0.679 A
HETATM    2  N2  UNL     1      50.965 -26.794  12.054  1.00  0.00    -0.201 N
ATOM      3  H2  UNL     1      51.310 -26.835  13.013  1.00  0.00     0.183 HD
HETATM    4  C3  UNL     1      51.749 -26.268  11.067  1.00  0.00     0.122 A
HETATM    5  C4  UNL     1      51.337 -26.193   9.773  1.00  0.00     0.041 A
HETATM    6  C7  UNL     1      50.069 -26.678   9.491  1.00  0.00     0.127 A
HETATM    7  N5  UNL     1      49.328 -27.186  10.487  1.00  0.00    -0.176 N
ATOM      8  H5  UNL     1      48.397 -27.536  10.261  1.00  0.00     0.186 HD
ENDROOT
BRANCH   5   9
HETATM    9  C5  UNL     1      52.088 -25.644   8.638  1.00  0.00     0.132 C
BRANCH   9  10
HETATM   10  N3  UNL     1      52.700 -26.567   7.774  1.00  0.00    -0.276 N
HETATM   11  C6  UNL     1      53.850 -27.333   8.149  1.00  0.00     0.184 C
BRANCH  10  12
HETATM   12  O1  UNL     1      52.262 -26.737   6.679  1.00  0.00    -0.288 OA
ATOM     13  H1  UNL     1      52.841 -26.995   5.972  1.00  0.00     0.244 HD
ENDBRANCH  10  12
ENDBRANCH   9  10
ENDBRANCH   5   9
BRANCH   6  14
HETATM   14  N4  UNL     1      49.567 -26.659   8.300  1.00  0.00    -0.384 N
ATOM     15  H42 UNL     1      48.933 -25.899   8.053  1.00  0.00     0.157 HD
ATOM     16  H41 UNL     1      49.781 -27.372   7.603  1.00  0.00     0.157 HD
ENDBRANCH   6  14
BRANCH   1  17
HETATM   17  N1  UNL     1      49.003 -27.755  12.703  1.00  0.00    -0.230 N
HETATM   18  C1  UNL     1      49.380 -28.945  13.433  1.00  0.00     0.165 C
ATOM     19  H1  UNL     1      48.127 -27.290  12.939  1.00  0.00     0.177 HD
ENDBRANCH   1  17
TORSDOF 5
ENDMDL