MODEL 4
REMARK VINA RESULT: -5.331000206      1.782      5.611
REMARK  4 active torsions:
REMARK  status: ('A' for Active; 'I' for Inactive)
REMARK    1  A    between atoms: C3_7  and  N3_8
REMARK    2  A    between atoms: N3_8  and  C4_10
REMARK    3  A    between atoms: C4_10  and  C5_11
REMARK    4  A    between atoms: C5_11  and  N4_12
ROOT
HETATM    1  C1  UNL     1      52.458 -25.092   9.285  1.00  0.00     0.147 C
HETATM    2  N1  UNL     1      52.227 -25.525  10.572  1.00  0.00    -0.380 N
ATOM      3  H1  UNL     1      52.922 -25.102  11.187  1.00  0.00     0.160 HD
HETATM    4  C2  UNL     1      51.492 -26.232  11.246  1.00  0.00     0.123 A
HETATM    5  N2  UNL     1      51.736 -26.305  12.591  1.00  0.00    -0.177 N
ATOM      6  H2  UNL     1      52.515 -25.769  12.971  1.00  0.00     0.186 HD
HETATM    7  C3  UNL     1      51.005 -27.040  13.429  1.00  0.00     0.679 A
HETATM    8  N5  UNL     1      49.966 -27.762  12.956  1.00  0.00    -0.201 N
ATOM      9  H5  UNL     1      49.398 -28.330  13.586  1.00  0.00     0.183 HD
HETATM   10  C6  UNL     1      49.696 -27.719  11.651  1.00  0.00     0.116 A
HETATM   11  C7  UNL     1      50.443 -26.958  10.756  1.00  0.00    -0.002 A
HETATM   12  C8  UNL     1      50.161 -26.898   9.318  1.00  0.00     0.054 C
ENDROOT
BRANCH   7  13
HETATM   13  N3  UNL     1      51.253 -27.096  14.702  1.00  0.00    -0.224 N
ATOM     14  H3  UNL     1      51.944 -26.461  15.103  1.00  0.00     0.177 HD
BRANCH  13  15
HETATM   15  C4  UNL     1      50.578 -28.028  15.557  1.00  0.00     0.165 C
BRANCH  15  16
HETATM   16  C5  UNL     1      50.959 -27.887  16.994  1.00  0.00     0.249 C
BRANCH  16  17
HETATM   17  N4  UNL     1      52.305 -28.402  17.187  1.00  0.00    -0.078 N
ATOM     18  H43 UNL     1      52.657 -28.882  16.359  1.00  0.00     0.274 HD
ATOM     19  H42 UNL     1      53.002 -27.658  17.229  1.00  0.00     0.274 HD
ATOM     20  H41 UNL     1      52.322 -28.996  18.016  1.00  0.00     0.274 HD
ENDBRANCH  16  17
ENDBRANCH  15  16
ENDBRANCH  13  15
ENDBRANCH   7  13
TORSDOF 4
ENDMDL