MODEL 5
REMARK VINA RESULT: -5.956078378      2.202      5.078
REMARK  4 active torsions:
REMARK  status: ('A' for Active; 'I' for Inactive)
REMARK    1  A    between atoms: C4_4  and  C5_5
REMARK    2  A    between atoms: C5_5  and  N1_6
REMARK    3  A    between atoms: N1_6  and  C6_8
REMARK    4  A    between atoms: C9_13  and  N3_14
ROOT
HETATM    1  C1  UNL     1      49.496 -29.151  13.611  1.00  0.00     0.027 C
HETATM    2  C2  UNL     1      49.330 -28.359  12.707  1.00  0.00    -0.026 C
HETATM    3  C3  UNL     1      49.115 -27.429  11.661  1.00  0.00    -0.014 C
HETATM    4  C4  UNL     1      48.926 -26.648  10.756  1.00  0.00    -0.073 C
ENDROOT
BRANCH   4   5
HETATM    5  C5  UNL     1      48.721 -25.696   9.645  1.00  0.00     0.216 C
BRANCH   5   6
HETATM    6  N1  UNL     1      49.512 -26.130   8.540  1.00  0.00    -0.365 N
ATOM      7  H1  UNL     1      49.063 -26.367   7.654  1.00  0.00     0.162 HD
BRANCH   6   8
HETATM    8  C6  UNL     1      50.788 -26.224   8.658  1.00  0.00     0.118 A
HETATM    9  C7  UNL     1      51.516 -26.757   7.612  1.00  0.00     0.066 A
HETATM   10  C8  UNL     1      52.878 -26.848   7.759  1.00  0.00     0.110 A
HETATM   11  N2  UNL     1      53.474 -26.424   8.900  1.00  0.00    -0.202 N
HETATM   12  C9  UNL     1      52.761 -25.914   9.895  1.00  0.00     0.679 A
ATOM     13  H2  UNL     1      54.487 -26.499   8.996  1.00  0.00     0.183 HD
HETATM   14  N4  UNL     1      51.422 -25.805   9.797  1.00  0.00    -0.177 N
ATOM     15  H4  UNL     1      50.882 -25.412  10.568  1.00  0.00     0.185 HD
BRANCH  12  16
HETATM   16  N3  UNL     1      53.301 -25.506  10.984  1.00  0.00    -0.230 N
HETATM   17  C10 UNL     1      52.804 -25.707  12.299  1.00  0.00     0.165 C
ATOM     18  H3  UNL     1      54.174 -24.986  10.898  1.00  0.00     0.177 HD
ENDBRANCH  12  16
ENDBRANCH   6   8
ENDBRANCH   5   6
ENDBRANCH   4   5
TORSDOF 4
ENDMDL