MODEL 2
REMARK VINA RESULT: -6.636864330      1.225      2.559
REMARK  5 active torsions:
REMARK  status: ('A' for Active; 'I' for Inactive)
REMARK    1  A    between atoms: C3_5  and  N2_6
REMARK    2  A    between atoms: N3_9  and  O1_10
REMARK    3  A    between atoms: C6_14  and  C7_15
REMARK    4  A    between atoms: C7_15  and  C8_16
REMARK    5  A    between atoms: N4_17  and  O2_19
ROOT
HETATM    1  C1  UNL     1      48.910 -26.466   9.353  1.00  0.00     0.069 C
HETATM    2  C2  UNL     1      50.037 -26.409  10.302  1.00  0.00     0.031 A
HETATM    3  N1  UNL     1      49.888 -26.906  11.567  1.00  0.00    -0.194 N
ATOM      4  H1  UNL     1      48.998 -27.325  11.836  1.00  0.00     0.184 HD
HETATM    5  C3  UNL     1      50.885 -26.855  12.462  1.00  0.00     0.702 A
HETATM    6  N3  UNL     1      52.049 -26.301  12.099  1.00  0.00    -0.057 N
HETATM    7  C4  UNL     1      52.250 -25.792  10.852  1.00  0.00     0.063 A
HETATM    8  C5  UNL     1      53.541 -25.224  10.553  1.00  0.00     0.072 C
HETATM    9  C6  UNL     1      51.237 -25.842   9.933  1.00  0.00    -0.005 A
ENDROOT
BRANCH   9  10
HETATM   10  C7  UNL     1      51.438 -25.330   8.599  1.00  0.00     0.089 C
BRANCH  10  11
HETATM   11  C8  UNL     1      51.981 -26.459   7.753  1.00  0.00     0.091 C
HETATM   12  N4  UNL     1      51.698 -26.545   6.503  1.00  0.00    -0.284 N
ATOM     13  H4  UNL     1      52.070 -27.310   5.939  1.00  0.00     0.192 HD
BRANCH  12  14
HETATM   14  O2  UNL     1      50.889 -25.594   5.937  1.00  0.00    -0.291 OA
ATOM     15  H2  UNL     1      50.083 -25.353   6.379  1.00  0.00     0.244 HD
ENDBRANCH  12  14
ENDBRANCH  10  11
ENDBRANCH   9  10
BRANCH   6  16
HETATM   16  O1  UNL     1      53.047 -26.269  13.046  1.00  0.00    -0.269 OA
ATOM     17  H1  UNL     1      53.523 -25.452  13.143  1.00  0.00     0.245 HD
ENDBRANCH   6  16
BRANCH   5  18
HETATM   18  N2  UNL     1      50.671 -27.344  13.637  1.00  0.00    -0.232 N
ATOM     19  H22 UNL     1      51.153 -28.169  13.995  1.00  0.00     0.174 HD
ATOM     20  H21 UNL     1      49.986 -26.878  14.232  1.00  0.00     0.174 HD
ENDBRANCH   5  18
TORSDOF 5
ENDMDL