MODEL 5
REMARK VINA RESULT: -5.465317677      3.126      5.254
REMARK  2 active torsions:
REMARK  status: ('A' for Active; 'I' for Inactive)
REMARK    1  A    between atoms: O1_2  and  C2_3
REMARK    2  A    between atoms: C2_3  and  C3_4
ROOT
HETATM    1  C3  UNL     1     -27.867  31.428 -26.548  1.00  0.00     0.109 A
HETATM    2  N1  UNL     1     -28.833  30.982 -25.744  1.00  0.00    -0.328 N
ATOM      3  H1  UNL     1     -28.705  30.357 -24.948  1.00  0.00     0.169 HD
HETATM    4  C4  UNL     1     -29.993  31.493 -26.155  1.00  0.00     0.135 A
HETATM    5  N2  UNL     1     -31.254  31.375 -25.718  1.00  0.00    -0.327 N
ATOM      6  H2  UNL     1     -31.435  30.787 -24.904  1.00  0.00     0.169 HD
HETATM    7  C5  UNL     1     -32.294  32.001 -26.308  1.00  0.00     0.106 A
HETATM    8  N3  UNL     1     -33.515  31.870 -25.862  1.00  0.00    -0.385 N
ATOM      9  H31 UNL     1     -34.301  32.342 -26.308  1.00  0.00     0.157 HD
ATOM     10  H32 UNL     1     -33.699  31.283 -25.048  1.00  0.00     0.157 HD
HETATM   11  C6  UNL     1     -32.046  32.790 -27.402  1.00  0.00    -0.016 A
HETATM   12  C7  UNL     1     -33.147  33.508 -28.099  1.00  0.00     0.052 C
HETATM   13  C8  UNL     1     -30.767  32.948 -27.895  1.00  0.00     0.044 A
HETATM   14  C9  UNL     1     -29.723  32.278 -27.249  1.00  0.00     0.080 A
HETATM   15  N4  UNL     1     -28.417  32.225 -27.472  1.00  0.00    -0.336 N
HETATM   16  C10 UNL     1     -27.767  32.941 -28.559  1.00  0.00     0.158 C
ENDROOT
BRANCH   1  17
HETATM   17  C2  UNL     1     -26.406  31.117 -26.466  1.00  0.00     0.243 C
BRANCH  17  18
HETATM   18  O1  UNL     1     -25.977  30.279 -27.462  1.00  0.00    -0.389 OA
HETATM   19  C1  UNL     1     -25.296  29.169 -27.035  1.00  0.00     0.202 C
ENDBRANCH  17  18
ENDBRANCH   1  17
TORSDOF 2
ENDMDL