MODEL 1
REMARK VINA RESULT: -6.220660677      0.000      0.000
REMARK  5 active torsions:
REMARK  status: ('A' for Active; 'I' for Inactive)
REMARK    1  A    between atoms: C3_3  and  C4_4
REMARK    2  A    between atoms: C4_4  and  C5_5
REMARK    3  A    between atoms: C9_10  and  N2_11
REMARK    4  A    between atoms: C10_16  and  N4_17
REMARK    5  A    between atoms: N4_17  and  C11_19
ROOT
HETATM    1  C1  UNL     1     -31.387  32.070 -26.801  1.00  0.00     0.012 C
HETATM    2  C2  UNL     1     -30.463  32.553 -27.406  1.00  0.00    -0.114 C
HETATM    3  C3  UNL     1     -29.348  33.151 -28.133  1.00  0.00     0.121 C
ENDROOT
BRANCH   3   4
HETATM    4  C4  UNL     1     -28.064  32.848 -27.500  1.00  0.00     0.000 C
BRANCH   4   5
HETATM    5  C5  UNL     1     -27.702  31.626 -27.252  1.00  0.00     0.007 C
HETATM    6  C6  UNL     1     -28.112  30.680 -28.197  1.00  0.00     0.033 C
HETATM    7  C7  UNL     1     -27.403  29.541 -28.604  1.00  0.00     0.114 C
HETATM    8  N1  UNL     1     -26.356  28.981 -27.981  1.00  0.00    -0.179 N
HETATM    9  C8  UNL     1     -26.075  27.799 -28.350  1.00  0.00     0.146 C
HETATM   10  C9  UNL     1     -25.575  29.518 -27.021  1.00  0.00     0.682 C
HETATM   11  N3  UNL     1     -25.870  30.528 -26.148  1.00  0.00    -0.176 N
HETATM   12  C10 UNL     1     -26.972  31.354 -26.129  1.00  0.00     0.127 C
ATOM     13  H3  UNL     1     -25.182  30.691 -25.413  1.00  0.00     0.186 HD
BRANCH  10  14
HETATM   14  N2  UNL     1     -24.400  29.021 -26.905  1.00  0.00    -0.234 N
ATOM     15  H22 UNL     1     -23.720  29.345 -27.593  1.00  0.00     0.174 HD
ATOM     16  H21 UNL     1     -24.266  28.357 -26.143  1.00  0.00     0.174 HD
ENDBRANCH  10  14
BRANCH  12  17
HETATM   17  N4  UNL     1     -27.275  31.797 -25.043  1.00  0.00    -0.376 N
ATOM     18  H4  UNL     1     -26.982  32.770 -24.952  1.00  0.00     0.161 HD
BRANCH  17  19
HETATM   19  C11 UNL     1     -27.906  31.365 -23.887  1.00  0.00     0.116 C
HETATM   20  C12 UNL     1     -29.219  30.624 -24.150  1.00  0.00     0.026 C
ENDBRANCH  17  19
ENDBRANCH  12  17
ENDBRANCH   4   5
ENDBRANCH   3   4
TORSDOF 5
ENDMDL