MODEL 3
REMARK VINA RESULT: -6.778281135      1.718      1.917
REMARK  7 active torsions:
REMARK  status: ('A' for Active; 'I' for Inactive)
REMARK    1  A    between atoms: O1_2  and  C2_3
REMARK    2  A    between atoms: C2_3  and  C3_4
REMARK    3  A    between atoms: C4_5  and  C5_6
REMARK    4  A    between atoms: C6_7  and  C7_8
REMARK    5  A    between atoms: C7_8  and  N1_9
REMARK    6  A    between atoms: N1_9  and  C8_11
REMARK    7  A    between atoms: C11_16  and  N3_17
ROOT
HETATM    1  C8  UNL     1     -26.707  30.886 -27.426  1.00  0.00     0.118 A
HETATM    2  C9  UNL     1     -26.992  31.698 -28.500  1.00  0.00     0.066 A
HETATM    3  C10 UNL     1     -27.187  31.186 -29.747  1.00  0.00     0.110 A
HETATM    4  N2  UNL     1     -27.103  29.864 -29.946  1.00  0.00    -0.202 N
ATOM      5  H2  UNL     1     -27.244  29.454 -30.871  1.00  0.00     0.183 HD
HETATM    6  C11 UNL     1     -26.825  29.104 -28.879  1.00  0.00     0.677 A
HETATM    7  N4  UNL     1     -26.626  29.558 -27.642  1.00  0.00    -0.177 N
ATOM      8  H4  UNL     1     -26.417  28.917 -26.877  1.00  0.00     0.185 HD
ENDROOT
BRANCH   1   9
HETATM    9  N1  UNL     1     -26.531  31.413 -26.276  1.00  0.00    -0.365 N
ATOM     10  H1  UNL     1     -25.720  32.005 -26.098  1.00  0.00     0.162 HD
BRANCH   9  11
HETATM   11  C7  UNL     1     -27.494  31.161 -25.229  1.00  0.00     0.216 C
BRANCH  11  12
HETATM   12  C6  UNL     1     -28.854  31.459 -25.740  1.00  0.00    -0.073 C
HETATM   13  C5  UNL     1     -29.951  31.710 -26.171  1.00  0.00    -0.013 C
BRANCH  13  14
HETATM   14  C4  UNL     1     -31.230  32.012 -26.700  1.00  0.00    -0.013 C
HETATM   15  C3  UNL     1     -32.313  32.282 -27.166  1.00  0.00    -0.066 C
BRANCH  15  16
HETATM   16  C2  UNL     1     -33.635  32.634 -27.727  1.00  0.00     0.261 C
BRANCH  16  17
HETATM   17  O1  UNL     1     -34.166  33.731 -27.044  1.00  0.00    -0.384 OA
HETATM   18  C1  UNL     1     -33.603  34.929 -27.477  1.00  0.00     0.202 C
ENDBRANCH  16  17
ENDBRANCH  15  16
ENDBRANCH  13  14
ENDBRANCH  11  12
ENDBRANCH   9  11
ENDBRANCH   1   9
BRANCH   6  19
HETATM   19  N3  UNL     1     -26.750  27.816 -29.114  1.00  0.00    -0.234 N
ATOM     20  H32 UNL     1     -26.289  27.485 -29.962  1.00  0.00     0.174 HD
ATOM     21  H31 UNL     1     -27.176  27.219 -28.405  1.00  0.00     0.174 HD
ENDBRANCH   6  19
TORSDOF 7
ENDMDL