MODEL 3
REMARK VINA RESULT: -5.859563780      1.812      3.406
REMARK  3 active torsions:
REMARK  status: ('A' for Active; 'I' for Inactive)
REMARK    1  A    between atoms: C3_5  and  N2_6
REMARK    2  A    between atoms: C5_12  and  C6_13
REMARK    3  A    between atoms: C10_17  and  O1_18
ROOT
HETATM    1  C1  UNL     1     -26.669  26.639 -29.357  1.00  0.00     0.046 C
HETATM    2  C2  UNL     1     -26.820  27.935 -29.515  1.00  0.00     0.067 A
HETATM    3  N1  UNL     1     -26.650  28.587 -30.683  1.00  0.00    -0.191 N
ATOM      4  H1  UNL     1     -26.387  28.160 -31.571  1.00  0.00     0.184 HD
HETATM    5  C3  UNL     1     -26.883  29.881 -30.482  1.00  0.00     0.676 A
HETATM    6  N3  UNL     1     -27.201  30.037 -29.178  1.00  0.00    -0.190 N
ATOM      7  H3  UNL     1     -27.431  30.927 -28.736  1.00  0.00     0.184 HD
HETATM    8  C4  UNL     1     -27.171  28.853 -28.552  1.00  0.00     0.076 A
HETATM    9  C5  UNL     1     -27.418  28.609 -27.308  1.00  0.00     0.044 C
ENDROOT
BRANCH   9  10
HETATM   10  C6  UNL     1     -27.788  29.614 -26.317  1.00  0.00    -0.031 A
HETATM   11  C7  UNL     1     -26.911  30.092 -25.363  1.00  0.00     0.011 A
HETATM   12  C8  UNL     1     -27.299  31.053 -24.431  1.00  0.00     0.004 A
HETATM   13  C9  UNL     1     -28.587  31.556 -24.439  1.00  0.00     0.037 A
HETATM   14  C10 UNL     1     -29.472  31.086 -25.387  1.00  0.00     0.069 A
HETATM   15  C12 UNL     1     -29.068  30.130 -26.306  1.00  0.00     0.048 A
BRANCH  14  16
HETATM   16  O1  UNL     1     -30.800  31.553 -25.456  1.00  0.00    -0.356 OA
HETATM   17  C11 UNL     1     -31.340  31.946 -26.697  1.00  0.00     0.210 C
ENDBRANCH  14  16
ENDBRANCH   9  10
BRANCH   5  18
HETATM   18  N2  UNL     1     -26.801  30.774 -31.414  1.00  0.00    -0.234 N
ATOM     19  H22 UNL     1     -27.550  31.260 -31.907  1.00  0.00     0.174 HD
ATOM     20  H21 UNL     1     -25.916  31.117 -31.788  1.00  0.00     0.174 HD
ENDBRANCH   5  18
TORSDOF 3
ENDMDL