MODEL 2
REMARK VINA RESULT: -7.357263570      0.896      4.805
REMARK  4 active torsions:
REMARK  status: ('A' for Active; 'I' for Inactive)
REMARK    1  A    between atoms: C4_7  and  N3_8
REMARK    2  A    between atoms: N3_8  and  N4_10
REMARK    3  A    between atoms: N4_10  and  C5_12
REMARK    4  A    between atoms: N5_17  and  N6_18
ROOT
HETATM    1  N4  UNL     1     -28.418  29.699 -25.092  1.00  0.00    -0.282 N
ATOM      2  H4  UNL     1     -28.741  28.992 -24.431  1.00  0.00     0.188 HD
ENDROOT
BRANCH   1   3
HETATM    3  N3  UNL     1     -28.831  31.027 -24.961  1.00  0.00    -0.283 N
ATOM      4  H3  UNL     1     -28.709  31.507 -24.069  1.00  0.00     0.188 HD
BRANCH   3   5
HETATM    5  C4  UNL     1     -29.367  31.657 -25.959  1.00  0.00     0.135 A
HETATM    6  N2  UNL     1     -28.573  32.358 -26.791  1.00  0.00    -0.349 N
HETATM    7  C3  UNL     1     -29.160  33.003 -27.821  1.00  0.00     0.107 A
ATOM      8  H2  UNL     1     -27.564  32.400 -26.647  1.00  0.00     0.167 HD
HETATM    9  C2  UNL     1     -30.518  32.953 -28.024  1.00  0.00     0.107 A
HETATM   10  N1  UNL     1     -31.272  32.244 -27.172  1.00  0.00    -0.366 N
HETATM   11  C1  UNL     1     -32.727  32.157 -27.342  1.00  0.00     0.155 C
HETATM   12  C10 UNL     1     -30.729  31.587 -26.133  1.00  0.00     0.139 A
ENDBRANCH   3   5
ENDBRANCH   1   3
BRANCH   1  13
HETATM   13  C5  UNL     1     -27.551  29.343 -26.145  1.00  0.00     0.140 A
HETATM   14  C6  UNL     1     -28.059  28.843 -27.321  1.00  0.00     0.052 A
HETATM   15  C7  UNL     1     -27.229  28.487 -28.368  1.00  0.00     0.005 A
HETATM   16  C8  UNL     1     -25.876  28.661 -28.168  1.00  0.00     0.019 A
HETATM   17  C9  UNL     1     -25.391  29.166 -26.979  1.00  0.00     0.118 A
HETATM   18  N5  UNL     1     -26.207  29.508 -25.967  1.00  0.00    -0.257 N
BRANCH  18  19
HETATM   19  N6  UNL     1     -25.694  30.017 -24.770  1.00  0.00    -0.337 N
ATOM     20  H62 UNL     1     -25.735  29.472 -23.909  1.00  0.00     0.177 HD
ATOM     21  H61 UNL     1     -25.267  30.942 -24.731  1.00  0.00     0.177 HD
ENDBRANCH  18  19
ENDBRANCH   1  13
TORSDOF 4
ENDMDL