MODEL 2
REMARK VINA RESULT: -8.722430206      0.406      1.753
REMARK  4 active torsions:
REMARK  status: ('A' for Active; 'I' for Inactive)
REMARK    1  A    between atoms: C5_5  and  C6_6
REMARK    2  A    between atoms: C6_6  and  N1_7
REMARK    3  A    between atoms: N1_7  and  C7_9
REMARK    4  A    between atoms: N4_14  and  O1_15
ROOT
HETATM    1  N1  UNL     1     -32.701  32.587 -27.736  1.00  0.00    -0.196 N
ATOM      2  H1  UNL     1     -32.198  32.824 -28.591  1.00  0.00     0.183 HD
ENDROOT
BRANCH   1   3
HETATM    3  C6  UNL     1     -32.089  31.757 -26.760  1.00  0.00     0.117 C
BRANCH   3   4
HETATM    4  C5  UNL     1     -30.757  31.827 -26.580  1.00  0.00    -0.020 A
HETATM    5  C4  UNL     1     -30.172  31.390 -25.418  1.00  0.00     0.013 A
HETATM    6  C3  UNL     1     -28.803  31.471 -25.254  1.00  0.00     0.012 A
HETATM    7  C2  UNL     1     -28.018  31.998 -26.274  1.00  0.00    -0.040 A
HETATM    8  C1  UNL     1     -26.715  32.054 -26.071  1.00  0.00     0.024 C
HETATM    9  C9  UNL     1     -28.624  32.426 -27.421  1.00  0.00    -0.052 A
HETATM   10  C8  UNL     1     -29.974  32.341 -27.569  1.00  0.00     0.020 A
HETATM   11  C10 UNL     1     -27.776  32.996 -28.527  1.00  0.00     0.049 C
ENDBRANCH   3   4
ENDBRANCH   1   3
BRANCH   1  12
HETATM   12  C7  UNL     1     -34.016  33.090 -27.523  1.00  0.00     0.741 A
HETATM   13  N2  UNL     1     -34.957  33.638 -28.296  1.00  0.00    -0.112 N
HETATM   14  N3  UNL     1     -35.778  33.771 -27.278  1.00  0.00    -0.186 N
ATOM     15  H2  UNL     1     -35.016  33.865 -29.288  1.00  0.00     0.207 HD
HETATM   16  N4  UNL     1     -34.851  33.225 -26.485  1.00  0.00     0.033 N
ATOM     17  H3  UNL     1     -36.722  34.137 -27.148  1.00  0.00     0.212 HD
BRANCH  16  18
HETATM   18  O1  UNL     1     -34.784  32.922 -25.139  1.00  0.00    -0.253 OA
ATOM     19  H1  UNL     1     -34.964  32.148 -24.619  1.00  0.00     0.247 HD
ENDBRANCH  16  18
ENDBRANCH   1  12
TORSDOF 4
ENDMDL