MODEL 4
REMARK VINA RESULT: -6.719093915      2.261      6.237
REMARK  3 active torsions:
REMARK  status: ('A' for Active; 'I' for Inactive)
REMARK    1  A    between atoms: C3_4  and  C4_5
REMARK    2  A    between atoms: C4_5  and  N2_6
REMARK    3  A    between atoms: C7_9  and  N3_10
ROOT
HETATM    1  N2  UNL     1     -29.996  32.109 -26.860  1.00  0.00    -0.349 N
HETATM    2  C5  UNL     1     -30.487  32.997 -27.748  1.00  0.00     0.096 A
HETATM    3  C6  UNL     1     -31.862  33.200 -27.901  1.00  0.00     0.065 A
HETATM    4  C7  UNL     1     -32.751  32.470 -27.123  1.00  0.00     0.100 A
HETATM    5  N4  UNL     1     -32.223  31.598 -26.253  1.00  0.00    -0.339 N
ATOM      6  H4  UNL     1     -32.850  31.047 -25.667  1.00  0.00     0.168 HD
HETATM    7  C8  UNL     1     -30.891  31.425 -26.127  1.00  0.00     0.184 A
ENDROOT
BRANCH   1   8
HETATM    8  C4  UNL     1     -28.583  31.884 -26.684  1.00  0.00     0.169 C
BRANCH   8   9
HETATM    9  C3  UNL     1     -28.058  30.713 -27.378  1.00  0.00    -0.024 A
HETATM   10  C2  UNL     1     -27.575  30.742 -28.664  1.00  0.00     0.100 A
HETATM   11  N1  UNL     1     -27.091  29.686 -29.316  1.00  0.00    -0.349 N
HETATM   12  C1  UNL     1     -26.589  29.779 -30.694  1.00  0.00     0.156 C
HETATM   13  C11 UNL     1     -27.077  28.514 -28.662  1.00  0.00     0.117 A
HETATM   14  C10 UNL     1     -27.539  28.402 -27.380  1.00  0.00     0.046 A
HETATM   15  N5  UNL     1     -26.561  27.345 -29.332  1.00  0.00    -0.083 NA
HETATM   16  C9  UNL     1     -28.038  29.507 -26.717  1.00  0.00     0.013 A
ENDBRANCH   8   9
ENDBRANCH   1   8
BRANCH   4  17
HETATM   17  N3  UNL     1     -34.021  32.589 -27.196  1.00  0.00    -0.385 N
ATOM     18  H32 UNL     1     -34.421  33.323 -27.781  1.00  0.00     0.157 HD
ATOM     19  H31 UNL     1     -34.676  31.986 -26.698  1.00  0.00     0.157 HD
ENDBRANCH   4  17
TORSDOF 3
ENDMDL