MODEL 5
REMARK VINA RESULT: -6.268883445      1.911      3.025
REMARK  4 active torsions:
REMARK  status: ('A' for Active; 'I' for Inactive)
REMARK    1  A    between atoms: C5_5  and  C6_6
REMARK    2  A    between atoms: C6_6  and  C7_7
REMARK    3  A    between atoms: C10_16  and  N4_17
REMARK    4  A    between atoms: N4_17  and  C11_19
ROOT
HETATM    1  C1  UNL     1     -26.596  30.081 -29.760  1.00  0.00     0.027 C
HETATM    2  C2  UNL     1     -27.512  30.552 -28.918  1.00  0.00    -0.002 A
HETATM    3  C3  UNL     1     -28.068  31.798 -29.102  1.00  0.00     0.016 A
HETATM    4  C4  UNL     1     -29.020  32.252 -28.204  1.00  0.00     0.030 A
HETATM    5  C5  UNL     1     -29.443  31.507 -27.121  1.00  0.00     0.035 A
HETATM    6  N3  UNL     1     -28.876  30.295 -26.974  1.00  0.00    -0.342 N
ATOM      7  H3  UNL     1     -29.160  29.712 -26.187  1.00  0.00     0.167 HD
HETATM    8  C10 UNL     1     -27.948  29.824 -27.830  1.00  0.00     0.111 A
ENDROOT
BRANCH   5   9
HETATM    9  C6  UNL     1     -30.355  31.971 -26.280  1.00  0.00     0.060 C
BRANCH   9  10
HETATM   10  C7  UNL     1     -31.693  32.294 -26.774  1.00  0.00     0.050 A
HETATM   11  C8  UNL     1     -32.838  31.536 -26.624  1.00  0.00     0.118 A
HETATM   12  N1  UNL     1     -33.868  32.160 -27.210  1.00  0.00    -0.360 N
HETATM   13  C9  UNL     1     -33.377  33.299 -27.726  1.00  0.00     0.180 A
ATOM     14  H1  UNL     1     -34.833  31.834 -27.255  1.00  0.00     0.166 HD
HETATM   15  N2  UNL     1     -32.080  33.381 -27.465  1.00  0.00    -0.351 N
ATOM     16  H2  UNL     1     -31.470  34.148 -27.746  1.00  0.00     0.166 HD
ENDBRANCH   9  10
ENDBRANCH   5   9
BRANCH   8  17
HETATM   17  N4  UNL     1     -27.420  28.657 -27.666  1.00  0.00    -0.376 N
ATOM     18  H4  UNL     1     -27.520  27.987 -28.429  1.00  0.00     0.161 HD
BRANCH  17  19
HETATM   19  C11 UNL     1     -26.709  28.228 -26.507  1.00  0.00     0.116 C
HETATM   20  C12 UNL     1     -25.472  29.094 -26.349  1.00  0.00     0.026 C
ENDBRANCH  17  19
ENDBRANCH   8  17
TORSDOF 4
ENDMDL