MODEL 5
REMARK VINA RESULT: -6.208403763      1.320      1.972
REMARK  4 active torsions:
REMARK  status: ('A' for Active; 'I' for Inactive)
REMARK    1  A    between atoms: N1_5  and  C5_6
REMARK    2  A    between atoms: C5_6  and  C6_7
REMARK    3  A    between atoms: C8_11  and  N3_12
REMARK    4  A    between atoms: N5_17  and  O1_18
ROOT
HETATM    1  C5  UNL     1     -28.525  31.726 -26.677  1.00  0.00     0.209 C
ENDROOT
BRANCH   1   2
HETATM    2  N1  UNL     1     -27.954  31.051 -27.825  1.00  0.00    -0.272 N
HETATM    3  C4  UNL     1     -27.625  31.777 -28.905  1.00  0.00     0.113 A
HETATM    4  C3  UNL     1     -27.079  31.218 -30.035  1.00  0.00     0.027 A
HETATM    5  C2  UNL     1     -26.865  29.855 -30.051  1.00  0.00    -0.034 A
HETATM    6  C1  UNL     1     -26.282  29.222 -31.246  1.00  0.00     0.050 C
HETATM    7  C9  UNL     1     -27.208  29.127 -28.935  1.00  0.00     0.061 A
HETATM    8  N5  UNL     1     -27.741  29.747 -27.861  1.00  0.00    -0.166 N
HETATM    9  C10 UNL     1     -27.003  27.669 -28.895  1.00  0.00     0.073 C
BRANCH   8  10
HETATM   10  O1  UNL     1     -28.072  28.970 -26.758  1.00  0.00    -0.268 OA
ATOM     11  H1  UNL     1     -27.941  29.319 -25.884  1.00  0.00     0.247 HD
ENDBRANCH   8  10
ENDBRANCH   1   2
BRANCH   1  12
HETATM   12  C6  UNL     1     -29.971  32.023 -26.869  1.00  0.00     0.062 A
HETATM   13  C7  UNL     1     -30.506  32.955 -27.757  1.00  0.00     0.133 A
HETATM   14  N2  UNL     1     -31.830  32.953 -27.660  1.00  0.00    -0.200 N
HETATM   15  C8  UNL     1     -32.150  32.025 -26.715  1.00  0.00     0.676 A
ATOM     16  H2  UNL     1     -32.480  33.532 -28.191  1.00  0.00     0.183 HD
HETATM   17  N4  UNL     1     -31.022  31.465 -26.238  1.00  0.00    -0.193 N
ATOM     18  H4  UNL     1     -30.973  30.741 -25.521  1.00  0.00     0.184 HD
BRANCH  15  19
HETATM   19  N3  UNL     1     -33.346  31.746 -26.352  1.00  0.00    -0.234 N
ATOM     20  H32 UNL     1     -33.819  32.090 -25.517  1.00  0.00     0.174 HD
ATOM     21  H31 UNL     1     -33.977  31.133 -26.869  1.00  0.00     0.174 HD
ENDBRANCH  15  19
ENDBRANCH   1  12
TORSDOF 4
ENDMDL