MODEL 1
REMARK VINA RESULT: -6.588368185      0.000      0.000
REMARK  3 active torsions:
REMARK  status: ('A' for Active; 'I' for Inactive)
REMARK    1  A    between atoms: N3_8  and  C6_9
REMARK    2  A    between atoms: C6_9  and  C7_10
REMARK    3  A    between atoms: C7_10  and  N4_11
ROOT
HETATM    1  C1  UNL     1     -29.075  30.970 -23.953  1.00  0.00     0.154 C
HETATM    2  N1  UNL     1     -28.561  30.941 -25.330  1.00  0.00    -0.370 N
HETATM    3  C2  UNL     1     -28.362  32.076 -26.017  1.00  0.00     0.091 A
HETATM    4  C3  UNL     1     -27.883  32.115 -27.310  1.00  0.00     0.033 A
HETATM    5  C4  UNL     1     -27.596  30.899 -27.918  1.00  0.00     0.018 A
HETATM    6  C5  UNL     1     -27.110  30.879 -29.224  1.00  0.00     0.129 A
HETATM    7  N2  UNL     1     -26.904  32.091 -29.938  1.00  0.00    -0.082 NA
HETATM    8  N3  UNL     1     -26.832  29.706 -29.817  1.00  0.00    -0.343 N
HETATM    9  C8  UNL     1     -27.037  28.582 -29.113  1.00  0.00     0.093 A
HETATM   10  C9  UNL     1     -27.513  28.552 -27.830  1.00  0.00     0.031 A
HETATM   11  C10 UNL     1     -27.809  29.749 -27.192  1.00  0.00    -0.006 A
HETATM   12  C11 UNL     1     -28.291  29.751 -25.896  1.00  0.00     0.102 A
ENDROOT
BRANCH   8  13
HETATM   13  C6  UNL     1     -26.325  29.615 -31.165  1.00  0.00     0.156 C
BRANCH  13  14
HETATM   14  C7  UNL     1     -26.409  28.213 -31.719  1.00  0.00     0.249 C
BRANCH  14  15
HETATM   15  N4  UNL     1     -26.343  28.344 -33.180  1.00  0.00    -0.078 N
ATOM     16  H43 UNL     1     -27.213  28.093 -33.649  1.00  0.00     0.274 HD
ATOM     17  H42 UNL     1     -26.304  29.312 -33.499  1.00  0.00     0.274 HD
ATOM     18  H41 UNL     1     -25.545  27.785 -33.481  1.00  0.00     0.274 HD
ENDBRANCH  14  15
ENDBRANCH  13  14
ENDBRANCH   8  13
TORSDOF 3
ENDMDL