MODEL 5
REMARK VINA RESULT: -6.802621128      1.295      1.987
REMARK  2 active torsions:
REMARK  status: ('A' for Active; 'I' for Inactive)
REMARK    1  A    between atoms: C2_2  and  C4_4
REMARK    2  A    between atoms: C4_4  and  C5_5
ROOT
HETATM    1  C5  UNL     1       3.716 -11.475 -24.585  1.00  0.00     0.122 C
HETATM    2  C6  UNL     1       2.669 -10.913 -23.738  1.00  0.00     0.032 C
HETATM    3  C7  UNL     1       2.549  -9.406 -23.756  1.00  0.00     0.011 C
HETATM    4  C8  UNL     1       3.793  -8.668 -24.074  1.00  0.00     0.034 C
HETATM    5  C9  UNL     1       4.988  -9.574 -24.076  1.00  0.00     0.218 C
HETATM    6  O1  UNL     1       4.821 -10.684 -24.835  1.00  0.00    -0.371 OA
HETATM    7  C10 UNL     1       5.517  -9.808 -22.708  1.00  0.00     0.247 C
HETATM    8  O2  UNL     1       6.530 -10.542 -22.602  1.00  0.00    -0.271 OA
HETATM    9  N1  UNL     1       4.868  -9.203 -21.601  1.00  0.00    -0.358 N
ATOM     10  H1  UNL     1       4.922  -9.666 -20.693  1.00  0.00     0.162 HD
HETATM   11  C11 UNL     1       4.135  -7.961 -21.701  1.00  0.00     0.132 C
HETATM   12  C12 UNL     1       3.993  -7.505 -23.138  1.00  0.00    -0.018 C
HETATM   13  C13 UNL     1       2.765  -6.599 -23.210  1.00  0.00     0.011 C
HETATM   14  C14 UNL     1       2.797  -5.728 -24.452  1.00  0.00     0.001 C
HETATM   15  C15 UNL     1       3.270  -4.333 -24.111  1.00  0.00     0.000 C
HETATM   16  C16 UNL     1       4.729  -4.272 -23.818  1.00  0.00     0.000 C
HETATM   17  C17 UNL     1       5.218  -5.363 -22.901  1.00  0.00     0.001 C
HETATM   18  C18 UNL     1       5.200  -6.728 -23.556  1.00  0.00     0.011 C
ENDROOT
BRANCH   1  19
HETATM   19  C4  UNL     1       4.204 -12.805 -24.109  1.00  0.00     0.035 C
BRANCH  19  20
HETATM   20  C2  UNL     1       4.742 -13.764 -25.095  1.00  0.00    -0.020 C
HETATM   21  C1  UNL     1       6.245 -13.931 -24.690  1.00  0.00     0.009 C
HETATM   22  C3  UNL     1       4.214 -15.156 -25.082  1.00  0.00     0.009 C
ENDBRANCH  19  20
ENDBRANCH   1  19
TORSDOF 2
ENDMDL