MODEL 4
REMARK VINA RESULT: -8.207585522      2.445      3.029
REMARK  2 active torsions:
REMARK  status: ('A' for Active; 'I' for Inactive)
REMARK    1  A    between atoms: C1_2  and  C2_3
REMARK       I    between atoms: C1_2  and  N1_11
REMARK    2  A    between atoms: C2_3  and  C3_4
ROOT
HETATM    1  O1  UNL     1       8.502 -10.955 -24.344  1.00  0.00    -0.273 OA
HETATM    2  C1  UNL     1       7.473 -11.381 -23.765  1.00  0.00     0.220 C
HETATM    3  N1  UNL     1       6.657 -10.414 -23.120  1.00  0.00    -0.352 N
HETATM    4  C10 UNL     1       6.943  -8.987 -23.102  1.00  0.00     0.128 C
HETATM    5  C11 UNL     1       5.746  -8.332 -23.751  1.00  0.00     0.061 C
HETATM    6  C12 UNL     1       4.586  -8.443 -22.798  1.00  0.00     0.150 C
HETATM    7  C13 UNL     1       4.838  -9.521 -21.802  1.00  0.00     0.061 C
HETATM    8  C14 UNL     1       5.445 -10.773 -22.405  1.00  0.00     0.128 C
HETATM    9  C15 UNL     1       3.318  -8.670 -23.597  1.00  0.00     0.206 C
HETATM   10  O2  UNL     1       3.338  -7.748 -24.638  1.00  0.00    -0.387 OA
HETATM   11  C16 UNL     1       3.341  -6.441 -24.187  1.00  0.00     0.195 C
HETATM   12  C17 UNL     1       3.456  -6.316 -22.701  1.00  0.00     0.259 C
HETATM   13  N2  UNL     1       4.461  -7.164 -22.129  1.00  0.00    -0.062 N
ATOM     14  H21 UNL     1       5.361  -6.684 -22.094  1.00  0.00     0.278 HD
ATOM     15  H22 UNL     1       4.299  -7.292 -21.130  1.00  0.00     0.278 HD
ENDROOT
BRANCH   2  16
HETATM   16  C2  UNL     1       7.156 -12.782 -23.765  1.00  0.00     0.107 C
BRANCH  16  17
HETATM   17  C3  UNL     1       6.647 -13.447 -24.987  1.00  0.00    -0.006 C
HETATM   18  C4  UNL     1       6.934 -14.863 -25.230  1.00  0.00     0.005 C
HETATM   19  C5  UNL     1       5.832 -15.854 -25.032  1.00  0.00     0.000 C
HETATM   20  C6  UNL     1       4.748 -15.731 -26.081  1.00  0.00     0.000 C
HETATM   21  C7  UNL     1       3.585 -15.011 -25.414  1.00  0.00     0.000 C
HETATM   22  C8  UNL     1       4.183 -13.886 -24.576  1.00  0.00     0.000 C
HETATM   23  C9  UNL     1       5.215 -13.127 -25.329  1.00  0.00     0.005 C
ENDBRANCH  16  17
ENDBRANCH   2  16
TORSDOF 2
ENDMDL