MODEL 1
REMARK VINA RESULT: -9.379446244      0.000      0.000
REMARK  2 active torsions:
REMARK  status: ('A' for Active; 'I' for Inactive)
REMARK    1  A    between atoms: C3_3  and  C4_4
REMARK    2  A    between atoms: C9_13  and  N3_14
ROOT
HETATM    1  C1  UNL     1       3.771 -10.054 -23.562  1.00  0.00     0.006 A
HETATM    2  C2  UNL     1       2.468 -10.458 -23.715  1.00  0.00     0.025 A
HETATM    3  C3  UNL     1       2.154 -11.666 -24.293  1.00  0.00     0.015 A
HETATM    4  N2  UNL     1       3.149 -12.456 -24.711  1.00  0.00    -0.346 N
ATOM      5  H2  UNL     1       2.912 -13.352 -25.139  1.00  0.00     0.167 HD
HETATM    6  C9  UNL     1       4.468 -12.121 -24.592  1.00  0.00     0.104 A
HETATM    7  C19 UNL     1       4.775 -10.924 -24.019  1.00  0.00     0.048 A
ENDROOT
BRANCH   6   8
HETATM    8  N3  UNL     1       5.474 -12.995 -25.062  1.00  0.00    -0.358 N
HETATM    9  C10 UNL     1       5.151 -14.045 -26.047  1.00  0.00     0.087 C
HETATM   10  C11 UNL     1       5.535 -15.355 -25.408  1.00  0.00     0.030 C
HETATM   11  C15 UNL     1       5.993 -13.858 -27.280  1.00  0.00     0.030 C
HETATM   12  C12 UNL     1       7.020 -15.353 -25.114  1.00  0.00    -0.010 C
HETATM   13  C13 UNL     1       7.862 -15.072 -26.320  1.00  0.00     0.009 C
HETATM   14  C18 UNL     1       7.293 -14.277 -24.089  1.00  0.00     0.030 C
HETATM   15  C14 UNL     1       7.443 -13.718 -26.884  1.00  0.00    -0.010 C
HETATM   16  C16 UNL     1       7.685 -12.650 -25.867  1.00  0.00     0.030 C
HETATM   17  C17 UNL     1       6.834 -12.931 -24.629  1.00  0.00     0.087 C
ENDBRANCH   6   8
BRANCH   3  18
HETATM   18  C4  UNL     1       0.713 -12.088 -24.451  1.00  0.00     0.038 C
HETATM   19  C5  UNL     1       0.328 -12.859 -23.238  1.00  0.00     0.030 C
HETATM   20  C6  UNL     1      -1.059 -12.596 -22.733  1.00  0.00     0.114 C
HETATM   21  N1  UNL     1      -2.029 -12.269 -23.708  1.00  0.00    -0.421 N
HETATM   22  C7  UNL     1      -1.594 -11.413 -24.766  1.00  0.00     0.114 C
ATOM     23  H1  UNL     1      -2.984 -12.623 -23.659  1.00  0.00     0.153 HD
HETATM   24  C8  UNL     1      -0.193 -10.883 -24.567  1.00  0.00     0.030 C
ENDBRANCH   3  18
TORSDOF 2
ENDMDL