MODEL 4
REMARK VINA RESULT: -6.347741430      3.751      7.394
REMARK  4 active torsions:
REMARK  status: ('A' for Active; 'I' for Inactive)
REMARK    1  A    between atoms: C2_2  and  C3_3
REMARK    2  A    between atoms: C3_3  and  C4_4
REMARK    3  A    between atoms: C10_11  and  O2_12
REMARK    4  A    between atoms: C19_22  and  O3_23
ROOT
HETATM    1  C4  UNL     1       0.685  -8.397 -26.588  1.00  0.00    -0.071 C
HETATM    2  C5  UNL     1       2.132  -8.148 -26.224  1.00  0.00     0.020 C
HETATM    3  C6  UNL     1       3.055  -9.307 -26.257  1.00  0.00     0.022 C
HETATM    4  C7  UNL     1       3.486  -9.882 -24.951  1.00  0.00     0.057 C
HETATM    5  C8  UNL     1       3.201 -11.301 -24.671  1.00  0.00    -0.018 A
HETATM    6  C9  UNL     1       4.184 -12.265 -24.606  1.00  0.00     0.153 A
HETATM    7  O1  UNL     1       3.615 -13.431 -24.336  1.00  0.00    -0.299 OA
HETATM    8  C10 UNL     1       2.328 -13.301 -24.218  1.00  0.00     0.189 A
HETATM    9  C11 UNL     1       2.031 -11.981 -24.422  1.00  0.00     0.009 A
HETATM   10  C12 UNL     1       0.590 -11.591 -24.342  1.00  0.00     0.050 C
HETATM   11  C13 UNL     1       0.426 -10.443 -25.242  1.00  0.00     0.004 A
HETATM   12  C14 UNL     1      -0.149  -9.217 -25.632  1.00  0.00     0.025 A
HETATM   13  C15 UNL     1       0.517  -9.345 -24.361  1.00  0.00     0.006 A
HETATM   14  C16 UNL     1       1.602  -8.546 -23.930  1.00  0.00     0.031 C
HETATM   15  C17 UNL     1       2.107  -7.480 -24.903  1.00  0.00     0.004 C
HETATM   16  C18 UNL     1       3.444  -7.616 -24.153  1.00  0.00     0.045 C
HETATM   17  C19 UNL     1       2.980  -9.012 -23.798  1.00  0.00     0.073 C
ENDROOT
BRANCH   1  18
HETATM   18  C3  UNL     1       0.199  -7.908 -27.699  1.00  0.00    -0.001 C
BRANCH  18  19
HETATM   19  C2  UNL     1       0.698  -7.373 -28.936  1.00  0.00    -0.031 C
HETATM   20  C1  UNL     1       1.760  -8.021 -29.720  1.00  0.00     0.036 C
ENDBRANCH  18  19
ENDBRANCH   1  18
BRANCH  17  21
HETATM   21  O3  UNL     1       3.409  -9.528 -22.613  1.00  0.00    -0.384 OA
HETATM   22  C20 UNL     1       4.725  -9.348 -22.304  1.00  0.00     0.202 C
ENDBRANCH  17  21
BRANCH   8  23
HETATM   23  O2  UNL     1       1.386 -14.307 -23.935  1.00  0.00    -0.340 OA
ATOM     24  H2  UNL     1       0.466 -14.198 -23.724  1.00  0.00     0.220 HD
ENDBRANCH   8  23
TORSDOF 4
ENDMDL