MODEL 3
REMARK VINA RESULT: -7.102841292      1.492      2.658
REMARK  3 active torsions:
REMARK  status: ('A' for Active; 'I' for Inactive)
REMARK    1  A    between atoms: C2_2  and  C3_4
REMARK    2  A    between atoms: C3_4  and  C4_5
REMARK    3  A    between atoms: C4_5  and  O2_6
ROOT
HETATM    1  C4  UNL     1       7.355 -13.770 -25.401  1.00  0.00     0.072 C
HETATM    2  C5  UNL     1       7.351 -13.737 -23.922  1.00  0.00     0.039 C
HETATM    3  C6  UNL     1       6.521 -12.480 -23.640  1.00  0.00     0.009 C
HETATM    4  C7  UNL     1       5.633 -12.298 -24.870  1.00  0.00     0.001 C
HETATM    5  C8  UNL     1       4.266 -12.051 -24.424  1.00  0.00    -0.003 C
HETATM    6  C9  UNL     1       3.587 -10.810 -24.865  1.00  0.00     0.008 C
HETATM    7  C10 UNL     1       2.117 -11.118 -24.529  1.00  0.00     0.039 C
HETATM    8  C11 UNL     1       2.082 -12.591 -24.148  1.00  0.00     0.067 C
HETATM    9  C12 UNL     1       0.777 -13.247 -24.310  1.00  0.00     0.065 C
HETATM   10  C13 UNL     1       0.696 -12.839 -22.833  1.00  0.00     0.171 C
HETATM   11  O3  UNL     1       2.098 -12.836 -22.782  1.00  0.00    -0.380 OA
HETATM   12  C14 UNL     1       3.254 -13.103 -24.921  1.00  0.00     0.025 C
HETATM   13  C15 UNL     1       3.801 -14.406 -24.509  1.00  0.00     0.009 C
HETATM   14  C16 UNL     1       5.036 -14.698 -25.331  1.00  0.00     0.013 C
HETATM   15  C17 UNL     1       5.856 -13.527 -25.679  1.00  0.00    -0.009 C
HETATM   16  C18 UNL     1       5.815 -13.168 -27.163  1.00  0.00     0.019 C
ENDROOT
BRANCH   1  17
HETATM   17  C3  UNL     1       7.852 -14.989 -26.065  1.00  0.00     0.116 C
BRANCH  17  18
HETATM   18  C2  UNL     1       9.249 -14.821 -26.481  1.00  0.00     0.126 C
HETATM   19  C1  UNL     1      10.251 -15.854 -26.110  1.00  0.00     0.091 C
HETATM   20  O1  UNL     1       9.601 -13.856 -27.121  1.00  0.00    -0.298 OA
ENDBRANCH  17  18
ENDBRANCH   1  17
BRANCH   1  21
HETATM   21  O2  UNL     1       8.070 -12.672 -25.881  1.00  0.00    -0.389 OA
ATOM     22  H2  UNL     1       8.831 -12.986 -26.356  1.00  0.00     0.210 HD
ENDBRANCH   1  21
TORSDOF 3
ENDMDL