MODEL 1
REMARK VINA RESULT: -9.490651259      0.000      0.000
REMARK  2 active torsions:
REMARK  status: ('A' for Active; 'I' for Inactive)
REMARK    1  A    between atoms: C3_3  and  C4_4
REMARK    2  A    between atoms: C4_4  and  N1_5
ROOT
HETATM    1  C1  UNL     1       6.274 -13.501 -27.777  1.00  0.00     0.013 C
HETATM    2  C2  UNL     1       5.937 -13.830 -26.654  1.00  0.00    -0.102 C
HETATM    3  C3  UNL     1       5.514 -14.207 -25.287  1.00  0.00     0.054 C
HETATM    4  C15 UNL     1       4.174 -14.884 -25.211  1.00  0.00     0.028 C
HETATM    5  C16 UNL     1       4.869 -16.132 -25.788  1.00  0.00     0.004 C
HETATM    6  C17 UNL     1       6.102 -15.638 -25.073  1.00  0.00     0.028 C
ENDROOT
BRANCH   3   7
HETATM    7  C4  UNL     1       5.911 -13.274 -24.218  1.00  0.00     0.081 C
BRANCH   7   8
HETATM    8  N1  UNL     1       5.224 -12.073 -24.024  1.00  0.00    -0.386 N
HETATM    9  C5  UNL     1       3.839 -12.138 -24.486  1.00  0.00     0.127 C
HETATM   10  C6  UNL     1       2.840 -11.412 -23.680  1.00  0.00     0.060 C
HETATM   11  C7  UNL     1       3.037  -9.903 -23.748  1.00  0.00    -0.029 A
HETATM   12  C8  UNL     1       4.222  -9.294 -23.454  1.00  0.00    -0.002 A
HETATM   13  C11 UNL     1       2.005  -9.103 -24.120  1.00  0.00     0.023 A
HETATM   14  S1  UNL     1       3.887  -7.646 -23.695  1.00  0.00    -0.074 SA
HETATM   15  C12 UNL     1       5.458  -9.970 -23.034  1.00  0.00     0.051 A
HETATM   16  C9  UNL     1       2.252  -7.758 -24.164  1.00  0.00     0.101 A
HETATM   17  N2  UNL     1       1.142  -7.061 -24.549  1.00  0.00    -0.293 N
HETATM   18  N3  UNL     1       0.183  -7.940 -24.753  1.00  0.00    -0.310 N
ATOM     19  H2  UNL     1       1.070  -6.049 -24.657  1.00  0.00     0.187 HD
HETATM   20  C10 UNL     1       0.644  -9.175 -24.512  1.00  0.00     0.122 A
ATOM     21  H3  UNL     1      -0.766  -7.715 -25.050  1.00  0.00     0.186 HD
HETATM   22  C13 UNL     1       6.734  -9.961 -23.643  1.00  0.00     0.038 A
HETATM   23  C14 UNL     1       5.823 -10.833 -24.295  1.00  0.00     0.093 A
ENDBRANCH   7   8
ENDBRANCH   3   7
TORSDOF 2
ENDMDL