MODEL 2
REMARK VINA RESULT: -6.825054772      2.837      6.653
REMARK  2 active torsions:
REMARK  status: ('A' for Active; 'I' for Inactive)
REMARK    1  A    between atoms: C1_2  and  C2_4
REMARK    2  A    between atoms: N1_9  and  C7_10
ROOT
HETATM    1  C7  UNL     1       5.164 -12.777 -24.887  1.00  0.00     0.085 C
HETATM    2  C8  UNL     1       4.290 -14.002 -24.812  1.00  0.00     0.026 C
HETATM    3  C9  UNL     1       5.029 -15.300 -24.758  1.00  0.00     0.007 C
HETATM    4  C10 UNL     1       5.993 -15.566 -25.836  1.00  0.00    -0.014 C
HETATM    5  C11 UNL     1       5.569 -15.085 -27.184  1.00  0.00     0.005 C
HETATM    6  C12 UNL     1       5.503 -13.603 -27.234  1.00  0.00     0.008 C
HETATM    7  C13 UNL     1       6.121 -12.920 -26.008  1.00  0.00     0.019 C
HETATM    8  C14 UNL     1       7.439 -13.589 -25.634  1.00  0.00    -0.011 C
HETATM    9  C15 UNL     1       8.441 -13.353 -26.753  1.00  0.00     0.038 C
HETATM   10  C16 UNL     1       9.723 -13.252 -25.954  1.00  0.00     0.168 C
HETATM   11  O3  UNL     1       9.362 -12.510 -24.861  1.00  0.00    -0.390 OA
HETATM   12  C17 UNL     1       8.064 -12.838 -24.504  1.00  0.00     0.177 C
HETATM   13  C18 UNL     1       7.343 -15.055 -25.414  1.00  0.00     0.017 C
ENDROOT
BRANCH   1  14
HETATM   14  N1  UNL     1       4.375 -11.606 -24.963  1.00  0.00    -0.394 N
HETATM   15  C2  UNL     1       2.981 -11.725 -24.812  1.00  0.00     0.181 C
HETATM   16  C3  UNL     1       2.343 -10.535 -25.525  1.00  0.00     0.036 C
HETATM   17  C4  UNL     1       2.807  -9.224 -25.007  1.00  0.00     0.004 C
HETATM   18  C5  UNL     1       4.033  -9.286 -24.166  1.00  0.00     0.020 C
HETATM   19  C6  UNL     1       4.952 -10.415 -24.450  1.00  0.00     0.118 C
BRANCH  15  20
HETATM   20  C1  UNL     1       2.502 -11.890 -23.424  1.00  0.00     0.196 C
HETATM   21  O1  UNL     1       3.240 -11.603 -22.457  1.00  0.00    -0.646 OA
HETATM   22  O2  UNL     1       1.236 -12.359 -23.152  1.00  0.00    -0.646 OA
ENDBRANCH  15  20
ENDBRANCH   1  14
TORSDOF 2
ENDMDL