MODEL 3
REMARK VINA RESULT: -8.746362420      0.711      1.731
REMARK  2 active torsions:
REMARK  status: ('A' for Active; 'I' for Inactive)
REMARK    1  A    between atoms: C6_9  and  C7_10
REMARK    2  A    between atoms: N3_13  and  C10_14
ROOT
HETATM    1  C1  UNL     1       5.174  -4.621 -25.002  1.00  0.00     0.151 C
HETATM    2  N1  UNL     1       5.009  -4.861 -23.565  1.00  0.00    -0.370 N
HETATM    3  C2  UNL     1       5.047  -3.781 -22.598  1.00  0.00     0.124 C
HETATM    4  C3  UNL     1       3.844  -3.920 -21.725  1.00  0.00     0.026 C
HETATM    5  C4  UNL     1       3.675  -5.245 -21.073  1.00  0.00     0.063 C
HETATM    6  C5  UNL     1       4.168  -6.375 -21.882  1.00  0.00     0.055 A
HETATM    7  N2  UNL     1       4.121  -7.701 -21.676  1.00  0.00    -0.346 N
ATOM      8  H2  UNL     1       3.703  -8.155 -20.863  1.00  0.00     0.167 HD
HETATM    9  C6  UNL     1       4.715  -8.347 -22.711  1.00  0.00     0.087 A
HETATM   10  N4  UNL     1       5.130  -7.393 -23.563  1.00  0.00    -0.330 N
ATOM     11  H4  UNL     1       5.617  -7.563 -24.444  1.00  0.00     0.168 HD
HETATM   12  C18 UNL     1       4.804  -6.172 -23.073  1.00  0.00     0.127 A
ENDROOT
BRANCH   9  13
HETATM   13  C7  UNL     1       4.886  -9.820 -22.886  1.00  0.00     0.056 C
HETATM   14  C8  UNL     1       6.319 -10.158 -23.254  1.00  0.00     0.032 C
HETATM   15  C9  UNL     1       6.390 -11.286 -24.269  1.00  0.00     0.118 C
HETATM   16  N3  UNL     1       5.400 -12.255 -23.969  1.00  0.00    -0.408 N
HETATM   17  C16 UNL     1       4.049 -11.775 -24.096  1.00  0.00     0.118 C
HETATM   18  C17 UNL     1       4.002 -10.255 -24.056  1.00  0.00     0.032 C
BRANCH  16  19
HETATM   19  C10 UNL     1       5.607 -13.577 -24.449  1.00  0.00     0.079 C
HETATM   20  C11 UNL     1       4.318 -14.258 -24.908  1.00  0.00     0.025 C
HETATM   21  C12 UNL     1       4.704 -15.688 -25.267  1.00  0.00     0.002 C
HETATM   22  C13 UNL     1       5.610 -15.616 -26.476  1.00  0.00     0.000 C
HETATM   23  C14 UNL     1       6.936 -15.019 -25.993  1.00  0.00     0.002 C
HETATM   24  C15 UNL     1       6.691 -13.611 -25.472  1.00  0.00     0.025 C
ENDBRANCH  16  19
ENDBRANCH   9  13
TORSDOF 2
ENDMDL