MODEL 3
REMARK VINA RESULT: -6.234595523      1.829      2.473
REMARK  3 active torsions:
REMARK  status: ('A' for Active; 'I' for Inactive)
REMARK    1  A    between atoms: O1_2  and  C2_3
REMARK    2  A    between atoms: C9_10  and  C14_15
REMARK    3  A    between atoms: C17_18  and  O2_19
ROOT
HETATM    1  C2  UNL     1       2.884 -11.050 -23.762  1.00  0.00     0.042 C
HETATM    2  C3  UNL     1       2.119  -9.984 -23.548  1.00  0.00     0.016 C
HETATM    3  C4  UNL     1       2.737  -8.675 -23.759  1.00  0.00     0.081 C
HETATM    4  C5  UNL     1       1.941  -7.468 -23.531  1.00  0.00     0.171 C
HETATM    5  C6  UNL     1       0.697  -7.797 -24.141  1.00  0.00     0.069 C
HETATM    6  C7  UNL     1       0.969  -7.474 -25.634  1.00  0.00     0.006 C
HETATM    7  C8  UNL     1       2.314  -7.077 -26.061  1.00  0.00     0.006 C
HETATM    8  C9  UNL     1       3.584  -7.375 -25.333  1.00  0.00     0.005 C
HETATM    9  C10 UNL     1       3.490  -8.846 -25.032  1.00  0.00    -0.027 C
HETATM   10  C11 UNL     1       2.916  -9.684 -26.114  1.00  0.00     0.016 C
HETATM   11  C12 UNL     1       4.748  -9.582 -24.668  1.00  0.00     0.017 C
HETATM   12  C13 UNL     1       4.302 -10.956 -24.191  1.00  0.00     0.065 C
HETATM   13  C14 UNL     1       4.111  -6.597 -24.210  1.00  0.00    -0.006 C
HETATM   14  C15 UNL     1       5.625  -6.440 -24.298  1.00  0.00     0.015 C
HETATM   15  C16 UNL     1       5.954  -5.112 -24.899  1.00  0.00     0.033 C
HETATM   16  C17 UNL     1       4.593  -4.483 -25.316  1.00  0.00     0.125 C
HETATM   17  C18 UNL     1       3.808  -5.073 -24.346  1.00  0.00     0.049 C
HETATM   18  C19 UNL     1       2.396  -5.097 -23.969  1.00  0.00     0.179 C
HETATM   19  O3  UNL     1       1.857  -6.228 -23.886  1.00  0.00    -0.354 OA
HETATM   20  C20 UNL     1       3.806  -6.808 -22.777  1.00  0.00     0.182 C
HETATM   21  O4  UNL     1       2.467  -7.066 -22.360  1.00  0.00    -0.354 OA
ENDROOT
BRANCH   1  22
HETATM   22  O1  UNL     1       2.367 -12.316 -23.585  1.00  0.00    -0.361 OA
HETATM   23  C1  UNL     1       1.000 -12.631 -23.543  1.00  0.00     0.209 C
ENDBRANCH   1  22
BRANCH  16  24
HETATM   24  O2  UNL     1       4.599  -4.537 -26.649  1.00  0.00    -0.395 OA
ATOM     25  H2  UNL     1       5.456  -4.208 -26.893  1.00  0.00     0.210 HD
ENDBRANCH  16  24
TORSDOF 3
ENDMDL