MODEL 1
REMARK VINA RESULT: -7.981720040      0.000      0.000
REMARK  2 active torsions:
REMARK  status: ('A' for Active; 'I' for Inactive)
REMARK    1  A    between atoms: C2_2  and  N1_3
REMARK    2  A    between atoms: C5_6  and  O1_7
ROOT
HETATM    1  N1  UNL     1       4.259 -13.761 -25.599  1.00  0.00    -0.406 N
HETATM    2  C3  UNL     1       5.443 -13.582 -26.364  1.00  0.00     0.120 C
HETATM    3  C4  UNL     1       6.050 -12.222 -25.946  1.00  0.00     0.059 C
HETATM    4  C5  UNL     1       5.428 -12.131 -24.573  1.00  0.00     0.083 C
HETATM    5  C6  UNL     1       5.770 -11.020 -23.724  1.00  0.00     0.028 C
HETATM    6  C7  UNL     1       7.234 -11.375 -23.324  1.00  0.00     0.008 C
HETATM    7  C8  UNL     1       7.767 -10.195 -22.652  1.00  0.00     0.001 C
HETATM    8  C9  UNL     1       7.115  -9.072 -23.378  1.00  0.00     0.007 C
HETATM    9  C10 UNL     1       5.869  -9.628 -24.115  1.00  0.00     0.016 C
HETATM   10  C11 UNL     1       4.828  -8.651 -23.792  1.00  0.00     0.102 C
HETATM   11  C12 UNL     1       5.327  -7.220 -24.056  1.00  0.00     0.110 C
HETATM   12  S1  UNL     1       4.084  -6.421 -22.925  1.00  0.00    -0.067 SA
HETATM   13  C13 UNL     1       2.830  -7.621 -23.532  1.00  0.00     0.282 C
HETATM   14  O2  UNL     1       1.628  -7.499 -23.246  1.00  0.00    -0.260 OA
HETATM   15  N2  UNL     1       3.541  -8.593 -24.319  1.00  0.00    -0.337 N
HETATM   16  C14 UNL     1       2.967  -9.325 -25.427  1.00  0.00     0.127 C
HETATM   17  C15 UNL     1       2.070 -10.421 -24.988  1.00  0.00     0.020 C
HETATM   18  C16 UNL     1       2.396 -11.089 -23.695  1.00  0.00     0.004 C
HETATM   19  C17 UNL     1       3.030 -12.471 -23.877  1.00  0.00     0.028 C
HETATM   20  C18 UNL     1       4.035 -12.513 -24.918  1.00  0.00     0.113 C
ENDROOT
BRANCH   1  21
HETATM   21  C2  UNL     1       3.988 -14.971 -25.015  1.00  0.00     0.113 C
HETATM   22  C1  UNL     1       4.748 -16.068 -25.787  1.00  0.00     0.026 C
ENDBRANCH   1  21
BRANCH   4  23
HETATM   23  O1  UNL     1       5.897 -13.323 -23.926  1.00  0.00    -0.387 OA
ATOM     24  H1  UNL     1       5.139 -13.895 -23.956  1.00  0.00     0.210 HD
ENDBRANCH   4  23
TORSDOF 2
ENDMDL