MODEL 2
REMARK VINA RESULT: -8.732257187      1.511      1.785
REMARK  1 active torsions:
REMARK  status: ('A' for Active; 'I' for Inactive)
REMARK    1  A    between atoms: C14_15  and  O1_16
ROOT
HETATM    1  C1  UNL     1       1.021 -12.865 -22.575  1.00  0.00     0.017 C
HETATM    2  C2  UNL     1       1.852 -12.313 -23.769  1.00  0.00    -0.017 C
HETATM    3  C3  UNL     1       1.776 -13.363 -24.790  1.00  0.00     0.011 C
HETATM    4  C4  UNL     1       2.760 -14.474 -24.768  1.00  0.00     0.006 C
HETATM    5  C5  UNL     1       3.850 -14.171 -25.715  1.00  0.00    -0.002 A
HETATM    6  C6  UNL     1       4.925 -13.478 -24.813  1.00  0.00    -0.001 A
HETATM    7  C7  UNL     1       4.763 -12.049 -25.076  1.00  0.00     0.010 C
HETATM    8  C8  UNL     1       4.209 -11.315 -23.862  1.00  0.00    -0.011 C
HETATM    9  C9  UNL     1       4.071  -9.898 -24.213  1.00  0.00     0.046 C
HETATM   10  C10 UNL     1       2.650  -9.316 -24.172  1.00  0.00     0.288 C
HETATM   11  N1  UNL     1       1.827 -10.137 -24.944  1.00  0.00     0.099 N
HETATM   12  C11 UNL     1       0.957  -9.474 -25.871  1.00  0.00     0.280 C
HETATM   13  C12 UNL     1       0.883  -8.011 -25.707  1.00  0.00     0.053 C
HETATM   14  C13 UNL     1       0.383  -7.539 -24.363  1.00  0.00     0.069 C
HETATM   15  C14 UNL     1       1.313  -6.514 -23.733  1.00  0.00     0.261 C
HETATM   16  O2  UNL     1       2.627  -6.949 -23.625  1.00  0.00    -0.321 OA
HETATM   17  C15 UNL     1       2.870  -7.903 -24.529  1.00  0.00     0.225 A
HETATM   18  O3  UNL     1       3.462  -7.821 -25.753  1.00  0.00    -0.340 OA
HETATM   19  C16 UNL     1       2.223  -7.411 -25.833  1.00  0.00     0.196 A
HETATM   20  C17 UNL     1       1.047 -11.117 -24.244  1.00  0.00     0.282 C
HETATM   21  C18 UNL     1       3.125 -11.972 -23.145  1.00  0.00     0.015 C
HETATM   22  C19 UNL     1       5.222 -14.564 -25.717  1.00  0.00    -0.040 A
HETATM   23  C20 UNL     1       6.075 -14.229 -26.926  1.00  0.00     0.015 C
HETATM   24  C21 UNL     1       5.565 -15.925 -25.143  1.00  0.00     0.015 C
ENDROOT
BRANCH  15  25
HETATM   25  O1  UNL     1       0.845  -6.334 -22.414  1.00  0.00    -0.371 OA
ATOM     26  H1  UNL     1       0.995  -5.418 -22.211  1.00  0.00     0.212 HD
ENDBRANCH  15  25
TORSDOF 1
ENDMDL