MODEL 1
REMARK VINA RESULT: -9.176609294      0.000      0.000
REMARK  2 active torsions:
REMARK  status: ('A' for Active; 'I' for Inactive)
REMARK    1  A    between atoms: C9_11  and  C10_12
REMARK    2  A    between atoms: C10_12  and  O3_13
ROOT
HETATM    1  C1  UNL     1       6.810 -11.193 -22.590  1.00  0.00     0.019 C
HETATM    2  C2  UNL     1       6.719 -11.064 -24.082  1.00  0.00    -0.002 C
HETATM    3  C3  UNL     1       7.587 -11.993 -24.834  1.00  0.00     0.020 C
HETATM    4  C4  UNL     1       6.789 -13.083 -25.581  1.00  0.00     0.025 C
HETATM    5  C5  UNL     1       5.869 -13.677 -24.613  1.00  0.00    -0.001 C
HETATM    6  C6  UNL     1       4.849 -12.623 -24.183  1.00  0.00     0.039 C
HETATM    7  C7  UNL     1       5.271 -11.259 -24.545  1.00  0.00     0.141 C
HETATM    8  O1  UNL     1       4.662 -10.222 -23.811  1.00  0.00    -0.315 OA
HETATM    9  C8  UNL     1       5.516  -9.112 -23.997  1.00  0.00     0.266 C
HETATM   10  O2  UNL     1       5.241  -7.895 -23.843  1.00  0.00    -0.265 OA
HETATM   11  C9  UNL     1       6.871  -9.599 -24.426  1.00  0.00     0.119 C
HETATM   12  C11 UNL     1       5.109 -14.876 -24.935  1.00  0.00    -0.003 A
HETATM   13  C12 UNL     1       3.980 -14.642 -25.984  1.00  0.00     0.012 A
HETATM   14  C13 UNL     1       5.145 -15.539 -26.186  1.00  0.00     0.014 A
HETATM   15  C14 UNL     1       6.219 -15.196 -27.174  1.00  0.00     0.173 C
HETATM   16  O4  UNL     1       7.419 -15.247 -26.471  1.00  0.00    -0.379 OA
HETATM   17  C15 UNL     1       7.809 -13.962 -26.203  1.00  0.00     0.065 C
HETATM   18  C16 UNL     1       8.216 -13.329 -27.535  1.00  0.00     0.038 C
HETATM   19  C17 UNL     1       9.706 -13.286 -27.712  1.00  0.00     0.003 C
HETATM   20  C18 UNL     1      10.261 -14.665 -27.443  1.00  0.00     0.000 C
HETATM   21  C19 UNL     1       9.984 -15.093 -26.036  1.00  0.00     0.003 C
HETATM   22  C20 UNL     1       9.095 -14.060 -25.378  1.00  0.00     0.038 C
ENDROOT
BRANCH  11  23
HETATM   23  C10 UNL     1       7.964  -8.920 -23.634  1.00  0.00     0.179 C
BRANCH  23  24
HETATM   24  O3  UNL     1       8.397  -7.749 -24.252  1.00  0.00    -0.400 OA
ATOM     25  H3  UNL     1       8.082  -6.975 -23.800  1.00  0.00     0.209 HD
ENDBRANCH  23  24
ENDBRANCH  11  23
TORSDOF 2
ENDMDL