MODEL 4
REMARK VINA RESULT: -6.719133016      2.085      5.098
REMARK  1 active torsions:
REMARK  status: ('A' for Active; 'I' for Inactive)
REMARK    1  A    between atoms: C4_4  and  C5_5
ROOT
HETATM    1  C5  UNL     1       4.469  -5.682 -22.817  1.00  0.00     0.120 C
HETATM    2  C6  UNL     1       5.743  -5.220 -23.223  1.00  0.00     0.268 C
HETATM    3  O1  UNL     1       6.312  -4.101 -23.229  1.00  0.00    -0.264 OA
HETATM    4  O2  UNL     1       6.446  -6.351 -23.714  1.00  0.00    -0.315 OA
HETATM    5  C7  UNL     1       5.388  -7.246 -24.174  1.00  0.00     0.144 C
HETATM    6  C8  UNL     1       5.974  -8.431 -24.767  1.00  0.00     0.058 C
HETATM    7  C9  UNL     1       5.216  -9.708 -24.681  1.00  0.00     0.083 C
HETATM    8  N1  UNL     1       3.858  -9.709 -24.677  1.00  0.00    -0.403 N
ATOM      9  H1  UNL     1       3.443 -10.503 -25.164  1.00  0.00     0.154 HD
HETATM   10  C10 UNL     1       2.956  -8.862 -24.153  1.00  0.00     0.083 C
HETATM   11  C11 UNL     1       1.598  -9.535 -23.877  1.00  0.00     0.148 C
HETATM   12  C12 UNL     1       1.516 -10.970 -24.270  1.00  0.00     0.042 C
HETATM   13  O3  UNL     1       0.943  -8.720 -24.757  1.00  0.00    -0.376 OA
HETATM   14  C13 UNL     1       2.105  -8.221 -25.273  1.00  0.00     0.148 C
HETATM   15  C14 UNL     1       2.472  -8.689 -26.656  1.00  0.00     0.042 C
HETATM   16  C15 UNL     1       3.211  -7.871 -23.118  1.00  0.00     0.036 A
HETATM   17  C16 UNL     1       4.168  -8.061 -22.050  1.00  0.00     0.006 A
HETATM   18  C17 UNL     1       4.651  -9.420 -21.794  1.00  0.00     0.006 C
HETATM   19  C18 UNL     1       6.016  -9.780 -22.300  1.00  0.00     0.007 C
HETATM   20  C19 UNL     1       5.837 -10.561 -23.562  1.00  0.00     0.004 C
HETATM   21  C20 UNL     1       7.135 -11.191 -24.010  1.00  0.00     0.012 C
HETATM   22  C21 UNL     1       4.510  -7.202 -23.077  1.00  0.00     0.013 A
ENDROOT
BRANCH   1  23
HETATM   23  C4  UNL     1       3.873  -5.370 -21.536  1.00  0.00    -0.009 C
HETATM   24  C2  UNL     1       3.375  -4.306 -20.999  1.00  0.00    -0.090 C
HETATM   25  C1  UNL     1       2.831  -4.391 -19.590  1.00  0.00     0.042 C
HETATM   26  C3  UNL     1       3.295  -2.974 -21.621  1.00  0.00     0.042 C
ENDBRANCH   1  23
TORSDOF 1
ENDMDL