MODEL 1
REMARK VINA RESULT: -7.398180481      0.000      0.000
REMARK  3 active torsions:
REMARK  status: ('A' for Active; 'I' for Inactive)
REMARK    1  A    between atoms: O1_2  and  C2_3
REMARK    2  A    between atoms: C14_16  and  C15_17
REMARK    3  A    between atoms: C18_20  and  O3_21
ROOT
HETATM    1  C2  UNL     1       3.770  -7.263 -24.910  1.00  0.00     0.138 C
HETATM    2  C3  UNL     1       2.445  -7.189 -25.670  1.00  0.00     0.077 C
HETATM    3  C4  UNL     1       1.787  -8.396 -25.127  1.00  0.00     0.122 A
HETATM    4  O2  UNL     1       0.993  -8.662 -24.131  1.00  0.00    -0.359 OA
HETATM    5  C5  UNL     1       1.982  -7.968 -23.651  1.00  0.00     0.105 A
HETATM    6  C6  UNL     1       1.535  -6.568 -23.269  1.00  0.00     0.050 C
HETATM    7  C7  UNL     1       3.463  -8.084 -23.639  1.00  0.00     0.050 C
HETATM    8  C8  UNL     1       4.088  -7.317 -22.503  1.00  0.00     0.024 C
HETATM    9  C9  UNL     1       3.892  -9.487 -23.755  1.00  0.00     0.100 C
HETATM   10  C10 UNL     1       3.026 -10.439 -22.983  1.00  0.00     0.046 C
HETATM   11  C11 UNL     1       2.572 -11.520 -23.941  1.00  0.00    -0.009 C
HETATM   12  C12 UNL     1       3.612 -12.496 -24.260  1.00  0.00     0.005 C
HETATM   13  C13 UNL     1       4.996 -12.062 -24.504  1.00  0.00     0.008 C
HETATM   14  C14 UNL     1       5.651 -11.235 -23.470  1.00  0.00     0.021 C
HETATM   15  C18 UNL     1       5.315  -9.795 -23.375  1.00  0.00     0.158 C
HETATM   16  C19 UNL     1       1.852 -10.926 -25.151  1.00  0.00     0.039 C
HETATM   17  C20 UNL     1       2.544  -9.630 -25.522  1.00  0.00     0.161 C
HETATM   18  O4  UNL     1       3.837  -9.726 -25.151  1.00  0.00    -0.368 OA
ENDROOT
BRANCH  14  19
HETATM   19  C15 UNL     1       7.170 -11.418 -23.661  1.00  0.00    -0.016 C
HETATM   20  C16 UNL     1       7.464 -12.503 -24.662  1.00  0.00     0.010 C
HETATM   21  C17 UNL     1       7.837 -10.131 -24.026  1.00  0.00     0.010 C
ENDBRANCH  14  19
BRANCH  15  22
HETATM   22  O3  UNL     1       5.593  -9.445 -22.030  1.00  0.00    -0.392 OA
ATOM     23  H3  UNL     1       6.524  -9.465 -21.842  1.00  0.00     0.210 HD
ENDBRANCH  15  22
BRANCH   1  24
HETATM   24  O1  UNL     1       4.341  -6.056 -24.656  1.00  0.00    -0.390 OA
HETATM   25  C1  UNL     1       4.089  -5.118 -25.632  1.00  0.00     0.202 C
ENDBRANCH   1  24
TORSDOF 3
ENDMDL