MODEL 2
REMARK VINA RESULT: -8.144430792      2.496      4.442
REMARK  2 active torsions:
REMARK  status: ('A' for Active; 'I' for Inactive)
REMARK    1  A    between atoms: C7_8  and  C8_9
REMARK    2  A    between atoms: C8_9  and  O2_12
ROOT
HETATM    1  C1  UNL     1       4.754  -6.299 -24.411  1.00  0.00     0.017 C
HETATM    2  C2  UNL     1       4.828  -7.523 -23.963  1.00  0.00    -0.057 C
HETATM    3  C3  UNL     1       5.919  -8.409 -24.400  1.00  0.00     0.044 C
HETATM    4  C4  UNL     1       5.666  -9.847 -24.345  1.00  0.00     0.032 C
HETATM    5  C5  UNL     1       4.593 -10.332 -25.332  1.00  0.00     0.029 C
HETATM    6  C6  UNL     1       4.365 -11.726 -24.860  1.00  0.00     0.134 C
HETATM    7  O1  UNL     1       4.908 -12.694 -25.676  1.00  0.00    -0.377 OA
HETATM    8  C7  UNL     1       6.225 -12.877 -25.342  1.00  0.00     0.156 C
HETATM    9  C11 UNL     1       6.387 -12.521 -23.878  1.00  0.00     0.045 C
HETATM   10  C12 UNL     1       5.125 -11.906 -23.526  1.00  0.00     0.053 C
HETATM   11  C13 UNL     1       5.098 -10.455 -23.121  1.00  0.00     0.074 C
HETATM   12  C14 UNL     1       5.663 -10.066 -21.844  1.00  0.00     0.065 C
HETATM   13  C15 UNL     1       4.712  -9.109 -21.136  1.00  0.00     0.171 C
HETATM   14  O3  UNL     1       4.323  -8.025 -21.791  1.00  0.00    -0.378 OA
HETATM   15  C16 UNL     1       3.773  -7.999 -22.996  1.00  0.00     0.184 C
HETATM   16  C17 UNL     1       3.203  -9.209 -23.604  1.00  0.00     0.096 C
HETATM   17  C18 UNL     1       1.750  -9.261 -23.908  1.00  0.00     0.042 C
HETATM   18  C19 UNL     1       2.083  -9.810 -25.301  1.00  0.00     0.011 C
HETATM   19  C20 UNL     1       3.466  -9.361 -25.110  1.00  0.00     0.030 C
HETATM   20  O4  UNL     1       3.682 -10.319 -23.020  1.00  0.00    -0.365 OA
ENDROOT
BRANCH   8  21
HETATM   21  C8  UNL     1       6.701 -14.301 -25.624  1.00  0.00     0.076 C
HETATM   22  C9  UNL     1       7.054 -14.517 -27.054  1.00  0.00     0.048 C
HETATM   23  C10 UNL     1       5.527 -15.204 -25.221  1.00  0.00     0.048 C
BRANCH  21  24
HETATM   24  O2  UNL     1       7.724 -14.579 -24.735  1.00  0.00    -0.388 OA
ATOM     25  H2  UNL     1       8.114 -15.404 -24.998  1.00  0.00     0.210 HD
ENDBRANCH  21  24
ENDBRANCH   8  21
TORSDOF 2
ENDMDL