MODEL 2
REMARK VINA RESULT: -7.826266992      0.756      1.077
REMARK  2 active torsions:
REMARK  status: ('A' for Active; 'I' for Inactive)
REMARK    1  A    between atoms: C2_2  and  C4_4
REMARK    2  A    between atoms: C12_12  and  O1_13
ROOT
HETATM    1  C4  UNL     1       2.752 -10.689 -23.888  1.00  0.00     0.128 C
HETATM    2  C5  UNL     1       2.627  -9.914 -25.149  1.00  0.00     0.041 C
HETATM    3  C6  UNL     1       2.857  -8.459 -25.116  1.00  0.00     0.032 C
HETATM    4  C7  UNL     1       4.159  -8.222 -24.334  1.00  0.00     0.077 C
HETATM    5  C8  UNL     1       4.614  -6.891 -24.778  1.00  0.00     0.039 C
HETATM    6  C9  UNL     1       3.581  -5.979 -25.336  1.00  0.00     0.009 C
HETATM    7  C10 UNL     1       2.171  -6.206 -24.958  1.00  0.00     0.002 A
HETATM    8  C11 UNL     1       1.877  -6.682 -23.505  1.00  0.00     0.028 A
HETATM    9  C12 UNL     1       2.903  -6.266 -22.580  1.00  0.00     0.124 C
HETATM   10  C13 UNL     1       3.961  -7.240 -22.118  1.00  0.00     0.044 C
HETATM   11  C14 UNL     1       3.750  -8.460 -22.945  1.00  0.00     0.079 C
HETATM   12  C15 UNL     1       4.363  -9.738 -22.462  1.00  0.00     0.271 C
HETATM   13  O2  UNL     1       3.968 -10.749 -23.296  1.00  0.00    -0.355 OA
HETATM   14  O3  UNL     1       5.732  -9.613 -22.523  1.00  0.00    -0.326 OA
HETATM   15  C16 UNL     1       6.099  -9.428 -23.853  1.00  0.00     0.161 C
HETATM   16  C17 UNL     1       7.199  -8.408 -23.871  1.00  0.00     0.078 C
HETATM   17  C18 UNL     1       6.739 -10.760 -24.285  1.00  0.00     0.078 C
HETATM   18  O4  UNL     1       5.071  -9.205 -24.711  1.00  0.00    -0.344 OA
HETATM   19  C19 UNL     1       1.828  -7.608 -24.524  1.00  0.00    -0.027 A
HETATM   20  C20 UNL     1       0.441  -8.120 -24.987  1.00  0.00     0.016 C
ENDROOT
BRANCH   1  21
HETATM   21  C2  UNL     1       2.423 -12.146 -24.301  1.00  0.00     0.006 C
HETATM   22  C1  UNL     1       1.377 -12.640 -23.357  1.00  0.00     0.012 C
HETATM   23  C3  UNL     1       3.635 -12.989 -24.407  1.00  0.00     0.012 C
ENDBRANCH   1  21
BRANCH   9  24
HETATM   24  O1  UNL     1       2.365  -5.759 -21.355  1.00  0.00    -0.395 OA
ATOM     25  H1  UNL     1       2.392  -4.810 -21.311  1.00  0.00     0.210 HD
ENDBRANCH   9  24
TORSDOF 2
ENDMDL