MODEL 4
REMARK VINA RESULT: -6.507318342      2.254      3.912
REMARK  1 active torsions:
REMARK  status: ('A' for Active; 'I' for Inactive)
REMARK    1  A    between atoms: O1_1  and  C1_3
ROOT
HETATM    1  C1  UNL     1       2.954  -6.550 -23.539  1.00  0.00     0.066 C
HETATM    2  C2  UNL     1       4.188  -6.965 -22.866  1.00  0.00     0.038 C
HETATM    3  C3  UNL     1       4.598  -8.384 -22.856  1.00  0.00     0.003 C
HETATM    4  C4  UNL     1       5.171  -8.924 -24.130  1.00  0.00     0.003 C
HETATM    5  C5  UNL     1       4.158  -9.434 -25.119  1.00  0.00     0.047 C
HETATM    6  C6  UNL     1       3.150  -8.394 -25.321  1.00  0.00     0.223 A
HETATM    7  C7  UNL     1       3.708  -7.187 -25.756  1.00  0.00     0.269 A
HETATM    8  C8  UNL     1       3.306  -6.005 -24.919  1.00  0.00     0.077 C
HETATM    9  N1  UNL     1       2.898  -7.737 -26.629  1.00  0.00     0.111 N
HETATM   10  C9  UNL     1       2.441  -8.692 -27.440  1.00  0.00     0.275 C
HETATM   11  C10 UNL     1       0.993  -8.973 -27.009  1.00  0.00     0.044 C
HETATM   12  C11 UNL     1       0.691  -8.453 -25.626  1.00  0.00     0.007 C
HETATM   13  C12 UNL     1       0.001  -7.144 -25.761  1.00  0.00     0.013 C
HETATM   14  C13 UNL     1      -0.222  -6.392 -24.509  1.00  0.00     0.001 C
HETATM   15  C14 UNL     1       0.460  -6.895 -23.299  1.00  0.00     0.011 C
HETATM   16  C15 UNL     1       1.814  -7.526 -23.544  1.00  0.00     0.058 C
HETATM   17  C16 UNL     1       1.829  -8.513 -24.666  1.00  0.00     0.117 C
HETATM   18  O2  UNL     1       1.755  -9.828 -24.138  1.00  0.00    -0.346 OA
HETATM   19  C17 UNL     1       0.695 -10.489 -24.572  1.00  0.00     0.269 C
HETATM   20  O3  UNL     1       0.020 -11.317 -23.728  1.00  0.00    -0.357 OA
HETATM   21  C18 UNL     1      -1.309 -11.464 -24.071  1.00  0.00     0.198 C
HETATM   22  C19 UNL     1      -1.621 -11.291 -25.510  1.00  0.00    -0.004 C
HETATM   23  C20 UNL     1      -1.079 -10.189 -26.082  1.00  0.00    -0.018 C
HETATM   24  C21 UNL     1      -0.282  -9.432 -25.047  1.00  0.00     0.075 C
ENDROOT
BRANCH   1  25
HETATM   25  O1  UNL     1       2.503  -5.385 -22.857  1.00  0.00    -0.389 OA
ATOM     26  H1  UNL     1       2.382  -5.638 -21.950  1.00  0.00     0.210 HD
ENDBRANCH   1  25
TORSDOF 1
ENDMDL