MODEL 2
REMARK VINA RESULT: -9.763733095      3.070      4.862
REMARK  3 active torsions:
REMARK  status: ('A' for Active; 'I' for Inactive)
REMARK    1  A    between atoms: C1_6  and  C2_7
REMARK    2  A    between atoms: N3_15  and  C8_17
REMARK    3  A    between atoms: C13_22  and  C14_23
ROOT
HETATM    1  O1  UNL     1       5.083  -9.388 -21.623  1.00  0.00    -0.200 OA
HETATM    2  S1  UNL     1       5.524  -9.370 -23.070  1.00  0.00     0.265 S
HETATM    3  O2  UNL     1       6.990  -9.059 -23.130  1.00  0.00    -0.200 OA
HETATM    4  N1  UNL     1       5.272 -10.966 -23.680  1.00  0.00    -0.275 N
ATOM      5  H1  UNL     1       6.101 -11.559 -23.649  1.00  0.00     0.179 HD
HETATM    6  C1  UNL     1       4.229 -11.548 -24.168  1.00  0.00     0.113 C
HETATM    7  C7  UNL     1       2.890 -10.961 -24.342  1.00  0.00     0.136 C
HETATM    8  N3  UNL     1       1.940 -11.829 -24.250  1.00  0.00    -0.340 N
ATOM      9  H3  UNL     1       2.183 -12.804 -24.072  1.00  0.00     0.167 HD
HETATM   10  N4  UNL     1       2.593  -9.611 -24.586  1.00  0.00    -0.339 N
ATOM     11  H4  UNL     1       1.610  -9.457 -24.809  1.00  0.00     0.167 HD
HETATM   12  C16 UNL     1       3.353  -8.410 -24.592  1.00  0.00     0.057 A
HETATM   13  C17 UNL     1       2.746  -7.376 -25.285  1.00  0.00     0.031 A
HETATM   14  C18 UNL     1       3.338  -6.137 -25.394  1.00  0.00     0.002 A
HETATM   15  C19 UNL     1       4.564  -5.946 -24.793  1.00  0.00     0.002 A
HETATM   16  C20 UNL     1       5.165  -6.978 -24.103  1.00  0.00     0.027 A
HETATM   17  C21 UNL     1       4.577  -8.225 -23.989  1.00  0.00     0.106 A
ENDROOT
BRANCH   6  18
HETATM   18  C2  UNL     1       4.402 -12.932 -24.588  1.00  0.00     0.063 A
HETATM   19  C3  UNL     1       5.684 -13.404 -24.756  1.00  0.00     0.032 A
HETATM   20  C4  UNL     1       5.866 -14.710 -25.153  1.00  0.00     0.004 A
HETATM   21  C5  UNL     1       4.787 -15.509 -25.370  1.00  0.00     0.017 A
HETATM   22  C6  UNL     1       3.507 -15.028 -25.199  1.00  0.00     0.088 A
HETATM   23  N2  UNL     1       3.360 -13.752 -24.812  1.00  0.00    -0.364 N
ATOM     24  H2  UNL     1       2.416 -13.388 -24.683  1.00  0.00     0.165 HD
ENDBRANCH   6  18
BRANCH   8  25
HETATM   25  C8  UNL     1       0.566 -11.483 -24.387  1.00  0.00     0.044 A
HETATM   26  C9  UNL     1       0.102 -10.718 -25.407  1.00  0.00     0.030 A
HETATM   27  C10 UNL     1      -1.228 -10.408 -25.503  1.00  0.00     0.002 A
HETATM   28  C11 UNL     1      -2.142 -10.851 -24.580  1.00  0.00     0.001 A
HETATM   29  C12 UNL     1      -1.656 -11.635 -23.536  1.00  0.00     0.014 A
HETATM   30  C13 UNL     1      -0.331 -11.961 -23.416  1.00  0.00    -0.009 A
BRANCH  30  31
HETATM   31  C14 UNL     1       0.151 -12.776 -22.326  1.00  0.00     0.025 C
HETATM   32  C15 UNL     1      -0.447 -13.327 -21.332  1.00  0.00     0.085 C
HETATM   33 CL1  UNL     1      -2.101 -13.345 -20.851  1.00  0.00    -0.097 Cl
ENDBRANCH  30  31
ENDBRANCH   8  25
TORSDOF 3
ENDMDL