MODEL 3
REMARK VINA RESULT: -9.170264148      4.318      9.297
REMARK  4 active torsions:
REMARK  status: ('A' for Active; 'I' for Inactive)
REMARK    1  A    between atoms: C2_2  and  C12_20
REMARK    2  A    between atoms: N1_3  and  N2_5
REMARK    3  A    between atoms: N2_5  and  C3_7
REMARK    4  A    between atoms: C4_10  and  C5_11
ROOT
HETATM    1  C1  UNL     1       5.469  -9.352 -24.170  1.00  0.00     0.070 C
HETATM    2  C2  UNL     1       4.630 -10.563 -24.205  1.00  0.00     0.032 C
HETATM    3  N1  UNL     1       5.179 -11.714 -24.218  1.00  0.00    -0.302 N
ATOM      4  H1  UNL     1       4.607 -12.558 -24.241  1.00  0.00     0.186 HD
ENDROOT
BRANCH   3   5
HETATM    5  N2  UNL     1       6.562 -11.801 -24.199  1.00  0.00    -0.279 N
ATOM      6  H2  UNL     1       7.128 -11.146 -23.658  1.00  0.00     0.189 HD
BRANCH   5   7
HETATM    7  C3  UNL     1       7.118 -12.762 -24.908  1.00  0.00     0.163 A
HETATM    8  N3  UNL     1       8.389 -12.855 -25.305  1.00  0.00    -0.334 N
HETATM    9  C4  UNL     1       8.755 -13.893 -26.008  1.00  0.00     0.051 A
ATOM     10  H3  UNL     1       9.062 -12.127 -25.065  1.00  0.00     0.168 HD
HETATM   11  C11 UNL     1       7.790 -14.830 -26.291  1.00  0.00     0.083 A
HETATM   12  S1  UNL     1       6.408 -14.177 -25.537  1.00  0.00    -0.062 SA
BRANCH   9  13
HETATM   13  C5  UNL     1      10.143 -14.098 -26.502  1.00  0.00    -0.009 A
HETATM   14  C6  UNL     1      10.429 -14.038 -27.836  1.00  0.00     0.015 A
HETATM   15  C7  UNL     1      11.709 -14.227 -28.288  1.00  0.00     0.020 A
HETATM   16  C8  UNL     1      12.741 -14.479 -27.447  1.00  0.00     0.011 A
HETATM   17 BR1  UNL     1      14.521 -14.737 -28.136  1.00  0.00    -0.051 Br
HETATM   18  C9  UNL     1      12.491 -14.547 -26.096  1.00  0.00     0.020 A
HETATM   19  C10 UNL     1      11.191 -14.354 -25.647  1.00  0.00     0.015 A
ENDBRANCH   9  13
ENDBRANCH   5   7
ENDBRANCH   3   5
BRANCH   2  20
HETATM   20  C12 UNL     1       3.180 -10.492 -24.225  1.00  0.00    -0.012 A
HETATM   21  C13 UNL     1       2.534  -9.365 -24.678  1.00  0.00     0.016 A
HETATM   22  C14 UNL     1       1.154  -9.291 -24.701  1.00  0.00     0.031 A
HETATM   23  C15 UNL     1       0.361 -10.335 -24.272  1.00  0.00     0.042 A
HETATM   24  N4  UNL     1      -0.989 -10.234 -24.306  1.00  0.00    -0.365 N
HETATM   25  C19 UNL     1       0.995 -11.471 -23.815  1.00  0.00    -0.009 A
HETATM   26  C16 UNL     1      -1.777 -11.245 -23.890  1.00  0.00     0.088 A
ATOM     27  H4  UNL     1      -1.417  -9.376 -24.653  1.00  0.00     0.165 HD
HETATM   28  C17 UNL     1      -1.195 -12.416 -23.418  1.00  0.00     0.018 A
HETATM   29  C18 UNL     1       0.188 -12.505 -23.390  1.00  0.00     0.015 A
HETATM   30  C20 UNL     1       2.372 -11.529 -23.800  1.00  0.00     0.027 A
ENDBRANCH   2  20
TORSDOF 4
ENDMDL