MODEL 5
REMARK VINA RESULT: -9.310783190      3.769      8.188
REMARK  7 active torsions:
REMARK  status: ('A' for Active; 'I' for Inactive)
REMARK    1  A    between atoms: C1_2  and  C2_3
REMARK    2  A    between atoms: C2_3  and  C3_4
REMARK    3  A    between atoms: C3_4  and  C4_5
REMARK    4  A    between atoms: C7_8  and  N1_9
REMARK    5  A    between atoms: N1_9  and  C8_11
REMARK    6  A    between atoms: N4_24  and  C17_25
REMARK    7  A    between atoms: C17_25  and  C18_26
ROOT
HETATM    1  C8  UNL     1       3.954 -10.340 -23.207  1.00  0.00     0.136 A
HETATM    2  N2  UNL     1       5.087 -10.101 -22.480  1.00  0.00    -0.337 N
ATOM      3  H2  UNL     1       5.746 -10.860 -22.305  1.00  0.00     0.168 HD
HETATM    4  C9  UNL     1       5.338  -8.886 -21.998  1.00  0.00     0.182 A
HETATM    5  N3  UNL     1       4.462  -7.904 -22.239  1.00  0.00    -0.350 N
ATOM      6  H3  UNL     1       4.654  -6.973 -21.870  1.00  0.00     0.166 HD
HETATM    7  C10 UNL     1       3.335  -8.102 -22.951  1.00  0.00     0.076 A
HETATM    8  C11 UNL     1       2.305  -7.279 -23.348  1.00  0.00     0.020 A
HETATM    9  C12 UNL     1       2.094  -5.933 -23.135  1.00  0.00     0.016 A
HETATM   10  C13 UNL     1       0.990  -5.280 -23.646  1.00  0.00     0.001 A
HETATM   11  C14 UNL     1       0.105  -6.036 -24.383  1.00  0.00     0.002 A
HETATM   12  C15 UNL     1       0.330  -7.376 -24.585  1.00  0.00     0.030 A
HETATM   13  C16 UNL     1       1.431  -8.044 -24.079  1.00  0.00     0.048 A
HETATM   14  N4  UNL     1       1.884  -9.345 -24.155  1.00  0.00    -0.337 N
HETATM   15  C24 UNL     1       3.027  -9.360 -23.477  1.00  0.00     0.107 A
ENDROOT
BRANCH   1  16
HETATM   16  N1  UNL     1       3.755 -11.515 -23.692  1.00  0.00    -0.341 N
ATOM     17  H1  UNL     1       2.818 -11.920 -23.699  1.00  0.00     0.167 HD
BRANCH  16  18
HETATM   18  C7  UNL     1       4.858 -12.239 -24.218  1.00  0.00     0.033 A
HETATM   19  C6  UNL     1       6.108 -11.669 -24.365  1.00  0.00     0.031 A
HETATM   20  C5  UNL     1       7.151 -12.411 -24.881  1.00  0.00     0.023 A
HETATM   21  C4  UNL     1       7.005 -13.726 -25.266  1.00  0.00     0.018 A
HETATM   22  C26 UNL     1       5.762 -14.308 -25.124  1.00  0.00     0.023 A
HETATM   23  C25 UNL     1       4.724 -13.562 -24.609  1.00  0.00     0.031 A
BRANCH  21  24
HETATM   24  C3  UNL     1       8.127 -14.447 -25.796  1.00  0.00    -0.065 C
BRANCH  24  25
HETATM   25  C2  UNL     1       9.086 -15.047 -26.228  1.00  0.00    -0.070 C
BRANCH  25  26
HETATM   26  C1  UNL     1      10.253 -15.765 -26.725  1.00  0.00     0.316 C
HETATM   27  F1  UNL     1      11.434 -15.129 -26.376  1.00  0.00    -0.242 F
ENDBRANCH  25  26
ENDBRANCH  24  25
ENDBRANCH  21  24
ENDBRANCH  16  18
ENDBRANCH   1  16
BRANCH  14  28
HETATM   28  C17 UNL     1       1.164 -10.379 -24.853  1.00  0.00     0.168 C
BRANCH  28  29
HETATM   29  C18 UNL     1       0.149 -11.138 -24.128  1.00  0.00    -0.040 A
HETATM   30  C19 UNL     1      -1.189 -10.853 -24.347  1.00  0.00     0.009 A
HETATM   31  C20 UNL     1      -2.231 -11.480 -23.743  1.00  0.00     0.001 A
HETATM   32  C21 UNL     1      -1.947 -12.490 -22.831  1.00  0.00     0.000 A
HETATM   33  C22 UNL     1      -0.650 -12.824 -22.565  1.00  0.00     0.001 A
HETATM   34  C23 UNL     1       0.379 -12.147 -23.214  1.00  0.00     0.009 A
ENDBRANCH  28  29
ENDBRANCH  14  28
TORSDOF 7
ENDMDL