MODEL 3
REMARK VINA RESULT: -10.037109336      0.986      1.402
REMARK  4 active torsions:
REMARK  status: ('A' for Active; 'I' for Inactive)
REMARK    1  A    between atoms: O1_2  and  C2_3
REMARK    2  A    between atoms: C7_8  and  N1_9
REMARK    3  A    between atoms: N1_9  and  C8_11
REMARK    4  A    between atoms: C14_20  and  C15_21
ROOT
HETATM    1  C2  UNL     1       6.072 -13.670 -25.603  1.00  0.00     0.095 A
HETATM    2  C3  UNL     1       6.015 -15.009 -25.939  1.00  0.00     0.039 A
HETATM    3  C4  UNL     1       4.867 -15.747 -25.723  1.00  0.00     0.004 A
HETATM    4  C5  UNL     1       3.786 -15.099 -25.161  1.00  0.00     0.018 A
HETATM    5  C6  UNL     1       3.833 -13.759 -24.821  1.00  0.00     0.038 A
HETATM    6  C7  UNL     1       2.758 -13.102 -24.258  1.00  0.00     0.120 A
HETATM    7  N2  UNL     1       2.897 -11.811 -23.963  1.00  0.00    -0.327 N
ATOM      8  H2  UNL     1       2.097 -11.333 -23.548  1.00  0.00     0.169 HD
HETATM    9  C14 UNL     1       4.034 -11.075 -24.177  1.00  0.00     0.117 A
HETATM   10  N4  UNL     1       5.077 -11.712 -24.721  1.00  0.00    -0.339 N
ATOM     11  H4  UNL     1       5.944 -11.205 -24.899  1.00  0.00     0.167 HD
HETATM   12  C20 UNL     1       4.989 -13.016 -25.038  1.00  0.00     0.081 A
ENDROOT
BRANCH   6  13
HETATM   13  N1  UNL     1       1.671 -13.764 -24.043  1.00  0.00    -0.342 N
ATOM     14  H1  UNL     1       1.667 -14.773 -24.194  1.00  0.00     0.167 HD
BRANCH  13  15
HETATM   15  C8  UNL     1       0.480 -13.131 -23.603  1.00  0.00     0.034 A
HETATM   16  C9  UNL     1       0.117 -13.278 -22.283  1.00  0.00     0.029 A
HETATM   17  C10 UNL     1      -1.050 -12.653 -21.873  1.00  0.00     0.004 A
HETATM   18  C11 UNL     1      -1.799 -11.920 -22.768  1.00  0.00     0.019 A
HETATM   19  C12 UNL     1      -1.443 -11.770 -24.083  1.00  0.00     0.013 A
HETATM   20 BR1  UNL     1      -2.494 -10.750 -25.315  1.00  0.00    -0.051 Br
HETATM   21  C13 UNL     1      -0.271 -12.399 -24.492  1.00  0.00     0.048 A
ENDBRANCH  13  15
ENDBRANCH   6  13
BRANCH   9  22
HETATM   22  C15 UNL     1       4.061  -9.672 -23.813  1.00  0.00     0.011 A
HETATM   23  C16 UNL     1       5.256  -9.001 -23.891  1.00  0.00     0.032 A
HETATM   24  C17 UNL     1       5.313  -7.643 -23.546  1.00  0.00     0.088 A
HETATM   25  N3  UNL     1       4.190  -7.042 -23.148  1.00  0.00    -0.375 N
HETATM   26  C18 UNL     1       3.018  -7.666 -23.062  1.00  0.00     0.088 A
ATOM     27  H3  UNL     1       4.233  -6.054 -22.897  1.00  0.00     0.164 HD
HETATM   28  C19 UNL     1       2.958  -9.011 -23.402  1.00  0.00     0.032 A
ENDBRANCH   9  22
BRANCH   1  29
HETATM   29  O1  UNL     1       7.212 -12.921 -25.813  1.00  0.00    -0.354 OA
HETATM   30  C1  UNL     1       8.358 -13.448 -26.476  1.00  0.00     0.210 C
ENDBRANCH   1  29
TORSDOF 4
ENDMDL