MODEL 3
REMARK VINA RESULT: -9.054776023      2.446      3.868
REMARK  6 active torsions:
REMARK  status: ('A' for Active; 'I' for Inactive)
REMARK    1  A    between atoms: O1_1  and  C1_3
REMARK    2  A    between atoms: C1_3  and  C2_4
REMARK    3  A    between atoms: C1_3  and  C8_10
REMARK    4  A    between atoms: C11_13  and  C12_14
REMARK    5  A    between atoms: C13_15  and  C14_16
REMARK    6  A    between atoms: N3_26  and  C20_27
ROOT
HETATM    1  C14 UNL     1       3.723  -5.165 -22.179  1.00  0.00     0.101 A
HETATM    2  N1  UNL     1       3.455  -4.261 -23.141  1.00  0.00    -0.358 N
ATOM      3  H1  UNL     1       3.642  -4.509 -24.112  1.00  0.00     0.166 HD
HETATM    4  C15 UNL     1       2.950  -3.043 -22.872  1.00  0.00     0.091 A
HETATM    5  C16 UNL     1       2.683  -2.677 -21.569  1.00  0.00     0.049 A
HETATM    6  C17 UNL     1       2.950  -3.591 -20.558  1.00  0.00     0.072 A
HETATM    7  C18 UNL     1       3.473  -4.837 -20.879  1.00  0.00     0.045 A
HETATM    8  C19 UNL     1       3.636  -5.528 -19.702  1.00  0.00     0.124 A
HETATM    9  N2  UNL     1       3.223  -4.715 -18.711  1.00  0.00    -0.304 N
ATOM     10  H2  UNL     1       3.223  -4.951 -17.719  1.00  0.00     0.186 HD
HETATM   11  N3  UNL     1       2.815  -3.560 -19.225  1.00  0.00    -0.256 N
ENDROOT
BRANCH   1  12
HETATM   12  C13 UNL     1       4.263  -6.464 -22.472  1.00  0.00    -0.042 C
HETATM   13  C12 UNL     1       4.728  -7.548 -22.732  1.00  0.00    -0.060 C
BRANCH  13  14
HETATM   14  C11 UNL     1       5.271  -8.848 -23.064  1.00  0.00     0.018 A
HETATM   15  C10 UNL     1       6.056  -9.552 -22.177  1.00  0.00     0.021 A
HETATM   16  C9  UNL     1       6.582 -10.792 -22.477  1.00  0.00     0.011 A
HETATM   17  C8  UNL     1       6.338 -11.389 -23.696  1.00  0.00    -0.025 A
HETATM   18  C27 UNL     1       5.552 -10.685 -24.584  1.00  0.00     0.011 A
HETATM   19  C26 UNL     1       5.027  -9.445 -24.284  1.00  0.00     0.021 A
BRANCH  17  20
HETATM   20  C1  UNL     1       6.897 -12.732 -24.043  1.00  0.00     0.184 C
BRANCH  20  21
HETATM   21  O1  UNL     1       7.944 -12.616 -24.956  1.00  0.00    -0.386 OA
ATOM     22  H1  UNL     1       7.797 -13.183 -25.704  1.00  0.00     0.210 HD
ENDBRANCH  20  21
BRANCH  20  23
HETATM   23  C2  UNL     1       5.841 -13.629 -24.576  1.00  0.00    -0.025 A
HETATM   24  C3  UNL     1       6.172 -14.794 -25.227  1.00  0.00     0.010 A
HETATM   25  C4  UNL     1       5.208 -15.656 -25.737  1.00  0.00     0.001 A
HETATM   26  C5  UNL     1       3.870 -15.364 -25.603  1.00  0.00     0.000 A
HETATM   27  C6  UNL     1       3.528 -14.199 -24.952  1.00  0.00     0.001 A
HETATM   28  C7  UNL     1       4.498 -13.352 -24.450  1.00  0.00     0.010 A
ENDBRANCH  20  23
ENDBRANCH  17  20
ENDBRANCH  13  14
ENDBRANCH   1  12
BRANCH  11  29
HETATM   29  C20 UNL     1       2.311  -2.461 -18.475  1.00  0.00     0.059 A
HETATM   30  C21 UNL     1       3.120  -1.401 -18.125  1.00  0.00     0.032 A
HETATM   31  C22 UNL     1       2.627  -0.343 -17.401  1.00  0.00     0.005 A
HETATM   32  C23 UNL     1       1.304  -0.293 -16.993  1.00  0.00     0.042 A
HETATM   33  C24 UNL     1       0.507  -1.376 -17.360  1.00  0.00     0.118 A
HETATM   34  F1  UNL     1      -0.816  -1.400 -16.993  1.00  0.00    -0.206 F
HETATM   35  C25 UNL     1       0.989  -2.438 -18.082  1.00  0.00     0.073 A
ENDBRANCH  11  29
TORSDOF 6
ENDMDL