MODEL 2
REMARK VINA RESULT: -7.781852859      4.082      6.900
REMARK  4 active torsions:
REMARK  status: ('A' for Active; 'I' for Inactive)
REMARK    1  A    between atoms: O1_2  and  C2_3
REMARK    2  A    between atoms: C5_6  and  C6_7
REMARK    3  A    between atoms: C10_11  and  C11_12
REMARK    4  A    between atoms: N1_19  and  C17_20
ROOT
HETATM    1  C6  UNL     1       2.399  -9.649 -24.481  1.00  0.00     0.136 C
HETATM    2  C7  UNL     1       2.272  -8.959 -25.816  1.00  0.00     0.031 C
HETATM    3  C8  UNL     1       1.592  -7.647 -25.672  1.00  0.00     0.005 C
HETATM    4  C9  UNL     1       1.286  -7.177 -24.294  1.00  0.00     0.031 C
HETATM    5  C10 UNL     1       2.309  -7.538 -23.256  1.00  0.00     0.136 C
HETATM    6  N1  UNL     1       3.060  -8.720 -23.611  1.00  0.00    -0.201 N
ENDROOT
BRANCH   1   7
HETATM    7  C5  UNL     1       3.003 -10.990 -24.548  1.00  0.00    -0.035 A
HETATM    8  C4  UNL     1       4.292 -11.209 -25.002  1.00  0.00     0.012 A
HETATM    9  C3  UNL     1       4.846 -12.486 -25.077  1.00  0.00     0.037 A
HETATM   10  C2  UNL     1       4.119 -13.595 -24.696  1.00  0.00     0.068 A
HETATM   11  C22 UNL     1       2.835 -13.373 -24.245  1.00  0.00     0.037 A
HETATM   12  C21 UNL     1       2.286 -12.109 -24.170  1.00  0.00     0.012 A
BRANCH  10  13
HETATM   13  O1  UNL     1       4.642 -14.882 -24.758  1.00  0.00    -0.356 OA
HETATM   14  C1  UNL     1       4.289 -15.740 -25.827  1.00  0.00     0.210 C
ENDBRANCH  10  13
ENDBRANCH   1   7
BRANCH   6  15
HETATM   15  C17 UNL     1       4.341  -8.938 -23.136  1.00  0.00     0.673 C
HETATM   16  N2  UNL     1       4.580  -9.427 -21.978  1.00  0.00    -0.226 N
HETATM   17  C18 UNL     1       5.884  -9.677 -21.431  1.00  0.00     0.139 C
ATOM     18  H2  UNL     1       3.777  -9.658 -21.393  1.00  0.00     0.177 HD
HETATM   19  C19 UNL     1       6.920  -9.937 -22.500  1.00  0.00     0.040 C
HETATM   20  C20 UNL     1       6.779  -9.034 -23.678  1.00  0.00     0.139 C
HETATM   21  N3  UNL     1       5.447  -8.611 -23.966  1.00  0.00    -0.226 N
ATOM     22  H3  UNL     1       5.282  -8.051 -24.802  1.00  0.00     0.177 HD
ENDBRANCH   6  15
BRANCH   5  23
HETATM   23  C11 UNL     1       3.258  -6.422 -23.071  1.00  0.00    -0.035 A
HETATM   24  C12 UNL     1       3.566  -5.959 -21.816  1.00  0.00     0.010 A
HETATM   25  C13 UNL     1       4.456  -4.900 -21.663  1.00  0.00     0.019 A
HETATM   26  C14 UNL     1       5.040  -4.300 -22.755  1.00  0.00     0.011 A
HETATM   27 BR1  UNL     1       6.258  -2.850 -22.543  1.00  0.00    -0.051 Br
HETATM   28  C15 UNL     1       4.736  -4.759 -24.020  1.00  0.00     0.019 A
HETATM   29  C16 UNL     1       3.856  -5.806 -24.159  1.00  0.00     0.010 A
ENDBRANCH   5  23
TORSDOF 4
ENDMDL