MODEL 2
REMARK VINA RESULT: -11.191424232      0.176      1.186
REMARK  5 active torsions:
REMARK  status: ('A' for Active; 'I' for Inactive)
REMARK    1  A    between atoms: C4_5  and  C5_6
REMARK    2  A    between atoms: C5_6  and  C16_25
REMARK    3  A    between atoms: N1_7  and  N2_9
REMARK    4  A    between atoms: N2_9  and  C6_11
REMARK    5  A    between atoms: C8_15  and  C9_16
ROOT
HETATM    1  C5  UNL     1       1.395 -12.097 -24.049  1.00  0.00     0.085 C
HETATM    2  N1  UNL     1       1.465 -10.921 -24.560  1.00  0.00    -0.296 N
ATOM      3  H1  UNL     1       2.307 -10.767 -25.117  1.00  0.00     0.187 HD
ENDROOT
BRANCH   1   4
HETATM    4  C4  UNL     1       0.278 -12.506 -23.226  1.00  0.00    -0.006 A
HETATM    5  C3  UNL     1       0.414 -12.854 -21.886  1.00  0.00     0.017 A
HETATM    6  C2  UNL     1      -0.659 -13.132 -21.054  1.00  0.00     0.043 A
HETATM    7  C1  UNL     1      -1.945 -13.073 -21.534  1.00  0.00     0.116 A
HETATM    8  F1  UNL     1      -3.025 -13.339 -20.747  1.00  0.00    -0.206 F
HETATM    9  C26 UNL     1      -2.121 -12.732 -22.855  1.00  0.00     0.043 A
HETATM   10  C25 UNL     1      -1.045 -12.459 -23.664  1.00  0.00     0.017 A
ENDBRANCH   1   4
BRANCH   1  11
HETATM   11  C16 UNL     1       2.552 -12.975 -24.352  1.00  0.00     0.061 A
HETATM   12  C17 UNL     1       2.425 -14.259 -24.759  1.00  0.00     0.033 A
HETATM   13  C18 UNL     1       3.587 -14.983 -25.082  1.00  0.00     0.016 A
HETATM   14  C19 UNL     1       4.845 -14.428 -24.995  1.00  0.00    -0.009 A
HETATM   15  C20 UNL     1       5.989 -15.139 -25.313  1.00  0.00     0.013 A
HETATM   16  C24 UNL     1       4.912 -13.113 -24.572  1.00  0.00     0.043 A
HETATM   17  C21 UNL     1       7.237 -14.572 -25.221  1.00  0.00     0.001 A
HETATM   18  C22 UNL     1       7.302 -13.260 -24.799  1.00  0.00     0.002 A
HETATM   19  C23 UNL     1       6.182 -12.539 -24.480  1.00  0.00     0.030 A
HETATM   20  N5  UNL     1       3.809 -12.422 -24.266  1.00  0.00    -0.354 N
ATOM     21  H5  UNL     1       3.902 -11.454 -23.958  1.00  0.00     0.166 HD
ENDBRANCH   1  11
BRANCH   2  22
HETATM   22  N2  UNL     1       0.657  -9.858 -24.509  1.00  0.00    -0.284 N
ATOM     23  H2  UNL     1      -0.287  -9.958 -24.883  1.00  0.00     0.188 HD
BRANCH  22  24
HETATM   24  C6  UNL     1       0.995  -8.707 -24.015  1.00  0.00     0.135 A
HETATM   25  C7  UNL     1       2.263  -8.545 -23.460  1.00  0.00     0.138 A
HETATM   26  N3  UNL     1       2.623  -7.355 -22.947  1.00  0.00    -0.361 N
HETATM   27  C8  UNL     1       1.773  -6.283 -22.950  1.00  0.00     0.058 A
ATOM     28  H3  UNL     1       3.554  -7.249 -22.545  1.00  0.00     0.165 HD
HETATM   29  C15 UNL     1       0.539  -6.492 -23.505  1.00  0.00     0.120 A
HETATM   30  N4  UNL     1       0.136  -7.675 -24.035  1.00  0.00    -0.348 N
ATOM     31  H4  UNL     1      -0.796  -7.778 -24.437  1.00  0.00     0.167 HD
BRANCH  27  32
HETATM   32  C9  UNL     1       2.246  -5.040 -22.374  1.00  0.00    -0.008 A
HETATM   33  C10 UNL     1       2.125  -3.836 -23.013  1.00  0.00     0.014 A
HETATM   34  C11 UNL     1       2.572  -2.643 -22.474  1.00  0.00     0.001 A
HETATM   35  C12 UNL     1       3.171  -2.628 -21.240  1.00  0.00     0.000 A
HETATM   36  C13 UNL     1       3.306  -3.823 -20.572  1.00  0.00     0.001 A
HETATM   37  C14 UNL     1       2.855  -5.005 -21.123  1.00  0.00     0.014 A
ENDBRANCH  27  32
ENDBRANCH  22  24
ENDBRANCH   2  22
TORSDOF 5
ENDMDL