MODEL 1
REMARK VINA RESULT: -9.409785237      0.000      0.000
REMARK  2 active torsions:
REMARK  status: ('A' for Active; 'I' for Inactive)
REMARK    1  A    between atoms: C3_5  and  N2_6
REMARK    2  A    between atoms: C4_7  and  C5_8
ROOT
HETATM    1  N2  UNL     1       2.491  -9.222 -24.012  1.00  0.00    -0.127 N
HETATM    2  C4  UNL     1       1.319  -8.724 -24.366  1.00  0.00     0.140 A
HETATM    3  N3  UNL     1       1.080  -7.359 -24.263  1.00  0.00    -0.338 N
ATOM      4  H3  UNL     1       0.169  -6.993 -24.542  1.00  0.00     0.167 HD
HETATM    5  C11 UNL     1       2.001  -6.520 -23.812  1.00  0.00     0.075 A
HETATM    6  C12 UNL     1       3.227  -7.018 -23.436  1.00  0.00     0.089 A
HETATM    7  N4  UNL     1       3.996  -6.001 -23.015  1.00  0.00    -0.352 N
ATOM      8  H4  UNL     1       4.954  -6.096 -22.680  1.00  0.00     0.166 HD
HETATM    9  C13 UNL     1       3.320  -4.840 -23.099  1.00  0.00     0.045 A
HETATM   10  C14 UNL     1       3.634  -3.519 -22.800  1.00  0.00     0.030 A
HETATM   11  C15 UNL     1       2.698  -2.530 -23.002  1.00  0.00     0.002 A
HETATM   12  C16 UNL     1       1.464  -2.860 -23.496  1.00  0.00     0.001 A
HETATM   13  C17 UNL     1       1.108  -4.159 -23.807  1.00  0.00     0.016 A
HETATM   14  C18 UNL     1       2.064  -5.139 -23.596  1.00  0.00     0.020 A
HETATM   15  C19 UNL     1       3.463  -8.370 -23.540  1.00  0.00     0.098 A
HETATM   16  C20 UNL     1       4.745  -8.896 -23.156  1.00  0.00    -0.006 A
HETATM   17  C21 UNL     1       5.790  -9.085 -24.021  1.00  0.00     0.017 A
HETATM   18  C22 UNL     1       6.977  -9.578 -23.540  1.00  0.00     0.043 A
HETATM   19  C23 UNL     1       7.163  -9.894 -22.211  1.00  0.00     0.116 A
HETATM   20  F1  UNL     1       8.325 -10.381 -21.716  1.00  0.00    -0.206 F
HETATM   21  C24 UNL     1       6.123  -9.710 -21.327  1.00  0.00     0.043 A
HETATM   22  C25 UNL     1       4.938  -9.214 -21.828  1.00  0.00     0.017 A
ENDROOT
BRANCH   1  23
HETATM   23  C3  UNL     1       2.929 -10.551 -24.146  1.00  0.00     0.713 A
HETATM   24  N1  UNL     1       3.770 -11.189 -24.946  1.00  0.00    -0.170 N
HETATM   25  C2  UNL     1       3.777 -12.497 -24.656  1.00  0.00     0.158 A
ATOM     26  H1  UNL     1       4.331 -10.748 -25.675  1.00  0.00     0.186 HD
HETATM   27  C1  UNL     1       4.569 -13.588 -25.298  1.00  0.00     0.100 C
HETATM   28  O1  UNL     1       2.943 -12.676 -23.680  1.00  0.00    -0.210 OA
HETATM   29  N5  UNL     1       2.419 -11.544 -23.349  1.00  0.00    -0.089 N
ATOM     30  H5  UNL     1       1.731 -11.409 -22.608  1.00  0.00     0.213 HD
ENDBRANCH   1  23
BRANCH   2  31
HETATM   31  C5  UNL     1       0.237  -9.525 -24.946  1.00  0.00     0.009 A
HETATM   32  C6  UNL     1       0.073  -9.467 -26.347  1.00  0.00     0.015 A
HETATM   33  C7  UNL     1      -0.932 -10.097 -27.020  1.00  0.00     0.001 A
HETATM   34  C8  UNL     1      -1.836 -10.833 -26.270  1.00  0.00     0.000 A
HETATM   35  C9  UNL     1      -1.712 -10.912 -24.926  1.00  0.00     0.001 A
HETATM   36  C10 UNL     1      -0.668 -10.251 -24.258  1.00  0.00     0.015 A
ENDBRANCH   2  31
TORSDOF 2
ENDMDL