MODEL 1
REMARK VINA RESULT: -8.958829893      0.000      0.000
REMARK  5 active torsions:
REMARK  status: ('A' for Active; 'I' for Inactive)
REMARK    1  A    between atoms: C4_5  and  N1_6
REMARK    2  A    between atoms: N3_11  and  C7_12
REMARK    3  A    between atoms: C7_12  and  N4_14
REMARK    4  A    between atoms: N4_14  and  C8_16
REMARK    5  A    between atoms: C14_22  and  C15_23
ROOT
HETATM    1  N1  UNL     1       3.618  -5.298 -21.271  1.00  0.00    -0.286 N
HETATM    2  C5  UNL     1       3.404  -5.244 -22.699  1.00  0.00     0.210 C
HETATM    3  C6  UNL     1       3.218  -6.697 -23.038  1.00  0.00     0.072 C
HETATM    4  N2  UNL     1       2.783  -7.534 -23.905  1.00  0.00    -0.296 N
ATOM      5  H2  UNL     1       2.356  -7.261 -24.790  1.00  0.00     0.187 HD
HETATM    6  N3  UNL     1       2.956  -8.863 -23.510  1.00  0.00    -0.252 N
HETATM    7  C14 UNL     1       3.835  -8.842 -22.381  1.00  0.00     0.197 C
HETATM    8  C21 UNL     1       3.763  -7.421 -21.898  1.00  0.00     0.081 C
HETATM    9  N5  UNL     1       3.976  -6.607 -20.926  1.00  0.00    -0.297 N
ATOM     10  H5  UNL     1       4.356  -6.879 -20.019  1.00  0.00     0.187 HD
ENDROOT
BRANCH   6  11
HETATM   11  C7  UNL     1       2.360 -10.029 -24.124  1.00  0.00     0.194 C
HETATM   12  S1  UNL     1       1.441  -9.775 -25.421  1.00  0.00    -0.039 SA
BRANCH  11  13
HETATM   13  N4  UNL     1       2.632 -11.284 -23.582  1.00  0.00    -0.332 N
ATOM     14  H4  UNL     1       2.225 -11.447 -22.661  1.00  0.00     0.168 HD
BRANCH  13  15
HETATM   15  C8  UNL     1       3.370 -12.358 -24.092  1.00  0.00     0.034 A
HETATM   16  C9  UNL     1       2.691 -13.526 -24.459  1.00  0.00     0.029 A
HETATM   17  C10 UNL     1       3.343 -14.615 -24.990  1.00  0.00     0.002 A
HETATM   18  C11 UNL     1       4.714 -14.570 -25.172  1.00  0.00     0.000 A
HETATM   19  C12 UNL     1       5.401 -13.448 -24.824  1.00  0.00     0.002 A
HETATM   20  C13 UNL     1       4.718 -12.347 -24.284  1.00  0.00     0.029 A
ENDBRANCH  13  15
ENDBRANCH  11  13
ENDBRANCH   6  11
BRANCH   7  21
HETATM   21  C15 UNL     1       5.233  -9.179 -22.719  1.00  0.00    -0.028 A
HETATM   22  C16 UNL     1       5.808  -8.936 -23.936  1.00  0.00     0.010 A
HETATM   23  C17 UNL     1       7.119  -9.264 -24.215  1.00  0.00     0.001 A
HETATM   24  C18 UNL     1       7.887  -9.864 -23.234  1.00  0.00     0.000 A
HETATM   25  C19 UNL     1       7.338 -10.122 -22.002  1.00  0.00     0.001 A
HETATM   26  C20 UNL     1       6.013  -9.776 -21.754  1.00  0.00     0.010 A
ENDBRANCH   7  21
BRANCH   1  27
HETATM   27  C4  UNL     1       3.480  -4.188 -20.403  1.00  0.00     0.051 A
HETATM   28  C3  UNL     1       4.132  -3.005 -20.662  1.00  0.00     0.034 A
HETATM   29  C2  UNL     1       4.002  -1.911 -19.817  1.00  0.00     0.044 A
HETATM   30  C1  UNL     1       3.194  -2.056 -18.710  1.00  0.00     0.116 A
HETATM   31  F1  UNL     1       3.032  -1.016 -17.849  1.00  0.00    -0.206 F
HETATM   32  C23 UNL     1       2.550  -3.236 -18.462  1.00  0.00     0.044 A
HETATM   33  C22 UNL     1       2.674  -4.328 -19.295  1.00  0.00     0.034 A
ENDBRANCH   1  27
TORSDOF 5
ENDMDL