MODEL 1
REMARK VINA RESULT: -6.970458191      0.000      0.000
REMARK  3 active torsions:
REMARK  status: ('A' for Active; 'I' for Inactive)
REMARK    1  A    between atoms: C4_8  and  C5_9
REMARK    2  A    between atoms: C15_19  and  C16_20
REMARK    3  A    between atoms: C22_27  and  N2_28
ROOT
HETATM    1  O1  UNL     1      -0.577  -5.915 -24.948  1.00  0.00    -0.273 OA
HETATM    2  C1  UNL     1      -0.162  -7.125 -24.945  1.00  0.00     0.228 C
HETATM    3  C2  UNL     1      -0.618  -8.117 -25.920  1.00  0.00     0.179 C
HETATM    4  S1  UNL     1       0.740  -9.334 -25.831  1.00  0.00    -0.125 SA
HETATM    5  C3  UNL     1       1.754  -8.495 -24.532  1.00  0.00     0.116 C
HETATM    6  N1  UNL     1       0.758  -7.605 -24.014  1.00  0.00    -0.339 N
ATOM      7  H1  UNL     1       0.725  -7.340 -23.030  1.00  0.00     0.164 HD
HETATM    8  C4  UNL     1       2.089  -9.604 -23.560  1.00  0.00     0.060 C
HETATM    9  C11 UNL     1       3.479  -9.978 -23.903  1.00  0.00     0.020 C
HETATM   10  C12 UNL     1       3.947  -9.116 -25.029  1.00  0.00     0.019 C
HETATM   11  C13 UNL     1       5.279  -8.531 -24.641  1.00  0.00     0.008 C
HETATM   12  C14 UNL     1       5.159  -7.057 -24.795  1.00  0.00     0.012 C
HETATM   13  C15 UNL     1       3.645  -6.762 -24.726  1.00  0.00     0.051 C
HETATM   14  C22 UNL     1       2.948  -7.966 -25.169  1.00  0.00     0.084 C
ENDROOT
BRANCH  13  15
HETATM   15  C16 UNL     1       3.296  -6.094 -23.481  1.00  0.00    -0.051 A
HETATM   16  C17 UNL     1       3.764  -6.552 -22.280  1.00  0.00     0.011 A
HETATM   17  C18 UNL     1       3.449  -5.920 -21.067  1.00  0.00     0.043 A
HETATM   18  C19 UNL     1       2.639  -4.796 -21.061  1.00  0.00     0.116 A
HETATM   19  F1  UNL     1       2.349  -4.204 -19.866  1.00  0.00    -0.206 F
HETATM   20  C20 UNL     1       2.169  -4.333 -22.253  1.00  0.00     0.043 A
HETATM   21  C21 UNL     1       2.495  -4.972 -23.420  1.00  0.00     0.011 A
ENDBRANCH  13  15
BRANCH  14  22
HETATM   22  N2  UNL     1       2.633  -7.783 -26.607  1.00  0.00    -0.337 N
HETATM   23  C23 UNL     1       2.549  -6.607 -27.256  1.00  0.00     0.110 A
HETATM   24  C24 UNL     1       2.238  -6.821 -28.594  1.00  0.00     0.106 A
HETATM   25  N3  UNL     1       2.138  -8.130 -28.735  1.00  0.00    -0.361 N
HETATM   26  C25 UNL     1       2.376  -8.703 -27.540  1.00  0.00     0.183 A
ATOM     27  H3  UNL     1       1.919  -8.623 -29.601  1.00  0.00     0.166 HD
ENDBRANCH  14  22
BRANCH   8  28
HETATM   28  C5  UNL     1       1.230 -10.799 -23.669  1.00  0.00    -0.051 A
HETATM   29  C6  UNL     1       1.802 -12.035 -23.828  1.00  0.00     0.007 A
HETATM   30  C7  UNL     1       1.001 -13.184 -23.935  1.00  0.00     0.001 A
HETATM   31  C8  UNL     1      -0.375 -13.102 -23.882  1.00  0.00     0.000 A
HETATM   32  C9  UNL     1      -0.943 -11.861 -23.721  1.00  0.00     0.001 A
HETATM   33  C10 UNL     1      -0.147 -10.742 -23.618  1.00  0.00     0.007 A
ENDBRANCH   8  28
TORSDOF 3
ENDMDL