MODEL 4
REMARK VINA RESULT: -10.638484581      4.096      9.608
REMARK  5 active torsions:
REMARK  status: ('A' for Active; 'I' for Inactive)
REMARK    1  A    between atoms: C5_6  and  C6_7
REMARK    2  A    between atoms: C6_7  and  O2_9
REMARK    3  A    between atoms: O2_9  and  C7_10
REMARK    4  A    between atoms: C11_14  and  N2_15
REMARK    5  A    between atoms: N2_15  and  C12_17
ROOT
HETATM    1  N1  UNL     1      14.128 -13.993 -28.742  1.00  0.00    -0.190 NA
HETATM    2  C1  UNL     1      13.088 -14.131 -28.240  1.00  0.00     0.117 C
HETATM    3  C2  UNL     1      11.807 -14.292 -27.637  1.00  0.00     0.113 A
HETATM    4  C3  UNL     1      11.526 -15.381 -26.827  1.00  0.00     0.042 A
HETATM    5  C4  UNL     1      10.274 -15.516 -26.252  1.00  0.00     0.022 A
HETATM    6  C5  UNL     1       9.280 -14.585 -26.465  1.00  0.00     0.055 A
HETATM    7  C22 UNL     1       9.604 -13.523 -27.276  1.00  0.00     0.106 A
HETATM    8  N4  UNL     1      10.824 -13.398 -27.831  1.00  0.00    -0.356 N
ATOM      9  H4  UNL     1      11.010 -12.588 -28.424  1.00  0.00     0.166 HD
ENDROOT
BRANCH   6  10
HETATM   10  C6  UNL     1       7.955 -14.677 -25.890  1.00  0.00     0.300 C
HETATM   11  O1  UNL     1       7.096 -15.390 -26.463  1.00  0.00    -0.259 OA
BRANCH  10  12
HETATM   12  O2  UNL     1       7.564 -14.026 -24.737  1.00  0.00    -0.275 OA
BRANCH  12  13
HETATM   13  C7  UNL     1       6.451 -13.200 -24.655  1.00  0.00     0.081 A
HETATM   14  C8  UNL     1       5.245 -13.550 -25.232  1.00  0.00     0.038 A
HETATM   15  C9  UNL     1       4.139 -12.703 -25.138  1.00  0.00     0.019 A
HETATM   16  C10 UNL     1       4.259 -11.506 -24.457  1.00  0.00     0.018 A
HETATM   17  C11 UNL     1       3.178 -10.657 -24.351  1.00  0.00     0.046 A
HETATM   18  C20 UNL     1       5.467 -11.126 -23.862  1.00  0.00     0.047 A
HETATM   19  C18 UNL     1       3.300  -9.451 -23.666  1.00  0.00     0.047 A
HETATM   20  C19 UNL     1       4.527  -9.156 -23.110  1.00  0.00     0.090 A
HETATM   21  N3  UNL     1       5.595  -9.967 -23.199  1.00  0.00    -0.365 N
ATOM     22  H3  UNL     1       6.483  -9.706 -22.771  1.00  0.00     0.165 HD
HETATM   23  C21 UNL     1       6.527 -12.011 -23.992  1.00  0.00     0.067 A
BRANCH  17  24
HETATM   24  N2  UNL     1       2.072 -11.023 -24.906  1.00  0.00    -0.355 N
ATOM     25  H2  UNL     1       1.956 -10.885 -25.910  1.00  0.00     0.166 HD
BRANCH  24  26
HETATM   26  C12 UNL     1       1.006 -11.614 -24.167  1.00  0.00     0.032 A
HETATM   27  C13 UNL     1      -0.295 -11.332 -24.572  1.00  0.00     0.031 A
HETATM   28  C14 UNL     1      -1.321 -11.919 -23.839  1.00  0.00     0.021 A
HETATM   29  C15 UNL     1      -1.062 -12.737 -22.767  1.00  0.00     0.011 A
HETATM   30 BR1  UNL     1      -2.474 -13.544 -21.760  1.00  0.00    -0.051 Br
HETATM   31  C16 UNL     1       0.228 -13.013 -22.371  1.00  0.00     0.021 A
HETATM   32  C17 UNL     1       1.257 -12.436 -23.092  1.00  0.00     0.031 A
ENDBRANCH  24  26
ENDBRANCH  17  24
ENDBRANCH  12  13
ENDBRANCH  10  12
ENDBRANCH   6  10
TORSDOF 5
ENDMDL