MODEL 1
REMARK VINA RESULT: -7.865667022      0.000      0.000
REMARK  5 active torsions:
REMARK  status: ('A' for Active; 'I' for Inactive)
REMARK    1  A    between atoms: C4_5  and  N2_6
REMARK    2  A    between atoms: C6_8  and  C7_9
REMARK    3  A    between atoms: C7_9  and  O1_11
REMARK    4  A    between atoms: C7_9  and  C9_13
REMARK    5  A    between atoms: C16_24  and  C17_25
ROOT
HETATM    1  C1  UNL     1       1.425  -6.704 -24.682  1.00  0.00     0.144 C
HETATM    2  N1  UNL     1       1.165  -7.237 -25.967  1.00  0.00    -0.405 N
HETATM    3  C2  UNL     1      -0.193  -7.348 -26.377  1.00  0.00     0.104 C
HETATM    4  C3  UNL     1      -0.176  -7.107 -27.861  1.00  0.00     0.025 C
HETATM    5  C4  UNL     1       0.871  -7.549 -28.557  1.00  0.00     0.035 C
HETATM    6  C13 UNL     1       2.012  -8.273 -27.960  1.00  0.00     0.084 C
HETATM    7  C14 UNL     1       2.002  -8.265 -26.458  1.00  0.00     0.085 C
HETATM    8  C15 UNL     1       1.563  -9.631 -25.953  1.00  0.00     0.034 C
HETATM    9  C16 UNL     1       0.083  -9.844 -26.149  1.00  0.00     0.022 C
HETATM   10  C23 UNL     1      -0.785  -8.656 -26.077  1.00  0.00     0.038 C
ENDROOT
BRANCH   5  11
HETATM   11  N2  UNL     1       0.916  -7.327 -29.987  1.00  0.00    -0.256 N
HETATM   12  C5  UNL     1       0.748  -6.171 -30.631  1.00  0.00     0.147 A
HETATM   13  C6  UNL     1       0.883  -6.401 -31.987  1.00  0.00     0.079 A
HETATM   14  N3  UNL     1       1.131  -7.718 -32.084  1.00  0.00    -0.286 N
HETATM   15  N4  UNL     1       1.145  -8.248 -30.871  1.00  0.00    -0.236 N
ATOM     16  H3  UNL     1       1.283  -8.228 -32.954  1.00  0.00     0.188 HD
ATOM     17  H4  UNL     1       1.312  -9.233 -30.663  1.00  0.00     0.209 HD
BRANCH  13  18
HETATM   18  C7  UNL     1       0.779  -5.415 -33.099  1.00  0.00     0.105 C
HETATM   19  C8  UNL     1       0.546  -4.040 -32.450  1.00  0.00     0.053 C
BRANCH  18  20
HETATM   20  O1  UNL     1      -0.310  -5.636 -33.920  1.00  0.00    -0.383 OA
ATOM     21  H1  UNL     1      -0.799  -4.844 -34.113  1.00  0.00     0.211 HD
ENDBRANCH  18  20
BRANCH  18  22
HETATM   22  C9  UNL     1       2.056  -5.307 -33.890  1.00  0.00    -0.015 C
HETATM   23  C10 UNL     1       2.224  -6.438 -34.886  1.00  0.00     0.018 C
HETATM   24  C11 UNL     1       2.060  -4.031 -34.732  1.00  0.00     0.018 C
HETATM   25  C12 UNL     1       3.251  -5.242 -32.971  1.00  0.00     0.018 C
ENDBRANCH  18  22
ENDBRANCH  13  18
ENDBRANCH   5  11
BRANCH   9  26
HETATM   26  C17 UNL     1      -0.324 -10.772 -25.056  1.00  0.00    -0.054 A
HETATM   27  C18 UNL     1       0.615 -11.458 -24.338  1.00  0.00     0.009 A
HETATM   28  C19 UNL     1       0.232 -12.332 -23.308  1.00  0.00     0.019 A
HETATM   29  C20 UNL     1      -1.106 -12.495 -23.023  1.00  0.00     0.011 A
HETATM   30 BR1  UNL     1      -1.671 -13.668 -21.628  1.00  0.00    -0.051 Br
HETATM   31  C21 UNL     1      -2.063 -11.812 -23.738  1.00  0.00     0.019 A
HETATM   32  C22 UNL     1      -1.655 -10.946 -24.759  1.00  0.00     0.009 A
ENDBRANCH   9  26
TORSDOF 5
ENDMDL