MODEL 5
REMARK VINA RESULT: -7.348232277      4.377      7.159
REMARK  5 active torsions:
REMARK  status: ('A' for Active; 'I' for Inactive)
REMARK    1  A    between atoms: C2_2  and  O1_3
REMARK    2  A    between atoms: C2_2  and  C3_5
REMARK    3  A    between atoms: N1_7  and  N2_9
REMARK       I    between atoms: N2_9  and  C5_11
REMARK    4  A    between atoms: C5_11  and  C6_13
REMARK    5  A    between atoms: C6_13  and  C7_14
ROOT
HETATM    1  C7  UNL     1       2.179  -8.184 -24.300  1.00  0.00     0.001 C
HETATM    2  C8  UNL     1       2.619  -6.753 -24.374  1.00  0.00     0.008 C
HETATM    3  C9  UNL     1       3.132  -6.193 -23.097  1.00  0.00     0.041 C
HETATM    4  C10 UNL     1       4.207  -6.960 -22.405  1.00  0.00     0.093 C
HETATM    5  C11 UNL     1       4.298  -6.239 -21.027  1.00  0.00     0.049 C
HETATM    6  C12 UNL     1       5.519  -6.700 -23.019  1.00  0.00     0.041 C
HETATM    7  C13 UNL     1       5.893  -7.316 -24.297  1.00  0.00     0.011 C
HETATM    8  C14 UNL     1       5.667  -8.764 -24.511  1.00  0.00     0.028 C
HETATM    9  C15 UNL     1       6.956  -9.475 -24.206  1.00  0.00    -0.012 C
HETATM   10  C16 UNL     1       7.528  -9.165 -22.852  1.00  0.00     0.010 C
HETATM   11  C17 UNL     1       6.970 -10.950 -24.400  1.00  0.00     0.005 C
HETATM   12  C18 UNL     1       5.817 -11.444 -23.505  1.00  0.00     0.008 C
HETATM   13  C19 UNL     1       4.622 -10.881 -24.197  1.00  0.00     0.028 C
HETATM   14  C20 UNL     1       3.328 -11.472 -23.818  1.00  0.00    -0.011 C
HETATM   15  C21 UNL     1       3.215 -12.873 -24.385  1.00  0.00     0.010 C
HETATM   16  C22 UNL     1       2.407 -10.549 -24.591  1.00  0.00     0.012 C
HETATM   17  C23 UNL     1       3.165  -9.211 -24.694  1.00  0.00     0.029 C
HETATM   18  C24 UNL     1       4.426  -9.368 -23.934  1.00  0.00     0.108 C
HETATM   19  O3  UNL     1       4.403  -9.212 -22.607  1.00  0.00    -0.228 OA
HETATM   20  O4  UNL     1       3.903  -8.227 -22.051  1.00  0.00    -0.229 OA
ENDROOT
BRANCH   1  21
HETATM   21  C6  UNL     1       0.906  -8.288 -25.113  1.00  0.00     0.109 C
BRANCH  21  22
HETATM   22  C5  UNL     1       0.897  -7.632 -26.412  1.00  0.00     0.238 C
HETATM   23  N2  UNL     1       0.340  -8.312 -27.510  1.00  0.00    -0.265 N
HETATM   24  C4  UNL     1      -0.213  -9.641 -27.355  1.00  0.00     0.181 C
HETATM   25  O2  UNL     1       1.356  -6.504 -26.587  1.00  0.00    -0.272 OA
BRANCH  23  26
HETATM   26  N1  UNL     1       0.286  -7.763 -28.803  1.00  0.00    -0.287 N
HETATM   27  C3  UNL     1       1.353  -7.741 -29.560  1.00  0.00     0.123 C
HETATM   28 CL1  UNL     1       2.851  -8.410 -28.936  1.00  0.00    -0.065 Cl
ATOM     29  H1  UNL     1      -0.591  -7.378 -29.153  1.00  0.00     0.188 HD
BRANCH  27  30
HETATM   30  C2  UNL     1       1.358  -7.183 -30.914  1.00  0.00     0.177 C
HETATM   31  C1  UNL     1       0.552  -5.929 -31.053  1.00  0.00     0.047 C
BRANCH  30  32
HETATM   32  O1  UNL     1       0.857  -8.104 -31.863  1.00  0.00    -0.389 OA
ATOM     33  H1  UNL     1       0.317  -8.726 -31.389  1.00  0.00     0.210 HD
ENDBRANCH  30  32
ENDBRANCH  27  30
ENDBRANCH  23  26
ENDBRANCH  21  22
ENDBRANCH   1  21
TORSDOF 5
ENDMDL