MODEL 1
REMARK VINA RESULT: -6.646938893      0.000      0.000
REMARK  4 active torsions:
REMARK  status: ('A' for Active; 'I' for Inactive)
REMARK    1  A    between atoms: C2_2  and  O1_3
REMARK    2  A    between atoms: O1_3  and  C3_4
REMARK    3  A    between atoms: C5_8  and  O4_9
REMARK    4  A    between atoms: C25_31  and  O5_32
ROOT
HETATM    1  C3  UNL     1       3.461  -5.892 -25.792  1.00  0.00     0.303 C
HETATM    2  O2  UNL     1       3.188  -6.895 -26.741  1.00  0.00    -0.283 OA
HETATM    3  C4  UNL     1       2.510  -8.101 -26.821  1.00  0.00     0.297 C
HETATM    4  O3  UNL     1       3.071  -8.956 -27.553  1.00  0.00    -0.262 OA
HETATM    5  C5  UNL     1       1.257  -8.522 -26.190  1.00  0.00     0.157 C
HETATM    6  C6  UNL     1       0.214  -7.455 -26.434  1.00  0.00     0.050 C
HETATM    7  C7  UNL     1       0.625  -6.116 -25.851  1.00  0.00     0.013 C
HETATM    8  C8  UNL     1       1.296  -6.219 -24.529  1.00  0.00     0.023 C
HETATM    9  C9  UNL     1       0.834  -7.524 -23.922  1.00  0.00     0.027 C
HETATM   10  C10 UNL     1       1.416  -8.685 -24.717  1.00  0.00     0.025 C
HETATM   11  C11 UNL     1       0.432  -9.827 -24.346  1.00  0.00     0.024 C
HETATM   12  C12 UNL     1       2.783  -9.013 -24.253  1.00  0.00    -0.040 C
HETATM   13  C13 UNL     1       3.101 -10.211 -24.667  1.00  0.00    -0.013 C
HETATM   14  C14 UNL     1       4.392 -10.902 -24.399  1.00  0.00     0.013 C
HETATM   15  C15 UNL     1       4.616 -11.849 -25.549  1.00  0.00     0.015 C
HETATM   16  C16 UNL     1       5.444  -9.883 -24.240  1.00  0.00     0.045 C
HETATM   17  C17 UNL     1       6.751 -10.569 -23.968  1.00  0.00     0.105 C
HETATM   18  C18 UNL     1       6.735 -11.688 -22.985  1.00  0.00     0.052 C
HETATM   19  F1  UNL     1       7.086 -11.189 -25.197  1.00  0.00    -0.243 F
HETATM   20  C19 UNL     1       7.900  -9.649 -23.691  1.00  0.00     0.043 C
HETATM   21  C20 UNL     1       7.500  -8.319 -24.164  1.00  0.00     0.004 C
HETATM   22  C21 UNL     1       6.237  -7.743 -23.576  1.00  0.00     0.014 C
HETATM   23  C22 UNL     1       5.119  -8.729 -23.348  1.00  0.00    -0.006 C
HETATM   24  C23 UNL     1       5.337  -9.133 -21.860  1.00  0.00     0.021 C
HETATM   25  C24 UNL     1       3.717  -8.208 -23.430  1.00  0.00    -0.009 C
HETATM   26  C25 UNL     1       3.475  -6.760 -23.371  1.00  0.00     0.083 C
HETATM   27  C27 UNL     1       2.784  -6.030 -24.499  1.00  0.00     0.013 C
ENDROOT
BRANCH   1  28
HETATM   28  O1  UNL     1       3.293  -4.617 -26.394  1.00  0.00    -0.357 OA
BRANCH  28  29
HETATM   29  C2  UNL     1       4.245  -3.709 -26.018  1.00  0.00     0.167 C
HETATM   30  C1  UNL     1       5.612  -4.356 -25.970  1.00  0.00     0.033 C
ENDBRANCH  28  29
ENDBRANCH   1  28
BRANCH  26  31
HETATM   31  O5  UNL     1       4.505  -5.988 -22.867  1.00  0.00    -0.355 OA
HETATM   32  C26 UNL     1       4.229  -5.189 -21.803  1.00  0.00     0.210 C
ENDBRANCH  26  31
BRANCH   5  33
HETATM   33  O4  UNL     1       0.758  -9.669 -26.838  1.00  0.00    -0.378 OA
ATOM     34  H4  UNL     1       0.919  -9.606 -27.772  1.00  0.00     0.211 HD
ENDBRANCH   5  33
TORSDOF 4
ENDMDL