MODEL 5
REMARK VINA RESULT: -9.778973380      2.195      3.571
REMARK  5 active torsions:
REMARK  status: ('A' for Active; 'I' for Inactive)
REMARK    1  A    between atoms: O1_1  and  N1_3
REMARK    2  A    between atoms: C7_11  and  O3_12
REMARK    3  A    between atoms: O3_12  and  C8_13
REMARK    4  A    between atoms: C11_16  and  N2_17
REMARK    5  A    between atoms: N2_17  and  C12_19
ROOT
HETATM    1  C8  UNL     1       3.997 -13.199 -24.659  1.00  0.00     0.076 A
HETATM    2  C9  UNL     1       3.838 -14.422 -25.249  1.00  0.00     0.039 A
HETATM    3  C10 UNL     1       4.768 -14.850 -26.165  1.00  0.00     0.033 A
HETATM    4  C11 UNL     1       5.854 -14.058 -26.491  1.00  0.00     0.049 A
HETATM    5  C16 UNL     1       6.045 -12.819 -25.915  1.00  0.00     0.033 A
HETATM    6  C17 UNL     1       5.086 -12.431 -25.001  1.00  0.00     0.039 A
ENDROOT
BRANCH   1   7
HETATM    7  O3  UNL     1       3.121 -12.677 -23.727  1.00  0.00    -0.308 OA
BRANCH   7   8
HETATM    8  C7  UNL     1       1.864 -12.209 -24.009  1.00  0.00     0.110 A
HETATM    9  C6  UNL     1       1.736 -10.867 -24.324  1.00  0.00     0.121 A
HETATM   10  O2  UNL     1       2.614  -9.889 -24.415  1.00  0.00    -0.305 OA
HETATM   11  C21 UNL     1       0.477 -10.341 -24.620  1.00  0.00     0.014 A
HETATM   12  C4  UNL     1       2.000  -8.762 -24.751  1.00  0.00     0.105 A
HETATM   13  C3  UNL     1       0.649  -9.000 -24.891  1.00  0.00     0.014 A
HETATM   14  C5  UNL     1       2.485  -7.487 -24.963  1.00  0.00     0.160 A
HETATM   15  C2  UNL     1      -0.159  -7.940 -25.240  1.00  0.00     0.035 A
HETATM   16  C1  UNL     1       0.364  -6.668 -25.446  1.00  0.00     0.123 A
HETATM   17  N1  UNL     1       1.685  -6.461 -25.304  1.00  0.00    -0.244 N
HETATM   18  C20 UNL     1      -0.665 -11.117 -24.611  1.00  0.00     0.015 A
HETATM   19  C19 UNL     1      -0.522 -12.453 -24.296  1.00  0.00     0.004 A
HETATM   20  C18 UNL     1       0.725 -12.986 -24.001  1.00  0.00     0.040 A
BRANCH  17  21
HETATM   21  O1  UNL     1       2.186  -5.200 -25.510  1.00  0.00    -0.284 OA
ATOM     22  H1  UNL     1       3.016  -4.964 -25.111  1.00  0.00     0.245 HD
ENDBRANCH  17  21
ENDBRANCH   7   8
ENDBRANCH   1   7
BRANCH   4  23
HETATM   23  N2  UNL     1       6.801 -14.529 -27.445  1.00  0.00    -0.192 N
ATOM     24  H2  UNL     1       6.487 -14.961 -28.315  1.00  0.00     0.184 HD
BRANCH  23  25
HETATM   25  C12 UNL     1       8.062 -14.403 -27.197  1.00  0.00     0.682 A
HETATM   26  N3  UNL     1       8.790 -13.442 -27.799  1.00  0.00    -0.200 N
HETATM   27  C13 UNL     1      10.114 -13.307 -27.542  1.00  0.00     0.126 A
ATOM     28  H3  UNL     1       8.339 -12.807 -28.456  1.00  0.00     0.183 HD
HETATM   29  C14 UNL     1      10.720 -14.174 -26.645  1.00  0.00     0.042 A
HETATM   30 BR1  UNL     1      12.569 -14.048 -26.233  1.00  0.00    -0.048 Br
HETATM   31  C15 UNL     1       9.967 -15.140 -26.045  1.00  0.00     0.126 A
HETATM   32  N4  UNL     1       8.655 -15.245 -26.325  1.00  0.00    -0.200 N
ATOM     33  H4  UNL     1       8.101 -15.972 -25.871  1.00  0.00     0.183 HD
ENDBRANCH  23  25
ENDBRANCH   4  23
TORSDOF 5
ENDMDL