MODEL 1
REMARK VINA RESULT: -7.474881994      0.000      0.000
REMARK  5 active torsions:
REMARK  status: ('A' for Active; 'I' for Inactive)
REMARK    1  A    between atoms: O1_2  and  C2_3
REMARK    2  A    between atoms: C2_3  and  C3_5
REMARK    3  A    between atoms: C5_7  and  O3_8
REMARK    4  A    between atoms: C15_20  and  C16_21
REMARK    5  A    between atoms: C16_21  and  C17_23
ROOT
HETATM    1  C3  UNL     1       4.138  -4.856 -23.186  1.00  0.00     0.074 C
HETATM    2  C4  UNL     1       5.649  -4.614 -22.979  1.00  0.00     0.029 C
HETATM    3  C5  UNL     1       3.740  -3.712 -24.080  1.00  0.00     0.136 C
HETATM    4  C6  UNL     1       2.404  -3.838 -24.697  1.00  0.00     0.034 C
HETATM    5  C7  UNL     1       1.766  -5.129 -24.376  1.00  0.00     0.015 C
HETATM    6  C8  UNL     1       2.684  -6.337 -24.661  1.00  0.00    -0.003 C
HETATM    7  C9  UNL     1       3.075  -6.105 -26.109  1.00  0.00     0.019 C
HETATM    8  C10 UNL     1       3.842  -6.207 -23.704  1.00  0.00     0.017 C
HETATM    9  C11 UNL     1       4.999  -6.955 -24.320  1.00  0.00     0.010 C
HETATM   10  C12 UNL     1       5.408  -8.118 -23.504  1.00  0.00     0.039 C
HETATM   11  C13 UNL     1       4.789  -9.419 -23.774  1.00  0.00     0.069 C
HETATM   12  C14 UNL     1       4.315 -10.100 -22.481  1.00  0.00     0.047 C
HETATM   13  O4  UNL     1       5.845 -10.266 -24.232  1.00  0.00    -0.337 OA
HETATM   14  C15 UNL     1       5.595 -11.558 -24.646  1.00  0.00     0.112 C
HETATM   15  C20 UNL     1       4.391 -11.797 -25.046  1.00  0.00     0.014 C
HETATM   16  C21 UNL     1       3.254 -10.870 -25.112  1.00  0.00     0.038 C
HETATM   17  C22 UNL     1       3.627  -9.421 -24.752  1.00  0.00     0.031 C
HETATM   18  C23 UNL     1       2.399  -8.849 -24.180  1.00  0.00     0.033 C
HETATM   19  C24 UNL     1       1.095  -9.372 -24.812  1.00  0.00     0.011 C
HETATM   20  C25 UNL     1       1.046  -8.046 -25.591  1.00  0.00     0.045 C
HETATM   21  C26 UNL     1       1.883  -7.536 -24.407  1.00  0.00     0.115 C
HETATM   22  F1  UNL     1       0.922  -7.251 -23.400  1.00  0.00    -0.242 F
ENDROOT
BRANCH   1  23
HETATM   23  C2  UNL     1       3.605  -4.649 -21.794  1.00  0.00     0.269 C
HETATM   24  O2  UNL     1       2.563  -5.139 -21.349  1.00  0.00    -0.264 OA
BRANCH  23  25
HETATM   25  O1  UNL     1       4.362  -3.838 -20.963  1.00  0.00    -0.326 OA
HETATM   26  C1  UNL     1       3.847  -3.283 -19.759  1.00  0.00     0.213 C
ENDBRANCH  23  25
ENDBRANCH   1  23
BRANCH   3  27
HETATM   27  O3  UNL     1       3.828  -2.547 -23.277  1.00  0.00    -0.394 OA
ATOM     28  H3  UNL     1       3.163  -1.955 -23.608  1.00  0.00     0.210 HD
ENDBRANCH   3  27
BRANCH  14  29
HETATM   29  C16 UNL     1       6.623 -12.604 -24.642  1.00  0.00     0.185 C
HETATM   30  O5  UNL     1       7.586 -12.473 -23.835  1.00  0.00    -0.290 OA
BRANCH  29  31
HETATM   31  C17 UNL     1       6.579 -13.776 -25.520  1.00  0.00     0.054 C
HETATM   32  C18 UNL     1       7.220 -13.460 -26.851  1.00  0.00     0.018 C
HETATM   33  C19 UNL     1       7.382 -14.897 -24.851  1.00  0.00     0.018 C
ENDBRANCH  29  31
ENDBRANCH  14  29
TORSDOF 5
ENDMDL