MODEL 3
REMARK VINA RESULT: -10.172766847      2.073      2.721
REMARK  4 active torsions:
REMARK  status: ('A' for Active; 'I' for Inactive)
REMARK    1  A    between atoms: C4_5  and  C5_6
REMARK    2  A    between atoms: C7_9  and  N1_10
REMARK    3  A    between atoms: N1_10  and  N2_12
REMARK    4  A    between atoms: C8_14  and  C9_15
ROOT
HETATM    1  N2  UNL     1       0.735 -10.009 -24.648  1.00  0.00    -0.309 N
ATOM      2  H2  UNL     1      -0.136 -10.539 -24.682  1.00  0.00     0.186 HD
HETATM    3  C8  UNL     1       1.662 -10.717 -24.232  1.00  0.00     0.120 C
ENDROOT
BRANCH   1   4
HETATM    4  N1  UNL     1       0.542  -8.752 -25.065  1.00  0.00    -0.280 N
ATOM      5  H1  UNL     1       0.164  -8.055 -24.423  1.00  0.00     0.189 HD
BRANCH   4   6
HETATM    6  C7  UNL     1       0.837  -8.412 -26.305  1.00  0.00     0.163 A
HETATM    7  S1  UNL     1      -0.071  -8.609 -27.723  1.00  0.00    -0.062 SA
HETATM    8  C6  UNL     1       1.029  -7.912 -28.822  1.00  0.00     0.083 A
HETATM    9  C5  UNL     1       2.075  -7.553 -28.007  1.00  0.00     0.051 A
HETATM   10  N5  UNL     1       1.954  -7.818 -26.725  1.00  0.00    -0.334 N
ATOM     11  H5  UNL     1       2.696  -7.575 -26.069  1.00  0.00     0.168 HD
BRANCH   9  12
HETATM   12  C4  UNL     1       3.284  -6.890 -28.585  1.00  0.00    -0.009 A
HETATM   13  C3  UNL     1       3.910  -7.374 -29.705  1.00  0.00     0.015 A
HETATM   14  C2  UNL     1       5.030  -6.754 -30.235  1.00  0.00     0.020 A
HETATM   15  C1  UNL     1       5.548  -5.637 -29.659  1.00  0.00     0.011 A
HETATM   16 BR1  UNL     1       7.089  -4.828 -30.432  1.00  0.00    -0.051 Br
HETATM   17  C22 UNL     1       4.947  -5.133 -28.546  1.00  0.00     0.020 A
HETATM   18  C21 UNL     1       3.830  -5.758 -28.023  1.00  0.00     0.015 A
ENDBRANCH   9  12
ENDBRANCH   4   6
ENDBRANCH   1   4
BRANCH   3  19
HETATM   19  C9  UNL     1       3.043 -10.347 -24.036  1.00  0.00     0.010 A
HETATM   20  C10 UNL     1       3.442  -9.105 -23.630  1.00  0.00     0.015 A
HETATM   21  C11 UNL     1       4.791  -8.790 -23.453  1.00  0.00     0.003 A
HETATM   22  C12 UNL     1       5.724  -9.765 -23.697  1.00  0.00     0.032 A
HETATM   23  C13 UNL     1       5.355 -11.027 -24.107  1.00  0.00     0.060 A
HETATM   24  N3  UNL     1       6.296 -11.986 -24.345  1.00  0.00    -0.353 N
HETATM   25  C20 UNL     1       4.026 -11.321 -24.276  1.00  0.00     0.071 A
HETATM   26  C14 UNL     1       5.883 -13.205 -24.744  1.00  0.00     0.059 A
ATOM     27  H3  UNL     1       7.289 -11.786 -24.223  1.00  0.00     0.166 HD
HETATM   28  C15 UNL     1       6.817 -14.209 -24.997  1.00  0.00     0.032 A
HETATM   29  C19 UNL     1       4.555 -13.507 -24.917  1.00  0.00     0.059 A
HETATM   30  C16 UNL     1       6.415 -15.463 -25.407  1.00  0.00     0.002 A
HETATM   31  C17 UNL     1       5.068 -15.749 -25.575  1.00  0.00     0.002 A
HETATM   32  C18 UNL     1       4.148 -14.776 -25.331  1.00  0.00     0.032 A
HETATM   33  N4  UNL     1       3.634 -12.548 -24.677  1.00  0.00    -0.352 N
ATOM     34  H4  UNL     1       2.642 -12.752 -24.800  1.00  0.00     0.166 HD
ENDBRANCH   3  19
TORSDOF 4
ENDMDL