MODEL 2
REMARK VINA RESULT: -9.310031531      4.071      7.042
REMARK  4 active torsions:
REMARK  status: ('A' for Active; 'I' for Inactive)
REMARK    1  A    between atoms: C4_5  and  C5_6
REMARK    2  A    between atoms: C6_9  and  N2_10
REMARK    3  A    between atoms: N2_10  and  C7_12
REMARK    4  A    between atoms: N3_22  and  C16_23
ROOT
HETATM    1  C5  UNL     1       4.436  -7.873 -23.691  1.00  0.00     0.153 A
HETATM    2  N1  UNL     1       5.264  -8.832 -24.067  1.00  0.00    -0.172 N
ATOM      3  H1  UNL     1       6.275  -8.736 -24.155  1.00  0.00     0.186 HD
HETATM    4  C6  UNL     1       4.546  -9.987 -24.323  1.00  0.00     0.702 A
HETATM    5  N3  UNL     1       3.266  -9.680 -24.085  1.00  0.00    -0.085 N
HETATM    6  N4  UNL     1       3.211  -8.390 -23.700  1.00  0.00    -0.262 N
ATOM      7  H4  UNL     1       2.359  -7.886 -23.454  1.00  0.00     0.190 HD
ENDROOT
BRANCH   4   8
HETATM    8  N2  UNL     1       5.143 -11.029 -24.698  1.00  0.00    -0.215 N
ATOM      9  H2  UNL     1       5.294 -11.043 -25.707  1.00  0.00     0.178 HD
BRANCH   8  10
HETATM   10  C7  UNL     1       5.649 -12.168 -24.075  1.00  0.00     0.137 C
HETATM   11  C8  UNL     1       7.119 -11.987 -23.697  1.00  0.00     0.057 C
HETATM   12  C9  UNL     1       8.062 -12.166 -24.833  1.00  0.00     0.178 C
HETATM   13  O1  UNL     1       7.540 -12.741 -25.988  1.00  0.00    -0.350 OA
HETATM   14  C10 UNL     1       6.489 -13.637 -25.905  1.00  0.00     0.077 A
HETATM   15  C11 UNL     1       6.398 -14.755 -26.738  1.00  0.00     0.037 A
HETATM   16  C15 UNL     1       5.530 -13.379 -24.962  1.00  0.00    -0.002 A
HETATM   17  C12 UNL     1       5.332 -15.619 -26.617  1.00  0.00     0.003 A
HETATM   18  C13 UNL     1       4.377 -15.350 -25.668  1.00  0.00     0.001 A
HETATM   19  C14 UNL     1       4.471 -14.229 -24.836  1.00  0.00     0.012 A
ENDBRANCH   8  10
ENDBRANCH   4   8
BRANCH   5  20
HETATM   20  C16 UNL     1       2.105 -10.513 -24.196  1.00  0.00     0.074 A
HETATM   21  C17 UNL     1       2.048 -11.736 -23.570  1.00  0.00     0.032 A
HETATM   22  C18 UNL     1       0.916 -12.536 -23.660  1.00  0.00     0.002 A
HETATM   23  C19 UNL     1      -0.172 -12.104 -24.387  1.00  0.00     0.000 A
HETATM   24  C20 UNL     1      -0.145 -10.894 -25.020  1.00  0.00     0.002 A
HETATM   25  C21 UNL     1       0.979 -10.125 -24.917  1.00  0.00     0.032 A
ENDBRANCH   5  20
BRANCH   1  26
HETATM   26  C4  UNL     1       4.815  -6.500 -23.332  1.00  0.00     0.052 A
HETATM   27  C3  UNL     1       5.798  -5.731 -23.895  1.00  0.00     0.025 A
HETATM   28  C2  UNL     1       5.965  -4.501 -23.402  1.00  0.00     0.028 A
HETATM   29  C1  UNL     1       5.147  -4.107 -22.381  1.00  0.00     0.052 A
HETATM   30 BR1  UNL     1       5.143  -2.406 -21.469  1.00  0.00    -0.043 Br
HETATM   31  S1  UNL     1       4.159  -5.479 -22.137  1.00  0.00    -0.079 SA
ENDBRANCH   1  26
TORSDOF 4
ENDMDL