MODEL 4
REMARK VINA RESULT: -9.606127285      1.800      2.520
REMARK  4 active torsions:
REMARK  status: ('A' for Active; 'I' for Inactive)
REMARK    1  A    between atoms: S1_2  and  N1_4
REMARK    2  A    between atoms: S1_2  and  C8_17
REMARK    3  A    between atoms: N1_4  and  C1_6
REMARK    4  A    between atoms: C2_9  and  C3_10
ROOT
HETATM    1  O1  UNL     1       6.353 -15.611 -26.696  1.00  0.00    -0.200 OA
HETATM    2  S1  UNL     1       6.742 -14.504 -25.758  1.00  0.00     0.272 S
HETATM    3  O2  UNL     1       7.543 -15.097 -24.662  1.00  0.00    -0.200 OA
ENDROOT
BRANCH   2   4
HETATM    4  N1  UNL     1       7.618 -13.333 -26.673  1.00  0.00    -0.259 N
ATOM      5  H1  UNL     1       7.196 -12.845 -27.463  1.00  0.00     0.181 HD
BRANCH   4   6
HETATM    6  C1  UNL     1       8.858 -13.105 -26.299  1.00  0.00     0.158 A
HETATM    7  N2  UNL     1       9.971 -13.656 -26.772  1.00  0.00    -0.335 N
HETATM    8  C2  UNL     1      11.119 -13.281 -26.250  1.00  0.00     0.058 A
ATOM      9  H2  UNL     1       9.936 -14.350 -27.518  1.00  0.00     0.168 HD
HETATM   10  C7  UNL     1      11.089 -12.348 -25.254  1.00  0.00     0.084 A
HETATM   11  S3  UNL     1       9.420 -12.038 -25.097  1.00  0.00    -0.063 SA
BRANCH   8  12
HETATM   12  C3  UNL     1      12.410 -13.853 -26.728  1.00  0.00     0.032 A
HETATM   13  C4  UNL     1      13.503 -14.185 -25.979  1.00  0.00     0.021 A
HETATM   14  C5  UNL     1      14.564 -14.690 -26.629  1.00  0.00     0.008 A
HETATM   15  C6  UNL     1      14.460 -14.828 -27.988  1.00  0.00     0.050 A
HETATM   16  S2  UNL     1      12.891 -14.252 -28.313  1.00  0.00    -0.100 SA
ENDBRANCH   8  12
ENDBRANCH   4   6
ENDBRANCH   2   4
BRANCH   2  17
HETATM   17  C8  UNL     1       5.240 -13.798 -25.163  1.00  0.00     0.132 A
HETATM   18  S4  UNL     1       3.703 -14.520 -25.138  1.00  0.00    -0.067 SA
HETATM   19  C9  UNL     1       2.817 -13.248 -24.442  1.00  0.00     0.064 A
HETATM   20 BR1  UNL     1       0.929 -13.218 -24.040  1.00  0.00    -0.042 Br
HETATM   21  C10 UNL     1       3.756 -12.273 -24.242  1.00  0.00     0.001 A
HETATM   22  C11 UNL     1       3.490 -11.005 -23.676  1.00  0.00     0.014 A
HETATM   23  C15 UNL     1       5.023 -12.556 -24.617  1.00  0.00     0.006 A
HETATM   24  C12 UNL     1       4.476 -10.058 -23.496  1.00  0.00     0.001 A
HETATM   25  C13 UNL     1       5.770 -10.346 -23.879  1.00  0.00     0.001 A
HETATM   26  C14 UNL     1       6.029 -11.578 -24.430  1.00  0.00     0.014 A
ENDBRANCH   2  17
TORSDOF 4
ENDMDL