MODEL 4
REMARK VINA RESULT: -7.860762693      1.095      1.260
REMARK  7 active torsions:
REMARK  status: ('A' for Active; 'I' for Inactive)
REMARK    1  A    between atoms: C2_2  and  O2_4
REMARK    2  A    between atoms: O2_4  and  C3_5
REMARK    3  A    between atoms: C11_13  and  O3_14
REMARK    4  A    between atoms: O3_14  and  C12_15
REMARK    5  A    between atoms: C12_15  and  C13_17
REMARK    6  A    between atoms: C13_17  and  N1_18
REMARK    7  A    between atoms: C13_17  and  C14_22
ROOT
HETATM    1  C3  UNL     1       4.407 -11.175 -23.591  1.00  0.00     0.169 C
HETATM    2  C4  UNL     1       4.412 -12.419 -24.403  1.00  0.00     0.011 C
HETATM    3  C5  UNL     1       5.407 -13.078 -24.953  1.00  0.00    -0.062 C
HETATM    4  C6  UNL     1       4.914 -14.261 -25.662  1.00  0.00    -0.024 C
HETATM    5  C7  UNL     1       3.605 -14.811 -25.111  1.00  0.00     0.019 C
HETATM    6  C8  UNL     1       4.660 -13.903 -27.102  1.00  0.00     0.019 C
HETATM    7  C9  UNL     1       5.925 -15.377 -25.523  1.00  0.00     0.016 C
HETATM    8  C10 UNL     1       7.307 -15.033 -25.893  1.00  0.00     0.035 C
HETATM    9  C11 UNL     1       7.651 -13.585 -25.900  1.00  0.00     0.144 C
HETATM   10  C18 UNL     1       6.858 -12.749 -24.921  1.00  0.00     0.007 C
HETATM   11  C19 UNL     1       7.381 -13.082 -23.541  1.00  0.00     0.023 C
HETATM   12  C20 UNL     1       7.095 -11.323 -25.293  1.00  0.00     0.017 C
HETATM   13  C21 UNL     1       6.634 -10.316 -24.284  1.00  0.00     0.020 C
HETATM   14  C22 UNL     1       5.115 -10.107 -24.362  1.00  0.00     0.091 C
HETATM   15 BR1  UNL     1       4.762  -8.365 -23.577  1.00  0.00    -0.088 Br
ENDROOT
BRANCH   9  16
HETATM   16  O3  UNL     1       9.017 -13.430 -25.557  1.00  0.00    -0.313 OA
BRANCH  16  17
HETATM   17  C12 UNL     1      10.064 -13.548 -26.463  1.00  0.00     0.290 C
HETATM   18  O4  UNL     1      10.032 -12.772 -27.444  1.00  0.00    -0.263 OA
BRANCH  17  19
HETATM   19  C13 UNL     1      11.094 -14.546 -26.202  1.00  0.00     0.289 C
BRANCH  19  20
HETATM   20  N1  UNL     1      10.759 -15.822 -26.801  1.00  0.00    -0.065 N
ATOM     21  H13 UNL     1      11.176 -16.598 -26.286  1.00  0.00     0.275 HD
ATOM     22  H12 UNL     1       9.775 -16.052 -26.663  1.00  0.00     0.275 HD
ATOM     23  H11 UNL     1      11.014 -15.849 -27.788  1.00  0.00     0.275 HD
ENDBRANCH  19  20
BRANCH  19  24
HETATM   24  C14 UNL     1      12.490 -14.116 -26.542  1.00  0.00    -0.014 C
HETATM   25  C15 UNL     1      12.738 -13.917 -27.996  1.00  0.00     0.017 C
HETATM   26  C16 UNL     1      12.917 -12.889 -25.788  1.00  0.00     0.017 C
HETATM   27  C17 UNL     1      13.419 -15.250 -26.083  1.00  0.00     0.017 C
ENDBRANCH  19  24
ENDBRANCH  17  19
ENDBRANCH  16  17
ENDBRANCH   9  16
BRANCH   1  28
HETATM   28  O2  UNL     1       3.095 -10.734 -23.339  1.00  0.00    -0.311 OA
BRANCH  28  29
HETATM   29  C2  UNL     1       1.991 -11.242 -24.019  1.00  0.00     0.255 C
HETATM   30  C1  UNL     1       1.223 -12.420 -23.539  1.00  0.00     0.126 C
HETATM   31  O1  UNL     1       1.664 -10.646 -25.089  1.00  0.00    -0.266 OA
ENDBRANCH  28  29
ENDBRANCH   1  28
TORSDOF 7
ENDMDL