MODEL 1
REMARK VINA RESULT: -6.506525838      0.000      0.000
REMARK  12 active torsions:
REMARK  status: ('A' for Active; 'I' for Inactive)
REMARK    1  A    between atoms: O1_2  and  C2_3
REMARK    2  A    between atoms: C5_7  and  O2_8
REMARK    3  A    between atoms: O2_8  and  C6_9
REMARK    4  A    between atoms: C7_10  and  N1_11
REMARK    5  A    between atoms: C9_16  and  N2_17
REMARK    6  A    between atoms: N2_17  and  C10_19
REMARK    7  A    between atoms: C11_21  and  O4_22
REMARK    8  A    between atoms: C12_24  and  N3_25
REMARK    9  A    between atoms: N3_25  and  N4_27
REMARK   10  A    between atoms: N4_27  and  N5_28
REMARK   11  A    between atoms: C13_32  and  O6_33
REMARK   12  A    between atoms: C14_35  and  N6_36
REMARK       I    between atoms: N6_36  and  C15_38
ROOT
HETATM    1  C6  UNL     1      12.831  14.553  26.658  1.00  0.00     0.182 C
HETATM    2  C7  UNL     1      13.550  15.741  27.211  1.00  0.00     0.216 C
HETATM    3  C8  UNL     1      14.980  15.344  27.503  1.00  0.00     0.063 C
HETATM    4  C9  UNL     1      15.682  14.820  26.299  1.00  0.00     0.116 C
HETATM    5  C11 UNL     1      14.805  14.654  25.094  1.00  0.00     0.168 C
HETATM    6  C12 UNL     1      13.501  14.011  25.405  1.00  0.00     0.176 C
ENDROOT
BRANCH   1   7
HETATM    7  O2  UNL     1      12.828  13.542  27.587  1.00  0.00    -0.350 OA
BRANCH   7   8
HETATM    8  C5  UNL     1      11.609  13.060  27.968  1.00  0.00     0.278 C
HETATM    9  C4  UNL     1      11.454  12.717  29.404  1.00  0.00     0.116 C
HETATM   10  C3  UNL     1      10.285  11.735  29.506  1.00  0.00     0.055 C
HETATM   11  S1  UNL     1      10.997  14.192  30.393  1.00  0.00    -0.087 SA
HETATM   12  C2  UNL     1       9.027  12.285  28.941  1.00  0.00     0.149 C
HETATM   13  C14 UNL     1       8.795  11.987  27.496  1.00  0.00     0.168 C
HETATM   14  C13 UNL     1       9.994  12.092  26.622  1.00  0.00     0.285 C
HETATM   15  O5  UNL     1      11.200  11.949  27.220  1.00  0.00    -0.328 OA
BRANCH  12  16
HETATM   16  O1  UNL     1       7.961  11.805  29.701  1.00  0.00    -0.388 OA
HETATM   17  C1  UNL     1       8.309  11.541  31.015  1.00  0.00     0.202 C
ENDBRANCH  12  16
BRANCH  13  18
HETATM   18  N6  UNL     1       8.271  10.645  27.379  1.00  0.00    -0.349 N
HETATM   19  C15 UNL     1       6.901  10.383  27.147  1.00  0.00     0.214 C
HETATM   20  C16 UNL     1       6.399   8.994  27.032  1.00  0.00     0.117 C
HETATM   21  O7  UNL     1       6.059  11.320  27.031  1.00  0.00    -0.274 OA
ATOM     22  H6  UNL     1       8.914   9.858  27.468  1.00  0.00     0.163 HD
ENDBRANCH  13  18
BRANCH  14  23
HETATM   23  O6  UNL     1       9.894  11.137  25.591  1.00  0.00    -0.369 OA
ATOM     24  H6  UNL     1       9.193  10.534  25.808  1.00  0.00     0.212 HD
ENDBRANCH  14  23
ENDBRANCH   7   8
ENDBRANCH   1   7
BRANCH   2  25
HETATM   25  N1  UNL     1      13.462  16.910  26.361  1.00  0.00    -0.072 N
ATOM     26  H13 UNL     1      12.504  17.055  26.043  1.00  0.00     0.274 HD
ATOM     27  H12 UNL     1      13.589  17.763  26.905  1.00  0.00     0.274 HD
ATOM     28  H11 UNL     1      14.106  16.884  25.571  1.00  0.00     0.274 HD
ENDBRANCH   2  25
BRANCH   6  29
HETATM   29  N3  UNL     1      12.636  14.140  24.232  1.00  0.00    -0.243 N
ATOM     30  H3  UNL     1      11.805  14.728  24.297  1.00  0.00     0.197 HD
BRANCH  29  31
HETATM   31  N4  UNL     1      12.872  13.566  23.173  1.00  0.00    -0.248 NA
BRANCH  31  32
HETATM   32  N5  UNL     1      13.211  13.133  22.087  1.00  0.00    -0.261 N
ATOM     33  H52 UNL     1      13.666  12.380  22.603  1.00  0.00     0.193 HD
ATOM     34  H51 UNL     1      13.424  12.886  21.121  1.00  0.00     0.193 HD
ENDBRANCH  31  32
ENDBRANCH  29  31
ENDBRANCH   6  29
BRANCH   5  35
HETATM   35  O4  UNL     1      15.496  13.782  24.217  1.00  0.00    -0.391 OA
ATOM     36  H4  UNL     1      15.198  13.995  23.340  1.00  0.00     0.210 HD
ENDBRANCH   5  35
BRANCH   4  37
HETATM   37  N2  UNL     1      16.818  15.658  26.012  1.00  0.00    -0.361 N
ATOM     38  H2  UNL     1      17.668  15.513  26.558  1.00  0.00     0.162 HD
BRANCH  37  39
HETATM   39  C10 UNL     1      16.831  16.664  25.025  1.00  0.00     0.348 C
HETATM   40  O3  UNL     1      17.242  16.463  23.858  1.00  0.00    -0.284 OA
ENDBRANCH  37  39
ENDBRANCH   4  37
TORSDOF 12
ENDMDL