MODEL 1
REMARK VINA RESULT: -7.803570926      0.000      0.000
REMARK  8 active torsions:
REMARK  status: ('A' for Active; 'I' for Inactive)
REMARK    1  A    between atoms: N1_1  and  N2_4
REMARK       I    between atoms: N2_4  and  C1_6
REMARK    2  A    between atoms: C1_6  and  C2_8
REMARK    3  A    between atoms: C5_21  and  N5_22
REMARK       I    between atoms: N5_22  and  C6_24
REMARK       I    between atoms: C6_24  and  N6_26
REMARK    4  A    between atoms: N6_26  and  C7_28
REMARK    5  A    between atoms: C7_28  and  C8_29
REMARK    6  A    between atoms: C8_29  and  C9_30
REMARK    7  A    between atoms: C9_30  and  C10_31
REMARK    8  A    between atoms: C10_31  and  C11_32
ROOT
HETATM    1  C2  UNL     1      11.809  12.886  26.824  1.00  0.00     0.265 A
HETATM    2  N3  UNL     1      11.524  13.765  25.656  1.00  0.00    -0.260 N
ATOM      3  H3  UNL     1      10.590  14.005  25.322  1.00  0.00     0.177 HD
HETATM    4  S1  UNL     1      12.987  14.315  24.955  1.00  0.00     0.359 S
HETATM    5  O2  UNL     1      14.201  13.749  25.626  1.00  0.00    -0.176 OA
HETATM    6  O3  UNL     1      13.000  13.909  23.509  1.00  0.00    -0.176 OA
HETATM    7  O4  UNL     1      13.074  16.003  25.011  1.00  0.00    -0.257 OA
HETATM    8  C3  UNL     1      14.204  16.383  25.759  1.00  0.00     0.219 C
HETATM    9  C4  UNL     1      14.051  16.000  27.218  1.00  0.00     0.214 C
HETATM   10  O5  UNL     1      12.776  15.639  27.565  1.00  0.00    -0.307 OA
HETATM   11  S2  UNL     1      13.006  13.616  28.002  1.00  0.00     0.059 SA
HETATM   12  N4  UNL     1      11.115  13.210  28.863  1.00  0.00    -0.301 N
ATOM     13  H4  UNL     1      10.684  13.313  29.781  1.00  0.00     0.176 HD
HETATM   14  C5  UNL     1      10.764  12.789  27.740  1.00  0.00     0.145 A
ENDROOT
BRANCH  14  15
HETATM   15  N5  UNL     1       9.377  12.285  27.563  1.00  0.00    -0.294 N
HETATM   16  C6  UNL     1       8.968  11.008  27.888  1.00  0.00     0.321 C
HETATM   17  O6  UNL     1       9.632  10.056  28.359  1.00  0.00    -0.247 OA
HETATM   18  N6  UNL     1       7.566  10.639  27.681  1.00  0.00    -0.343 N
ATOM     19  H6  UNL     1       6.923  11.332  27.299  1.00  0.00     0.164 HD
ATOM     20  H5  UNL     1       8.683  12.924  27.175  1.00  0.00     0.172 HD
BRANCH  18  21
HETATM   21  C7  UNL     1       7.071   9.338  27.999  1.00  0.00     0.124 C
BRANCH  21  22
HETATM   22  C8  UNL     1       7.315   8.362  26.853  1.00  0.00     0.020 C
BRANCH  22  23
HETATM   23  C9  UNL     1       8.107   7.182  27.276  1.00  0.00     0.004 C
BRANCH  23  24
HETATM   24  C10 UNL     1       8.862   6.498  26.228  1.00  0.00     0.033 C
BRANCH  24  25
HETATM   25  C11 UNL     1       9.271   5.123  26.270  1.00  0.00     0.186 C
HETATM   26  C12 UNL     1       8.883   4.150  25.195  1.00  0.00     0.034 C
HETATM   27  C13 UNL     1       9.373   2.863  25.942  1.00  0.00     0.029 C
HETATM   28  C14 UNL     1      10.595   3.377  26.703  1.00  0.00     0.233 C
HETATM   29  N7  UNL     1      10.689   4.808  26.357  1.00  0.00    -0.071 N
ATOM     30  H72 UNL     1      11.252   5.036  25.537  1.00  0.00     0.277 HD
ATOM     31  H71 UNL     1      11.240   5.388  26.990  1.00  0.00     0.277 HD
ENDBRANCH  24  25
ENDBRANCH  23  24
ENDBRANCH  22  23
ENDBRANCH  21  22
ENDBRANCH  18  21
ENDBRANCH  14  15
BRANCH   1  32
HETATM   32  C1  UNL     1      12.323  11.562  26.259  1.00  0.00     0.286 C
HETATM   33  N2  UNL     1      11.614  10.989  25.185  1.00  0.00    -0.273 N
ATOM     34  H2  UNL     1      10.793  11.483  24.835  1.00  0.00     0.189 HD
HETATM   35  O1  UNL     1      13.324  11.025  26.736  1.00  0.00    -0.267 OA
BRANCH  33  36
HETATM   36  N1  UNL     1      11.965   9.792  24.573  1.00  0.00    -0.343 N
ATOM     37  H12 UNL     1      12.949   9.665  24.338  1.00  0.00     0.176 HD
ATOM     38  H11 UNL     1      11.302   9.050  24.351  1.00  0.00     0.176 HD
ENDBRANCH  33  36
ENDBRANCH   1  32
TORSDOF 8
ENDMDL