MODEL 2
REMARK VINA RESULT: -6.707065126      3.974      6.838
REMARK  12 active torsions:
REMARK  status: ('A' for Active; 'I' for Inactive)
REMARK    1  A    between atoms: N1_1  and  N2_4
REMARK    2  A    between atoms: N2_4  and  N3_5
REMARK    3  A    between atoms: N3_5  and  C1_7
REMARK    4  A    between atoms: C1_7  and  C2_8
REMARK    5  A    between atoms: C3_10  and  O2_11
REMARK    6  A    between atoms: O2_11  and  C4_12
REMARK    7  A    between atoms: C5_15  and  C6_16
REMARK    8  A    between atoms: C8_20  and  N4_21
REMARK    9  A    between atoms: C9_25  and  N5_26
REMARK       I    between atoms: N5_26  and  C10_28
REMARK   10  A    between atoms: C10_28  and  C11_30
REMARK   11  A    between atoms: C17_36  and  O8_37
REMARK   12  A    between atoms: C18_39  and  O9_40
ROOT
HETATM    1  C2  UNL     1      12.063  13.566  26.358  1.00  0.00     0.176 C
HETATM    2  O1  UNL     1      11.148  12.672  26.846  1.00  0.00    -0.349 OA
HETATM    3  C3  UNL     1      10.202  13.262  27.700  1.00  0.00     0.289 C
HETATM    4  C9  UNL     1      10.949  13.690  28.935  1.00  0.00     0.171 C
HETATM    5  C17 UNL     1      11.984  14.719  28.486  1.00  0.00     0.177 C
HETATM    6  C18 UNL     1      12.916  14.016  27.526  1.00  0.00     0.179 C
ENDROOT
BRANCH   3   7
HETATM    7  O2  UNL     1       9.238  12.296  27.927  1.00  0.00    -0.324 OA
BRANCH   7   8
HETATM    8  C4  UNL     1       8.197  12.331  27.011  1.00  0.00     0.330 C
HETATM    9  O3  UNL     1       6.955  12.282  27.591  1.00  0.00    -0.205 OA
HETATM   10  O4  UNL     1       6.691  11.170  28.204  1.00  0.00    -0.222 OA
HETATM   11  C5  UNL     1       6.662  10.065  27.392  1.00  0.00     0.263 C
HETATM   12  C7  UNL     1       6.921  10.554  25.962  1.00  0.00     0.084 C
HETATM   13  C8  UNL     1       8.283  11.218  25.993  1.00  0.00     0.244 C
BRANCH  11  14
HETATM   14  C6  UNL     1       5.403   9.299  27.479  1.00  0.00     0.206 C
HETATM   15  O5  UNL     1       5.195   8.408  26.618  1.00  0.00    -0.646 OA
HETATM   16  O6  UNL     1       4.478   9.541  28.466  1.00  0.00    -0.646 OA
ENDBRANCH  11  14
BRANCH  13  17
HETATM   17  N4  UNL     1       9.261  10.256  26.447  1.00  0.00    -0.070 N
ATOM     18  H43 UNL     1      10.001  10.682  27.003  1.00  0.00     0.274 HD
ATOM     19  H42 UNL     1       8.892   9.630  27.163  1.00  0.00     0.274 HD
ATOM     20  H41 UNL     1       9.620   9.752  25.636  1.00  0.00     0.274 HD
ENDBRANCH  13  17
ENDBRANCH   7   8
ENDBRANCH   3   7
BRANCH   4  21
HETATM   21  N5  UNL     1      10.113  14.206  29.984  1.00  0.00    -0.349 N
HETATM   22  C10 UNL     1       9.859  13.486  31.182  1.00  0.00     0.222 C
HETATM   23  O7  UNL     1      10.392  12.357  31.309  1.00  0.00    -0.273 OA
ATOM     24  H5  UNL     1       9.686  15.124  29.864  1.00  0.00     0.163 HD
BRANCH  22  25
HETATM   25  C11 UNL     1       8.998  14.053  32.228  1.00  0.00     0.078 C
HETATM   26  C12 UNL     1       7.888  13.042  32.515  1.00  0.00     0.014 C
HETATM   27  C13 UNL     1       7.255  13.410  33.839  1.00  0.00     0.001 C
HETATM   28  C14 UNL     1       7.388  14.891  34.035  1.00  0.00     0.000 C
HETATM   29  C15 UNL     1       8.831  15.293  34.313  1.00  0.00     0.001 C
HETATM   30  C16 UNL     1       9.723  14.387  33.489  1.00  0.00     0.014 C
ENDBRANCH  22  25
ENDBRANCH   4  21
BRANCH   1  31
HETATM   31  C1  UNL     1      12.900  12.858  25.315  1.00  0.00     0.190 C
BRANCH  31  32
HETATM   32  N3  UNL     1      13.261  13.810  24.300  1.00  0.00    -0.250 N
ATOM     33  H3  UNL     1      13.655  14.714  24.564  1.00  0.00     0.197 HD
BRANCH  32  34
HETATM   34  N2  UNL     1      13.096  13.536  23.117  1.00  0.00    -0.248 NA
BRANCH  34  35
HETATM   35  N1  UNL     1      13.113  13.124  21.969  1.00  0.00    -0.261 N
ATOM     36  H12 UNL     1      14.130  13.208  21.964  1.00  0.00     0.193 HD
ATOM     37  H11 UNL     1      12.936  12.771  21.028  1.00  0.00     0.193 HD
ENDBRANCH  34  35
ENDBRANCH  32  34
ENDBRANCH  31  32
ENDBRANCH   1  31
BRANCH   5  38
HETATM   38  O8  UNL     1      12.715  15.213  29.543  1.00  0.00    -0.391 OA
ATOM     39  H8  UNL     1      13.069  16.076  29.361  1.00  0.00     0.210 HD
ENDBRANCH   5  38
BRANCH   6  40
HETATM   40  O9  UNL     1      13.969  14.820  27.124  1.00  0.00    -0.390 OA
ATOM     41  H9  UNL     1      13.877  15.714  27.433  1.00  0.00     0.210 HD
ENDBRANCH   6  40
TORSDOF 12
ENDMDL