MODEL 4
REMARK VINA RESULT: -6.166396559      4.865      8.979
REMARK  12 active torsions:
REMARK  status: ('A' for Active; 'I' for Inactive)
REMARK    1  A    between atoms: N1_2  and  C2_4
REMARK    2  A    between atoms: C2_4  and  C3_5
REMARK    3  A    between atoms: C6_9  and  O2_10
REMARK    4  A    between atoms: O2_10  and  C7_11
REMARK    5  A    between atoms: C9_13  and  O3_14
REMARK    6  A    between atoms: O3_14  and  C10_15
REMARK    7  A    between atoms: C10_15  and  C11_16
REMARK    8  A    between atoms: C15_22  and  O6_23
REMARK    9  A    between atoms: C17_25  and  N2_26
REMARK   10  A    between atoms: C19_31  and  N3_32
REMARK   11  A    between atoms: C20_36  and  O7_37
REMARK   12  A    between atoms: C21_39  and  O8_40
ROOT
HETATM    1  C7  UNL     1       7.612  10.740  27.695  1.00  0.00     0.157 C
HETATM    2  C8  UNL     1       8.689   9.685  27.797  1.00  0.00     0.068 C
HETATM    3  C9  UNL     1       8.259   8.359  27.217  1.00  0.00     0.156 C
HETATM    4  C17 UNL     1       6.744   8.246  27.130  1.00  0.00     0.214 C
HETATM    5  C18 UNL     1       6.081   9.370  26.415  1.00  0.00     0.070 C
HETATM    6  C19 UNL     1       6.986  10.559  26.304  1.00  0.00     0.214 C
ENDROOT
BRANCH   1   7
HETATM    7  O2  UNL     1       8.095  12.010  27.870  1.00  0.00    -0.351 OA
BRANCH   7   8
HETATM    8  C6  UNL     1       9.477  11.980  27.576  1.00  0.00     0.291 C
HETATM    9  O1  UNL     1      10.112  12.579  28.635  1.00  0.00    -0.353 OA
HETATM   10  C4  UNL     1      11.527  12.547  28.523  1.00  0.00     0.132 C
HETATM   11  C3  UNL     1      11.969  13.281  27.313  1.00  0.00     0.084 C
HETATM   12  C5  UNL     1      12.006  11.116  28.601  1.00  0.00     0.040 C
HETATM   13  C21 UNL     1      11.224  12.801  26.054  1.00  0.00     0.163 C
HETATM   14  C20 UNL     1       9.738  12.784  26.321  1.00  0.00     0.202 C
BRANCH  11  15
HETATM   15  C2  UNL     1      13.417  13.351  27.058  1.00  0.00     0.065 C
BRANCH  15  16
HETATM   16  N1  UNL     1      13.912  13.749  25.808  1.00  0.00    -0.406 N
HETATM   17  C1  UNL     1      14.822  14.813  25.660  1.00  0.00     0.145 C
ATOM     18  H1  UNL     1      13.601  13.249  24.975  1.00  0.00     0.158 HD
ENDBRANCH  15  16
ENDBRANCH  11  15
BRANCH  13  19
HETATM   19  O8  UNL     1      11.703  11.591  25.621  1.00  0.00    -0.392 OA
ATOM     20  H8  UNL     1      12.129  11.115  26.325  1.00  0.00     0.210 HD
ENDBRANCH  13  19
BRANCH  14  21
HETATM   21  O7  UNL     1       9.322  14.097  26.532  1.00  0.00    -0.388 OA
ATOM     22  H7  UNL     1       9.879  14.681  26.031  1.00  0.00     0.210 HD
ENDBRANCH  14  21
ENDBRANCH   7   8
ENDBRANCH   1   7
BRANCH   6  23
HETATM   23  N3  UNL     1       6.342  11.751  25.847  1.00  0.00    -0.072 N
ATOM     24  H33 UNL     1       5.392  11.559  25.530  1.00  0.00     0.274 HD
ATOM     25  H32 UNL     1       6.130  12.377  26.623  1.00  0.00     0.274 HD
ATOM     26  H31 UNL     1       6.885  12.226  25.126  1.00  0.00     0.274 HD
ENDBRANCH   6  23
BRANCH   3  27
HETATM   27  O3  UNL     1       8.673   7.371  28.052  1.00  0.00    -0.359 OA
BRANCH  27  28
HETATM   28  C10 UNL     1       9.650   6.510  27.612  1.00  0.00     0.174 C
HETATM   29  C12 UNL     1      10.450   7.080  26.472  1.00  0.00     0.052 C
HETATM   30  C13 UNL     1      11.637   6.164  26.394  1.00  0.00     0.006 C
HETATM   31  C14 UNL     1      11.791   5.543  27.757  1.00  0.00     0.036 C
HETATM   32  C15 UNL     1      10.665   6.118  28.609  1.00  0.00     0.166 C
BRANCH  28  33
HETATM   33  C11 UNL     1       8.974   5.278  27.136  1.00  0.00     0.212 C
HETATM   34  O4  UNL     1       8.685   4.291  27.856  1.00  0.00    -0.646 OA
HETATM   35  O5  UNL     1       8.623   5.191  25.782  1.00  0.00    -0.646 OA
ENDBRANCH  28  33
BRANCH  32  36
HETATM   36  O6  UNL     1      10.243   5.081  29.445  1.00  0.00    -0.387 OA
HETATM   37  C16 UNL     1      10.334   5.467  30.767  1.00  0.00     0.202 C
ENDBRANCH  32  36
ENDBRANCH  27  28
ENDBRANCH   3  27
BRANCH   4  38
HETATM   38  N2  UNL     1       6.223   7.972  28.444  1.00  0.00    -0.072 N
ATOM     39  H23 UNL     1       6.180   8.807  29.028  1.00  0.00     0.274 HD
ATOM     40  H22 UNL     1       5.226   7.756  28.431  1.00  0.00     0.274 HD
ATOM     41  H21 UNL     1       6.777   7.227  28.868  1.00  0.00     0.274 HD
ENDBRANCH   4  38
TORSDOF 12
ENDMDL