MODEL 4
REMARK VINA RESULT: -6.165464085      2.008      4.709
REMARK  12 active torsions:
REMARK  status: ('A' for Active; 'I' for Inactive)
REMARK    1  A    between atoms: C2_2  and  N1_4
REMARK    2  A    between atoms: N1_4  and  C4_6
REMARK    3  A    between atoms: C8_10  and  O1_11
REMARK    4  A    between atoms: O1_11  and  C9_12
REMARK    5  A    between atoms: C12_16  and  O3_17
REMARK    6  A    between atoms: C13_19  and  O4_20
REMARK    7  A    between atoms: C14_22  and  N2_23
REMARK    8  A    between atoms: C15_27  and  O5_28
REMARK    9  A    between atoms: O5_28  and  C16_29
REMARK   10  A    between atoms: C19_32  and  C20_33
REMARK   11  A    between atoms: C20_33  and  N3_34
REMARK   12  A    between atoms: C21_39  and  O7_40
ROOT
HETATM    1  C4  UNL     1      11.269   7.474  29.170  1.00  0.00     0.108 C
HETATM    2  C5  UNL     1      12.286   7.916  28.178  1.00  0.00     0.034 C
HETATM    3  C6  UNL     1      11.691   8.397  26.871  1.00  0.00     0.015 C
HETATM    4  C7  UNL     1      11.117   7.230  26.093  1.00  0.00     0.012 C
HETATM    5  C8  UNL     1      10.704   9.513  27.038  1.00  0.00     0.160 C
HETATM    6  C15 UNL     1       9.899   9.421  28.314  1.00  0.00     0.184 C
HETATM    7  C21 UNL     1       9.893   8.013  28.882  1.00  0.00     0.172 C
ENDROOT
BRANCH   5   8
HETATM    8  O1  UNL     1      11.413  10.732  26.987  1.00  0.00    -0.351 OA
BRANCH   8   9
HETATM    9  C9  UNL     1      11.335  11.333  25.758  1.00  0.00     0.293 C
HETATM   10  O2  UNL     1      10.494  12.399  25.655  1.00  0.00    -0.351 OA
HETATM   11  C10 UNL     1      10.815  13.543  26.311  1.00  0.00     0.152 C
HETATM   12  C11 UNL     1      10.120  13.610  27.682  1.00  0.00     0.042 C
HETATM   13  C12 UNL     1      12.250  13.902  26.412  1.00  0.00     0.177 C
HETATM   14  C13 UNL     1      13.235  12.887  25.999  1.00  0.00     0.184 C
HETATM   15  C14 UNL     1      12.677  11.742  25.200  1.00  0.00     0.269 C
BRANCH  13  16
HETATM   16  O3  UNL     1      12.560  15.105  25.732  1.00  0.00    -0.390 OA
ATOM     17  H3  UNL     1      13.373  15.495  26.031  1.00  0.00     0.210 HD
ENDBRANCH  13  16
BRANCH  14  18
HETATM   18  O4  UNL     1      14.277  13.442  25.238  1.00  0.00    -0.391 OA
ATOM     19  H4  UNL     1      14.760  14.102  25.720  1.00  0.00     0.210 HD
ENDBRANCH  14  18
BRANCH  15  20
HETATM   20  N2  UNL     1      12.442  12.228  23.848  1.00  0.00    -0.068 N
ATOM     21  H23 UNL     1      13.231  12.069  23.221  1.00  0.00     0.275 HD
ATOM     22  H22 UNL     1      11.757  11.672  23.335  1.00  0.00     0.275 HD
ATOM     23  H21 UNL     1      12.183  13.211  23.927  1.00  0.00     0.275 HD
ENDBRANCH  15  20
ENDBRANCH   8   9
ENDBRANCH   5   8
BRANCH   6  24
HETATM   24  O5  UNL     1       8.564   9.716  28.091  1.00  0.00    -0.351 OA
BRANCH  24  25
HETATM   25  C16 UNL     1       8.127   9.612  26.819  1.00  0.00     0.261 C
HETATM   26  C17 UNL     1       7.350  10.754  26.273  1.00  0.00     0.063 C
HETATM   27  C18 UNL     1       5.928  10.404  26.614  1.00  0.00     0.038 C
HETATM   28  C19 UNL     1       5.996   8.928  26.820  1.00  0.00     0.150 C
HETATM   29  O6  UNL     1       7.277   8.485  26.763  1.00  0.00    -0.354 OA
BRANCH  28  30
HETATM   30  C20 UNL     1       5.359   8.643  28.189  1.00  0.00     0.261 C
BRANCH  30  31
HETATM   31  N3  UNL     1       6.252   7.827  28.978  1.00  0.00    -0.077 N
ATOM     32  H33 UNL     1       6.694   7.094  28.423  1.00  0.00     0.274 HD
ATOM     33  H32 UNL     1       7.095   8.333  29.252  1.00  0.00     0.274 HD
ATOM     34  H31 UNL     1       5.750   7.451  29.783  1.00  0.00     0.274 HD
ENDBRANCH  30  31
ENDBRANCH  28  30
ENDBRANCH  24  25
ENDBRANCH   6  24
BRANCH   7  35
HETATM   35  O7  UNL     1       9.208   8.039  30.095  1.00  0.00    -0.391 OA
ATOM     36  H7  UNL     1       8.353   7.656  29.936  1.00  0.00     0.210 HD
ENDBRANCH   7  35
BRANCH   1  37
HETATM   37  N1  UNL     1      11.123   6.038  29.296  1.00  0.00    -0.411 N
ATOM     38  H1  UNL     1      10.251   5.602  29.597  1.00  0.00     0.154 HD
BRANCH  37  39
HETATM   39  C2  UNL     1      12.283   5.279  28.971  1.00  0.00     0.068 C
HETATM   40  C1  UNL     1      12.756   4.554  30.238  1.00  0.00     0.031 C
HETATM   41  C3  UNL     1      11.845   4.153  28.028  1.00  0.00     0.031 C
ENDBRANCH  37  39
ENDBRANCH   1  37
TORSDOF 12
ENDMDL