MODEL 3
REMARK VINA RESULT: -7.577541677      1.515      2.161
REMARK  14 active torsions:
REMARK  status: ('A' for Active; 'I' for Inactive)
REMARK    1  A    between atoms: C1_2  and  O2_3
REMARK    2  A    between atoms: C1_2  and  C9_20
REMARK    3  A    between atoms: O2_3  and  C2_4
REMARK    4  A    between atoms: C2_4  and  C3_5
REMARK    5  A    between atoms: C4_7  and  C5_8
REMARK    6  A    between atoms: C5_8  and  O4_9
REMARK    7  A    between atoms: C6_11  and  O5_12
REMARK    8  A    between atoms: C7_14  and  O6_15
REMARK    9  A    between atoms: C8_17  and  O7_18
REMARK   10  A    between atoms: C9_20  and  N1_21
REMARK   11  A    between atoms: C9_20  and  C17_33
REMARK   12  A    between atoms: N1_21  and  C10_23
REMARK   13  A    between atoms: C10_23  and  N2_25
REMARK   14  A    between atoms: N2_25  and  C11_27
ROOT
HETATM    1  O1  UNL     1       7.379  11.396  29.030  1.00  0.00    -0.263 OA
HETATM    2  C1  UNL     1       8.099  11.324  28.009  1.00  0.00     0.284 C
ENDROOT
BRANCH   2   3
HETATM    3  O2  UNL     1       9.066  12.273  27.724  1.00  0.00    -0.317 OA
BRANCH   3   4
HETATM    4  C2  UNL     1       9.542  12.324  26.383  1.00  0.00     0.213 C
BRANCH   4   5
HETATM    5  C3  UNL     1      10.721  13.267  26.257  1.00  0.00     0.177 C
HETATM    6  O3  UNL     1      11.440  12.891  25.133  1.00  0.00    -0.371 OA
HETATM    7  C4  UNL     1      12.515  13.722  24.874  1.00  0.00     0.177 C
HETATM    8  C6  UNL     1      13.212  14.222  26.095  1.00  0.00     0.180 C
HETATM    9  C7  UNL     1      13.013  13.265  27.230  1.00  0.00     0.180 C
HETATM   10  C8  UNL     1      11.532  13.165  27.522  1.00  0.00     0.180 C
BRANCH   7  11
HETATM   11  C5  UNL     1      13.506  12.953  24.026  1.00  0.00     0.198 C
BRANCH  11  12
HETATM   12  O4  UNL     1      13.340  13.274  22.657  1.00  0.00    -0.398 OA
ATOM     13  H4  UNL     1      14.157  13.156  22.187  1.00  0.00     0.209 HD
ENDBRANCH  11  12
ENDBRANCH   7  11
BRANCH   8  14
HETATM   14  O5  UNL     1      12.713  15.468  26.517  1.00  0.00    -0.390 OA
ATOM     15  H5  UNL     1      12.458  16.018  25.786  1.00  0.00     0.210 HD
ENDBRANCH   8  14
BRANCH   9  16
HETATM   16  O6  UNL     1      13.492  11.992  26.952  1.00  0.00    -0.390 OA
ATOM     17  H6  UNL     1      13.401  11.396  27.685  1.00  0.00     0.210 HD
ENDBRANCH   9  16
BRANCH  10  18
HETATM   18  O7  UNL     1      11.208  14.195  28.405  1.00  0.00    -0.390 OA
ATOM     19  H7  UNL     1      11.912  14.346  29.024  1.00  0.00     0.210 HD
ENDBRANCH  10  18
ENDBRANCH   4   5
ENDBRANCH   3   4
ENDBRANCH   2   3
BRANCH   2  20
HETATM   20  C9  UNL     1       7.870  10.145  27.093  1.00  0.00     0.218 C
BRANCH  20  21
HETATM   21  N1  UNL     1       8.548   8.985  27.616  1.00  0.00    -0.351 N
ATOM     22  H1  UNL     1       8.102   8.511  28.401  1.00  0.00     0.163 HD
BRANCH  21  23
HETATM   23  C10 UNL     1       9.762   8.435  27.155  1.00  0.00     0.168 C
HETATM   24  S1  UNL     1      11.180   9.094  27.591  1.00  0.00    -0.041 SA
BRANCH  23  25
HETATM   25  N2  UNL     1       9.749   7.286  26.342  1.00  0.00    -0.363 N
ATOM     26  H2  UNL     1       9.619   7.453  25.344  1.00  0.00     0.162 HD
BRANCH  25  27
HETATM   27  C11 UNL     1       9.893   5.925  26.722  1.00  0.00     0.083 C
HETATM   28  C12 UNL     1       8.983   5.032  25.920  1.00  0.00     0.025 C
HETATM   29  C13 UNL     1       9.015   3.603  26.456  1.00  0.00     0.002 C
HETATM   30  C14 UNL     1      10.448   3.129  26.196  1.00  0.00     0.000 C
HETATM   31  C15 UNL     1      11.356   3.924  27.068  1.00  0.00     0.002 C
HETATM   32  C16 UNL     1      11.299   5.408  26.797  1.00  0.00     0.025 C
ENDBRANCH  25  27
ENDBRANCH  23  25
ENDBRANCH  21  23
ENDBRANCH  20  21
BRANCH  20  33
HETATM   33  C17 UNL     1       6.357   9.965  27.007  1.00  0.00     0.219 C
HETATM   34  C18 UNL     1       5.911   8.562  27.384  1.00  0.00     0.247 C
HETATM   35  O8  UNL     1       5.239   8.697  26.168  1.00  0.00    -0.238 OA
HETATM   36  O9  UNL     1       5.812   9.812  25.781  1.00  0.00    -0.231 OA
ENDBRANCH  20  33
ENDBRANCH   2  20
TORSDOF 14
ENDMDL