MODEL 4
REMARK VINA RESULT: -7.605075340      3.773      7.018
REMARK  12 active torsions:
REMARK  status: ('A' for Active; 'I' for Inactive)
REMARK    1  A    between atoms: C1_2  and  C2_4
REMARK    2  A    between atoms: C3_6  and  S1_7
REMARK    3  A    between atoms: S1_7  and  C4_8
REMARK    4  A    between atoms: C5_9  and  C6_10
REMARK    5  A    between atoms: C6_10  and  N2_11
REMARK    6  A    between atoms: N2_11  and  C7_13
REMARK    7  A    between atoms: C7_13  and  C8_14
REMARK    8  A    between atoms: C14_21  and  C15_22
REMARK    9  A    between atoms: C15_22  and  O4_23
REMARK   10  A    between atoms: C16_25  and  O5_26
REMARK   11  A    between atoms: C18_30  and  O7_31
REMARK   12  A    between atoms: C20_34  and  O8_35
ROOT
HETATM    1  C4  UNL     1       7.492   8.721  29.111  1.00  0.00     0.114 C
HETATM    2  C5  UNL     1       8.298   9.730  28.366  1.00  0.00     0.156 C
HETATM    3  O3  UNL     1       7.435  10.466  27.622  1.00  0.00    -0.373 OA
HETATM    4  C14 UNL     1       6.157  10.004  27.698  1.00  0.00     0.175 C
HETATM    5  C16 UNL     1       6.070   9.052  28.837  1.00  0.00     0.165 C
ENDROOT
BRANCH   1   6
HETATM    6  S1  UNL     1       7.855   8.648  30.887  1.00  0.00    -0.100 SA
BRANCH   6   7
HETATM    7  C3  UNL     1       7.735   6.922  31.405  1.00  0.00     0.328 C
HETATM    8  O2  UNL     1       6.565   6.426  30.805  1.00  0.00    -0.326 OA
HETATM    9  C2  UNL     1       5.848   5.747  31.755  1.00  0.00     0.196 C
HETATM   10  C17 UNL     1       6.883   5.552  32.839  1.00  0.00     0.200 C
HETATM   11  C20 UNL     1       4.811   6.586  32.466  1.00  0.00     0.167 C
HETATM   12  O6  UNL     1       7.515   6.813  32.782  1.00  0.00    -0.341 OA
HETATM   13  C18 UNL     1       6.128   5.385  34.125  1.00  0.00     0.153 C
HETATM   14  C19 UNL     1       4.829   6.100  33.912  1.00  0.00     0.069 C
BRANCH   9  15
HETATM   15  C1  UNL     1       5.322   4.514  31.184  1.00  0.00     0.271 C
HETATM   16  N1  UNL     1       4.056   4.506  30.550  1.00  0.00    -0.059 NA
HETATM   17  O1  UNL     1       5.957   3.433  31.234  1.00  0.00    -0.273 OA
ENDBRANCH   9  15
BRANCH  13  18
HETATM   18  O7  UNL     1       5.916   4.050  34.385  1.00  0.00    -0.393 OA
ATOM     19  H7  UNL     1       5.452   3.642  33.664  1.00  0.00     0.210 HD
ENDBRANCH  13  18
BRANCH  11  20
HETATM   20  O8  UNL     1       5.219   7.926  32.473  1.00  0.00    -0.392 OA
ATOM     21  H8  UNL     1       4.665   8.429  31.887  1.00  0.00     0.210 HD
ENDBRANCH  11  20
ENDBRANCH   6   7
ENDBRANCH   1   6
BRANCH   2  22
HETATM   22  C6  UNL     1       9.350   8.997  27.568  1.00  0.00     0.152 C
BRANCH  22  23
HETATM   23  N2  UNL     1       9.098   7.646  27.226  1.00  0.00    -0.396 N
ATOM     24  H2  UNL     1       8.287   7.359  26.678  1.00  0.00     0.159 HD
BRANCH  23  25
HETATM   25  C7  UNL     1      10.056   6.733  27.702  1.00  0.00     0.094 C
BRANCH  25  26
HETATM   26  C8  UNL     1       9.980   5.397  27.037  1.00  0.00    -0.021 A
HETATM   27  C9  UNL     1       9.044   5.175  26.056  1.00  0.00     0.013 A
HETATM   28  C10 UNL     1       8.938   3.943  25.412  1.00  0.00     0.001 A
HETATM   29  C11 UNL     1       9.780   2.919  25.755  1.00  0.00     0.000 A
HETATM   30  C12 UNL     1      10.718   3.135  26.736  1.00  0.00     0.001 A
HETATM   31  C13 UNL     1      10.828   4.372  27.386  1.00  0.00     0.013 A
ENDBRANCH  25  26
ENDBRANCH  23  25
ENDBRANCH  22  23
ENDBRANCH   2  22
BRANCH   5  32
HETATM   32  O5  UNL     1       5.414   9.587  29.945  1.00  0.00    -0.392 OA
ATOM     33  H5  UNL     1       4.703  10.169  29.707  1.00  0.00     0.210 HD
ENDBRANCH   5  32
BRANCH   4  34
HETATM   34  C15 UNL     1       5.815   9.307  26.387  1.00  0.00     0.198 C
BRANCH  34  35
HETATM   35  O4  UNL     1       5.237   8.061  26.616  1.00  0.00    -0.398 OA
ATOM     36  H4  UNL     1       4.299   8.137  26.751  1.00  0.00     0.209 HD
ENDBRANCH  34  35
ENDBRANCH   4  34
TORSDOF 12
ENDMDL