MODEL 3
REMARK VINA RESULT: -7.127813248      2.688      6.112
REMARK  13 active torsions:
REMARK  status: ('A' for Active; 'I' for Inactive)
REMARK    1  A    between atoms: C3_4  and  C4_5
REMARK    2  A    between atoms: C4_5  and  C5_6
REMARK    3  A    between atoms: C5_6  and  O2_7
REMARK    4  A    between atoms: O2_7  and  C6_8
REMARK    5  A    between atoms: C7_9  and  O3_10
REMARK    6  A    between atoms: O3_10  and  C8_11
REMARK    7  A    between atoms: C14_17  and  O4_18
REMARK    8  A    between atoms: C15_20  and  O5_21
REMARK    9  A    between atoms: C16_23  and  O6_24
REMARK   10  A    between atoms: C17_26  and  C18_27
REMARK   11  A    between atoms: C19_30  and  O9_31
REMARK   12  A    between atoms: C20_33  and  O10_34
REMARK   13  A    between atoms: C21_36  and  O11_37
ROOT
HETATM    1  C6  UNL     1      11.231  11.919  27.330  1.00  0.00     0.169 C
HETATM    2  C7  UNL     1      12.030  10.916  26.544  1.00  0.00     0.183 C
HETATM    3  C14 UNL     1      12.364  11.422  25.160  1.00  0.00     0.180 C
HETATM    4  C15 UNL     1      11.785  12.730  24.783  1.00  0.00     0.179 C
HETATM    5  C16 UNL     1      11.715  13.774  25.842  1.00  0.00     0.166 C
HETATM    6  C17 UNL     1      11.936  13.270  27.231  1.00  0.00     0.149 C
ENDROOT
BRANCH   1   7
HETATM    7  O2  UNL     1      11.109  11.645  28.670  1.00  0.00    -0.382 OA
BRANCH   7   8
HETATM    8  C5  UNL     1       9.866  11.257  29.093  1.00  0.00     0.171 C
BRANCH   8   9
HETATM    9  C4  UNL     1       8.726  11.829  28.286  1.00  0.00     0.061 C
BRANCH   9  10
HETATM   10  C3  UNL     1       7.774  10.728  27.879  1.00  0.00     0.155 C
HETATM   11  O1  UNL     1       8.451   9.640  27.336  1.00  0.00    -0.376 OA
HETATM   12  C2  UNL     1       7.562   8.591  27.152  1.00  0.00     0.149 C
HETATM   13  C1  UNL     1       8.032   7.496  28.121  1.00  0.00     0.042 C
HETATM   14  C21 UNL     1       6.149   8.891  27.505  1.00  0.00     0.178 C
HETATM   15  C20 UNL     1       5.591  10.171  26.986  1.00  0.00     0.180 C
HETATM   16  C19 UNL     1       6.683  11.215  26.954  1.00  0.00     0.178 C
BRANCH  14  17
HETATM   17  O11 UNL     1       5.364   7.852  26.945  1.00  0.00    -0.390 OA
ATOM     18  H11 UNL     1       4.929   8.221  26.184  1.00  0.00     0.210 HD
ENDBRANCH  14  17
BRANCH  15  19
HETATM   19  O10 UNL     1       5.087  10.046  25.677  1.00  0.00    -0.390 OA
ATOM     20  H10 UNL     1       5.796   9.732  25.128  1.00  0.00     0.210 HD
ENDBRANCH  15  19
BRANCH  16  21
HETATM   21  O9  UNL     1       7.188  11.277  25.666  1.00  0.00    -0.390 OA
ATOM     22  H9  UNL     1       6.655  11.878  25.158  1.00  0.00     0.210 HD
ENDBRANCH  16  21
ENDBRANCH   9  10
ENDBRANCH   8   9
ENDBRANCH   7   8
ENDBRANCH   1   7
BRANCH   2  23
HETATM   23  O3  UNL     1      11.345   9.758  26.413  1.00  0.00    -0.375 OA
BRANCH  23  24
HETATM   24  C8  UNL     1      11.689   8.677  27.170  1.00  0.00     0.122 C
HETATM   25  C9  UNL     1      13.134   8.650  27.596  1.00  0.00     0.032 C
HETATM   26  C10 UNL     1      13.373   7.445  28.473  1.00  0.00     0.002 C
HETATM   27  C11 UNL     1      12.931   6.161  27.840  1.00  0.00     0.000 C
HETATM   28  C12 UNL     1      11.469   6.253  27.407  1.00  0.00     0.002 C
HETATM   29  C13 UNL     1      11.412   7.410  26.427  1.00  0.00     0.032 C
ENDBRANCH  23  24
ENDBRANCH   2  23
BRANCH   6  30
HETATM   30  C18 UNL     1      13.355  13.214  27.608  1.00  0.00     0.182 C
HETATM   31  O7  UNL     1      13.662  13.003  28.806  1.00  0.00    -0.648 OA
HETATM   32  O8  UNL     1      14.380  13.384  26.695  1.00  0.00    -0.648 OA
ENDBRANCH   6  30
BRANCH   3  33
HETATM   33  O4  UNL     1      11.900  10.488  24.201  1.00  0.00    -0.390 OA
ATOM     34  H4  UNL     1      12.606   9.890  23.984  1.00  0.00     0.210 HD
ENDBRANCH   3  33
BRANCH   5  35
HETATM   35  O6  UNL     1      12.540  14.873  25.601  1.00  0.00    -0.392 OA
ATOM     36  H6  UNL     1      12.064  15.684  25.464  1.00  0.00     0.210 HD
ENDBRANCH   5  35
BRANCH   4  37
HETATM   37  O5  UNL     1      12.596  13.269  23.752  1.00  0.00    -0.390 OA
ATOM     38  H5  UNL     1      12.125  14.004  23.377  1.00  0.00     0.210 HD
ENDBRANCH   4  37
TORSDOF 13
ENDMDL