MODEL 1
REMARK VINA RESULT: -8.019507814      0.000      0.000
REMARK  12 active torsions:
REMARK  status: ('A' for Active; 'I' for Inactive)
REMARK       I    between atoms: C1_2  and  N1_3
REMARK    1  A    between atoms: C1_2  and  O2_8
REMARK    2  A    between atoms: N1_3  and  C2_5
REMARK    3  A    between atoms: O2_8  and  C5_9
REMARK    4  A    between atoms: C5_9  and  C6_10
REMARK    5  A    between atoms: C14_18  and  C15_19
REMARK    6  A    between atoms: C16_20  and  O3_21
REMARK    7  A    between atoms: O3_21  and  C17_22
REMARK    8  A    between atoms: C18_24  and  C19_25
REMARK    9  A    between atoms: C19_25  and  O5_26
REMARK   10  A    between atoms: C20_28  and  O6_29
REMARK   11  A    between atoms: C21_31  and  O7_32
REMARK   12  A    between atoms: C22_36  and  O8_37
ROOT
HETATM    1  C6  UNL     1       6.973   9.249  27.809  1.00  0.00     0.035 C
HETATM    2  C7  UNL     1       7.285  10.198  26.716  1.00  0.00     0.021 C
HETATM    3  C8  UNL     1       8.712  10.635  26.659  1.00  0.00    -0.009 A
HETATM    4  C9  UNL     1       8.899  12.139  26.495  1.00  0.00     0.010 A
HETATM    5  C10 UNL     1       9.210  11.436  27.764  1.00  0.00    -0.010 A
HETATM    6  C11 UNL     1       8.324  11.703  28.906  1.00  0.00     0.006 C
HETATM    7  C12 UNL     1       7.995  10.469  29.764  1.00  0.00     0.012 C
HETATM    8  C13 UNL     1       6.793   9.871  29.169  1.00  0.00     0.050 C
HETATM    9  C14 UNL     1       6.203   8.695  29.927  1.00  0.00     0.014 C
HETATM   10  N2  UNL     1       5.450   8.038  28.929  1.00  0.00    -0.366 N
ATOM     11  H2  UNL     1       4.947   7.161  29.062  1.00  0.00     0.162 HD
HETATM   12  C22 UNL     1       5.497   8.807  27.654  1.00  0.00     0.229 C
ENDROOT
BRANCH   9  13
HETATM   13  C15 UNL     1       6.431   8.372  31.144  1.00  0.00     0.049 C
HETATM   14  C16 UNL     1       6.597   7.189  31.911  1.00  0.00     0.140 C
BRANCH  14  15
HETATM   15  O3  UNL     1       6.507   5.947  31.445  1.00  0.00    -0.330 OA
BRANCH  15  16
HETATM   16  C17 UNL     1       5.589   5.139  32.095  1.00  0.00     0.297 C
HETATM   17  O4  UNL     1       6.190   3.823  31.911  1.00  0.00    -0.348 OA
HETATM   18  C18 UNL     1       5.146   2.956  32.055  1.00  0.00     0.179 C
HETATM   19  C20 UNL     1       3.933   3.591  31.432  1.00  0.00     0.182 C
HETATM   20  C21 UNL     1       4.315   5.046  31.381  1.00  0.00     0.205 C
BRANCH  18  21
HETATM   21  C19 UNL     1       5.380   1.645  31.334  1.00  0.00     0.198 C
BRANCH  21  22
HETATM   22  O5  UNL     1       4.386   1.488  30.380  1.00  0.00    -0.398 OA
ATOM     23  H5  UNL     1       3.824   0.772  30.651  1.00  0.00     0.209 HD
ENDBRANCH  21  22
ENDBRANCH  18  21
BRANCH  19  24
HETATM   24  O6  UNL     1       2.798   3.447  32.232  1.00  0.00    -0.390 OA
ATOM     25  H6  UNL     1       2.240   4.215  32.200  1.00  0.00     0.210 HD
ENDBRANCH  19  24
BRANCH  20  26
HETATM   26  O7  UNL     1       4.426   5.449  30.047  1.00  0.00    -0.388 OA
ATOM     27  H7  UNL     1       3.745   6.064  29.800  1.00  0.00     0.210 HD
ENDBRANCH  20  26
ENDBRANCH  15  16
ENDBRANCH  14  15
ENDBRANCH   9  13
BRANCH   1  28
HETATM   28  C5  UNL     1       7.789   7.998  27.817  1.00  0.00     0.195 C
BRANCH  28  29
HETATM   29  O2  UNL     1       7.888   7.354  26.589  1.00  0.00    -0.303 OA
BRANCH  29  30
HETATM   30  C1  UNL     1       8.948   6.499  26.325  1.00  0.00     0.360 C
HETATM   31  O1  UNL     1      10.083   7.040  26.257  1.00  0.00    -0.239 OA
HETATM   32  N1  UNL     1       8.774   5.093  26.141  1.00  0.00    -0.332 N
ATOM     33  H1  UNL     1       7.852   4.661  26.198  1.00  0.00     0.165 HD
BRANCH  32  34
HETATM   34  C2  UNL     1       9.956   4.305  25.870  1.00  0.00     0.086 A
HETATM   35  C3  UNL     1       9.856   2.815  25.856  1.00  0.00     0.027 A
HETATM   36  C4  UNL     1      10.590   3.516  26.970  1.00  0.00     0.027 A
ENDBRANCH  32  34
ENDBRANCH  29  30
ENDBRANCH  28  29
ENDBRANCH   1  28
BRANCH  12  37
HETATM   37  O8  UNL     1       5.293   8.021  26.560  1.00  0.00    -0.376 OA
ATOM     38  H8  UNL     1       4.393   8.040  26.255  1.00  0.00     0.212 HD
ENDBRANCH  12  37
TORSDOF 12
ENDMDL