MODEL 3
REMARK VINA RESULT: -6.827721961      1.744      2.606
REMARK  12 active torsions:
REMARK  status: ('A' for Active; 'I' for Inactive)
REMARK    1  A    between atoms: C5_5  and  C6_6
REMARK    2  A    between atoms: C6_6  and  O1_7
REMARK    3  A    between atoms: O1_7  and  C7_8
REMARK    4  A    between atoms: C9_11  and  O3_12
REMARK    5  A    between atoms: C10_14  and  O4_15
REMARK    6  A    between atoms: C11_17  and  O5_18
REMARK    7  A    between atoms: C15_23  and  O6_24
REMARK    8  A    between atoms: O6_24  and  C16_25
REMARK    9  A    between atoms: C18_27  and  O7_28
REMARK   10  A    between atoms: C19_30  and  O8_31
REMARK   11  A    between atoms: C20_33  and  C21_34
REMARK   12  A    between atoms: C21_34  and  O9_35
ROOT
HETATM    1  C1  UNL     1      10.579  14.356  27.770  1.00  0.00     0.018 C
HETATM    2  C2  UNL     1      11.168  13.119  27.211  1.00  0.00    -0.014 C
HETATM    3  C3  UNL     1      11.188  11.939  28.144  1.00  0.00     0.012 C
HETATM    4  C4  UNL     1       9.916  11.184  27.923  1.00  0.00     0.008 C
HETATM    5  C5  UNL     1       9.176  11.999  26.853  1.00  0.00     0.014 C
HETATM    6  C12 UNL     1      10.309  12.521  26.066  1.00  0.00     0.002 C
HETATM    7  C13 UNL     1      11.297  11.481  25.576  1.00  0.00     0.008 C
HETATM    8  C14 UNL     1      12.677  12.002  25.820  1.00  0.00     0.033 C
HETATM    9  C15 UNL     1      12.546  13.283  26.619  1.00  0.00     0.133 C
ENDROOT
BRANCH   5  10
HETATM   10  C6  UNL     1       8.118  11.207  26.202  1.00  0.00     0.176 C
BRANCH  10  11
HETATM   11  O1  UNL     1       6.893  11.350  26.685  1.00  0.00    -0.358 OA
BRANCH  11  12
HETATM   12  C7  UNL     1       6.131  10.420  27.249  1.00  0.00     0.290 C
HETATM   13  O2  UNL     1       6.539  10.286  28.601  1.00  0.00    -0.356 OA
HETATM   14  C8  UNL     1       6.040   9.111  29.171  1.00  0.00     0.205 C
HETATM   15  C9  UNL     1       6.903   7.966  28.678  1.00  0.00     0.173 C
HETATM   16  C10 UNL     1       7.449   8.344  27.304  1.00  0.00     0.182 C
HETATM   17  C11 UNL     1       6.354   9.054  26.575  1.00  0.00     0.204 C
BRANCH  15  18
HETATM   18  O3  UNL     1       7.952   7.749  29.547  1.00  0.00    -0.391 OA
ATOM     19  H3  UNL     1       8.723   7.467  29.069  1.00  0.00     0.210 HD
ENDBRANCH  15  18
BRANCH  16  20
HETATM   20  O4  UNL     1       7.862   7.210  26.639  1.00  0.00    -0.390 OA
ATOM     21  H4  UNL     1       7.826   7.358  25.701  1.00  0.00     0.210 HD
ENDBRANCH  16  20
BRANCH  17  22
HETATM   22  O5  UNL     1       5.207   8.289  26.584  1.00  0.00    -0.388 OA
ATOM     23  H5  UNL     1       4.559   8.638  27.185  1.00  0.00     0.210 HD
ENDBRANCH  17  22
ENDBRANCH  11  12
ENDBRANCH  10  11
ENDBRANCH   5  10
BRANCH   9  24
HETATM   24  O6  UNL     1      13.430  13.346  27.676  1.00  0.00    -0.355 OA
BRANCH  24  25
HETATM   25  C16 UNL     1      14.273  14.443  27.645  1.00  0.00     0.263 C
HETATM   26  C17 UNL     1      14.220  15.203  26.348  1.00  0.00     0.095 C
HETATM   27  C18 UNL     1      13.527  16.544  26.515  1.00  0.00     0.154 C
HETATM   28  C19 UNL     1      14.330  17.345  27.521  1.00  0.00     0.178 C
HETATM   29  C20 UNL     1      14.532  16.474  28.730  1.00  0.00     0.179 C
HETATM   30  O10 UNL     1      13.822  15.297  28.652  1.00  0.00    -0.351 OA
BRANCH  27  31
HETATM   31  O7  UNL     1      13.584  17.223  25.312  1.00  0.00    -0.393 OA
ATOM     32  H7  UNL     1      14.216  17.928  25.391  1.00  0.00     0.210 HD
ENDBRANCH  27  31
BRANCH  28  33
HETATM   33  O8  UNL     1      13.670  18.526  27.804  1.00  0.00    -0.390 OA
ATOM     34  H8  UNL     1      12.916  18.613  27.234  1.00  0.00     0.210 HD
ENDBRANCH  28  33
BRANCH  29  35
HETATM   35  C21 UNL     1      14.126  17.169  30.015  1.00  0.00     0.198 C
BRANCH  35  36
HETATM   36  O9  UNL     1      12.765  17.065  30.265  1.00  0.00    -0.398 OA
ATOM     37  H9  UNL     1      12.351  17.913  30.373  1.00  0.00     0.209 HD
ENDBRANCH  35  36
ENDBRANCH  29  35
ENDBRANCH  24  25
ENDBRANCH   9  24
TORSDOF 12
ENDMDL