MODEL 4
REMARK VINA RESULT: -11.726229587      4.726      8.494
REMARK  5 active torsions:
REMARK  status: ('A' for Active; 'I' for Inactive)
REMARK    1  A    between atoms: C5_7  and  N2_8
REMARK       I    between atoms: N2_8  and  C6_10
REMARK    2  A    between atoms: C6_10  and  C7_12
REMARK    3  A    between atoms: C10_15  and  O2_16
REMARK    4  A    between atoms: C11_18  and  C12_19
REMARK    5  A    between atoms: C37_48  and  O4_49
ROOT
HETATM    1  C12 UNL     1      68.742 -13.529  21.427  1.00  0.00     0.063 A
HETATM    2  C13 UNL     1      68.318 -12.227  21.313  1.00  0.00     0.065 A
HETATM    3  C14 UNL     1      68.577 -11.779  19.990  1.00  0.00     0.080 A
HETATM    4  N3  UNL     1      69.124 -12.792  19.385  1.00  0.00    -0.285 N
HETATM    5  N4  UNL     1      69.224 -13.839  20.243  1.00  0.00    -0.297 N
ATOM      6  H4  UNL     1      69.620 -14.746  20.002  1.00  0.00     0.187 HD
HETATM    7  C15 UNL     1      69.585 -12.937  18.007  1.00  0.00     0.187 C
HETATM    8  C16 UNL     1      71.034 -12.544  17.801  1.00  0.00    -0.038 A
HETATM    9  C17 UNL     1      71.438 -11.619  16.857  1.00  0.00     0.010 A
HETATM   10  C18 UNL     1      72.773 -11.244  16.741  1.00  0.00     0.013 A
HETATM   11  C19 UNL     1      73.850 -11.713  17.514  1.00  0.00    -0.025 A
HETATM   12  C20 UNL     1      73.412 -12.642  18.447  1.00  0.00     0.013 A
HETATM   13  C21 UNL     1      72.079 -13.028  18.573  1.00  0.00     0.010 A
HETATM   14  C22 UNL     1      75.274 -11.133  17.415  1.00  0.00    -0.017 A
HETATM   15  C23 UNL     1      75.585  -9.934  18.092  1.00  0.00     0.049 A
HETATM   16  C24 UNL     1      76.779  -9.302  17.911  1.00  0.00     0.070 A
HETATM   17  C25 UNL     1      77.731  -9.843  17.058  1.00  0.00     0.037 A
HETATM   18  C26 UNL     1      77.508 -11.014  16.368  1.00  0.00     0.010 A
HETATM   19  C27 UNL     1      76.297 -11.605  16.572  1.00  0.00    -0.051 A
HETATM   20  C28 UNL     1      76.140 -12.873  15.792  1.00  0.00     0.049 C
HETATM   21  O3  UNL     1      77.240  -8.096  18.475  1.00  0.00    -0.347 OA
HETATM   22  C29 UNL     1      76.611  -6.793  18.384  1.00  0.00     0.214 C
HETATM   23  C30 UNL     1      75.155  -6.854  18.008  1.00  0.00    -0.034 A
HETATM   24  C31 UNL     1      74.163  -6.640  18.928  1.00  0.00     0.010 A
HETATM   25  C32 UNL     1      72.765  -6.794  18.608  1.00  0.00     0.008 A
HETATM   26  C33 UNL     1      72.317  -7.164  17.371  1.00  0.00    -0.052 A
HETATM   27  C34 UNL     1      73.319  -7.370  16.447  1.00  0.00     0.008 A
HETATM   28  C35 UNL     1      74.699  -7.219  16.761  1.00  0.00     0.010 A
HETATM   29  C36 UNL     1      70.866  -7.392  17.067  1.00  0.00     0.105 C
HETATM   30  C37 UNL     1      69.876  -7.337  18.136  1.00  0.00     0.074 C
HETATM   31  C38 UNL     1      68.895  -8.289  18.621  1.00  0.00     0.062 A
HETATM   32  C39 UNL     1      67.568  -7.832  18.755  1.00  0.00     0.032 A
HETATM   33  C40 UNL     1      66.597  -8.651  19.258  1.00  0.00     0.005 A
HETATM   34  C41 UNL     1      66.958  -9.925  19.626  1.00  0.00     0.032 A
HETATM   35  C42 UNL     1      68.256 -10.419  19.511  1.00  0.00     0.061 A
HETATM   36  N5  UNL     1      69.137  -9.545  19.006  1.00  0.00    -0.352 N
ATOM     37  H5  UNL     1      70.097  -9.874  18.905  1.00  0.00     0.166 HD
ENDROOT
BRANCH   1  38
HETATM   38  C11 UNL     1      68.673 -14.388  22.628  1.00  0.00     0.026 A
HETATM   39  C10 UNL     1      67.620 -15.274  22.729  1.00  0.00     0.078 A
HETATM   40  C9  UNL     1      67.552 -16.078  23.832  1.00  0.00     0.038 A
HETATM   41  C8  UNL     1      68.500 -16.023  24.836  1.00  0.00     0.020 A
HETATM   42  C7  UNL     1      69.557 -15.141  24.748  1.00  0.00     0.033 A
HETATM   43  C43 UNL     1      69.626 -14.322  23.622  1.00  0.00     0.033 A
BRANCH  39  44
HETATM   44  O2  UNL     1      66.682 -15.315  21.716  1.00  0.00    -0.360 OA
ATOM     45  H2  UNL     1      65.921 -14.747  21.699  1.00  0.00     0.217 HD
ENDBRANCH  39  44
BRANCH  42  46
HETATM   46  C6  UNL     1      70.569 -15.064  25.790  1.00  0.00     0.269 C
HETATM   47  N2  UNL     1      70.220 -15.032  27.143  1.00  0.00    -0.155 N
ATOM     48  H2  UNL     1      70.297 -15.878  27.709  1.00  0.00     0.187 HD
HETATM   49  O1  UNL     1      71.779 -15.026  25.470  1.00  0.00    -0.267 OA
BRANCH  47  50
HETATM   50  C5  UNL     1      69.803 -13.940  27.676  1.00  0.00     0.685 A
HETATM   51  N1  UNL     1      70.597 -13.244  28.519  1.00  0.00    -0.202 N
HETATM   52  C4  UNL     1      70.101 -12.109  29.042  1.00  0.00     0.108 A
ATOM     53  H1  UNL     1      71.537 -13.567  28.749  1.00  0.00     0.183 HD
HETATM   54  C3  UNL     1      68.843 -11.641  28.756  1.00  0.00     0.042 A
HETATM   55  C2  UNL     1      68.054 -12.358  27.903  1.00  0.00     0.024 A
HETATM   56  C1  UNL     1      66.688 -11.943  27.530  1.00  0.00     0.068 C
HETATM   57  N6  UNL     1      68.584 -13.498  27.393  1.00  0.00    -0.196 N
ATOM     58  H6  UNL     1      68.011 -14.048  26.753  1.00  0.00     0.184 HD
ENDBRANCH  47  50
ENDBRANCH  42  46
ENDBRANCH   1  38
BRANCH  30  59
HETATM   59  O4  UNL     1      69.890  -6.191  18.771  1.00  0.00    -0.362 OA
ATOM     60  H4  UNL     1      70.501  -6.187  19.499  1.00  0.00     0.217 HD
ENDBRANCH  30  59
TORSDOF 5
ENDMDL