MODEL 3
REMARK VINA RESULT: -9.805581765      3.764     11.460
REMARK  3 active torsions:
REMARK  status: ('A' for Active; 'I' for Inactive)
REMARK    1  A    between atoms: S1_2  and  N1_5
REMARK    2  A    between atoms: C32_39  and  O5_40
REMARK    3  A    between atoms: C36_45  and  O6_46
ROOT
HETATM    1  N1  UNL     1      77.713 -11.735  16.921  1.00  0.00    -0.307 N
HETATM    2  C2  UNL     1      77.320 -13.028  17.355  1.00  0.00     0.161 C
HETATM    3  C3  UNL     1      78.556 -13.876  17.645  1.00  0.00     0.196 C
HETATM    4  O3  UNL     1      78.347 -14.594  18.800  1.00  0.00    -0.349 OA
HETATM    5  C4  UNL     1      77.551 -15.629  19.237  1.00  0.00     0.071 A
HETATM    6  C5  UNL     1      78.307 -16.570  19.970  1.00  0.00     0.037 A
HETATM    7  C6  UNL     1      77.783 -17.707  20.532  1.00  0.00     0.005 A
HETATM    8  C7  UNL     1      76.427 -17.882  20.330  1.00  0.00     0.037 A
HETATM    9  C8  UNL     1      75.650 -16.988  19.621  1.00  0.00     0.078 A
HETATM   10  C9  UNL     1      76.204 -15.848  19.064  1.00  0.00     0.074 A
HETATM   11  O4  UNL     1      74.304 -17.384  19.558  1.00  0.00    -0.311 OA
HETATM   12  C10 UNL     1      73.122 -16.770  19.998  1.00  0.00     0.076 A
HETATM   13  C11 UNL     1      72.726 -15.581  19.488  1.00  0.00     0.038 A
HETATM   14  C12 UNL     1      71.531 -14.992  19.964  1.00  0.00     0.015 A
HETATM   15  C13 UNL     1      70.717 -15.564  20.938  1.00  0.00    -0.026 A
HETATM   16  C14 UNL     1      71.165 -16.780  21.422  1.00  0.00     0.015 A
HETATM   17  C15 UNL     1      72.357 -17.374  20.955  1.00  0.00     0.038 A
HETATM   18  C16 UNL     1      69.436 -14.813  21.340  1.00  0.00    -0.026 A
HETATM   19  C17 UNL     1      68.243 -15.092  20.703  1.00  0.00     0.013 A
HETATM   20  C18 UNL     1      67.035 -14.362  20.840  1.00  0.00     0.010 A
HETATM   21  C19 UNL     1      67.006 -13.270  21.672  1.00  0.00    -0.040 A
HETATM   22  C20 UNL     1      68.169 -12.958  22.345  1.00  0.00     0.010 A
HETATM   23  C21 UNL     1      69.349 -13.719  22.172  1.00  0.00     0.013 A
HETATM   24  C22 UNL     1      65.810 -12.296  21.641  1.00  0.00     0.166 C
HETATM   25  N2  UNL     1      66.277 -11.008  20.993  1.00  0.00    -0.361 N
HETATM   26  C23 UNL     1      65.982  -9.816  21.568  1.00  0.00     0.091 A
HETATM   27  C24 UNL     1      66.632  -8.867  20.848  1.00  0.00     0.031 A
HETATM   28  C25 UNL     1      67.342  -9.522  19.803  1.00  0.00    -0.006 A
HETATM   29  C26 UNL     1      67.070 -10.869  19.944  1.00  0.00     0.103 A
HETATM   30  C27 UNL     1      68.259  -8.763  18.878  1.00  0.00     0.009 A
HETATM   31  C28 UNL     1      69.576  -8.968  18.558  1.00  0.00     0.027 A
HETATM   32  C29 UNL     1      70.259  -8.128  17.725  1.00  0.00    -0.025 A
HETATM   33  C30 UNL     1      69.525  -7.026  17.199  1.00  0.00     0.015 A
HETATM   34  C31 UNL     1      68.219  -6.758  17.467  1.00  0.00     0.038 A
HETATM   35  C32 UNL     1      67.606  -7.645  18.314  1.00  0.00     0.076 A
HETATM   36  C33 UNL     1      71.707  -8.110  17.288  1.00  0.00    -0.023 A
HETATM   37  C34 UNL     1      72.265  -6.793  17.333  1.00  0.00     0.015 A
HETATM   38  C35 UNL     1      73.535  -6.455  17.008  1.00  0.00     0.040 A
HETATM   39  C36 UNL     1      74.336  -7.502  16.601  1.00  0.00     0.099 A
HETATM   40  C37 UNL     1      73.870  -8.809  16.531  1.00  0.00     0.102 A
HETATM   41  C38 UNL     1      72.567  -9.089  16.873  1.00  0.00     0.052 A
HETATM   42  O7  UNL     1      74.868  -9.673  16.103  1.00  0.00    -0.347 OA
HETATM   43  C39 UNL     1      75.477 -10.823  16.596  1.00  0.00     0.196 C
HETATM   44  C40 UNL     1      76.823 -10.659  17.199  1.00  0.00     0.161 C
ENDROOT
BRANCH   1  45
HETATM   45  S1  UNL     1      78.589 -11.646  15.480  1.00  0.00     0.224 S
HETATM   46  C1  UNL     1      78.390 -10.066  14.705  1.00  0.00     0.186 C
HETATM   47  O1  UNL     1      80.070 -11.792  15.804  1.00  0.00    -0.206 OA
HETATM   48  O2  UNL     1      78.278 -12.766  14.524  1.00  0.00    -0.206 OA
ENDBRANCH   1  45
BRANCH  39  49
HETATM   49  O6  UNL     1      75.662  -7.116  16.260  1.00  0.00    -0.358 OA
ATOM     50  H6  UNL     1      76.123  -7.752  15.726  1.00  0.00     0.217 HD
ENDBRANCH  39  49
BRANCH  35  51
HETATM   51  O5  UNL     1      66.254  -7.363  18.594  1.00  0.00    -0.360 OA
ATOM     52  H5  UNL     1      65.577  -7.481  17.939  1.00  0.00     0.217 HD
ENDBRANCH  35  51
TORSDOF 3
ENDMDL