MODEL 2
REMARK VINA RESULT: -10.894348791      4.433      9.224
REMARK  1 active torsions:
REMARK  status: ('A' for Active; 'I' for Inactive)
REMARK    1  A    between atoms: N4_43  and  C35_44
ROOT
HETATM    1  N1  UNL     1      82.432  -8.473  16.603  1.00  0.00    -0.365 N
ATOM      2  H11 UNL     1      82.983  -9.093  16.011  1.00  0.00     0.159 HD
ATOM      3  H12 UNL     1      83.055  -7.756  16.975  1.00  0.00     0.159 HD
HETATM    4  C1  UNL     1      81.168  -8.621  16.808  1.00  0.00     0.214 C
HETATM    5  N2  UNL     1      80.399  -7.756  17.634  1.00  0.00    -0.353 N
ATOM      6  H2  UNL     1      80.731  -6.887  18.052  1.00  0.00     0.163 HD
HETATM    7  C2  UNL     1      79.073  -8.306  17.785  1.00  0.00     0.172 C
HETATM    8  C3  UNL     1      79.307  -9.732  17.330  1.00  0.00     0.148 A
HETATM    9  C4  UNL     1      80.075 -10.345  18.473  1.00  0.00     0.109 A
HETATM   10  N3  UNL     1      79.732 -11.434  19.015  1.00  0.00    -0.333 N
ATOM     11  H3  UNL     1      80.325 -11.745  19.784  1.00  0.00     0.168 HD
HETATM   12  C5  UNL     1      78.659 -12.269  18.710  1.00  0.00     0.255 A
HETATM   13  O1  UNL     1      78.312 -13.311  19.225  1.00  0.00    -0.268 OA
HETATM   14  C6  UNL     1      77.840 -11.879  17.670  1.00  0.00     0.066 A
HETATM   15  C7  UNL     1      78.309 -10.583  17.094  1.00  0.00     0.030 A
HETATM   16  C8  UNL     1      77.432 -10.545  15.915  1.00  0.00     0.137 A
HETATM   17  C9  UNL     1      77.244  -9.872  14.864  1.00  0.00     0.093 A
HETATM   18  C10 UNL     1      76.158 -10.619  14.019  1.00  0.00    -0.023 A
HETATM   19  C11 UNL     1      75.670 -11.809  14.487  1.00  0.00     0.007 A
HETATM   20  C12 UNL     1      76.059 -12.519  15.812  1.00  0.00     0.274 A
HETATM   21  C13 UNL     1      76.741 -12.775  17.042  1.00  0.00     0.235 A
HETATM   22  C14 UNL     1      76.337 -13.849  17.929  1.00  0.00     0.008 C
HETATM   23  C15 UNL     1      76.733 -15.179  17.893  1.00  0.00    -0.026 A
HETATM   24  C16 UNL     1      77.008 -16.066  18.903  1.00  0.00     0.012 A
HETATM   25  C17 UNL     1      77.417 -17.348  18.746  1.00  0.00     0.001 A
HETATM   26  C18 UNL     1      77.591 -17.860  17.491  1.00  0.00     0.000 A
HETATM   27  C19 UNL     1      77.345 -17.052  16.427  1.00  0.00     0.001 A
HETATM   28  C20 UNL     1      76.937 -15.778  16.610  1.00  0.00     0.012 A
HETATM   29  C21 UNL     1      75.037 -13.259  18.558  1.00  0.00    -0.013 C
HETATM   30  C22 UNL     1      74.771 -11.951  18.316  1.00  0.00     0.023 C
HETATM   31  C23 UNL     1      75.608 -11.046  17.510  1.00  0.00     0.157 C
HETATM   32  C24 UNL     1      75.837  -9.797  17.391  1.00  0.00     0.039 C
HETATM   33  C25 UNL     1      75.191  -8.732  18.221  1.00  0.00     0.005 C
HETATM   34  C26 UNL     1      74.076  -8.893  18.874  1.00  0.00     0.030 C
HETATM   35  C27 UNL     1      73.169 -10.050  19.001  1.00  0.00     0.047 A
HETATM   36  C28 UNL     1      73.421 -11.345  18.786  1.00  0.00     0.015 A
HETATM   37  C29 UNL     1      72.218 -12.177  18.938  1.00  0.00    -0.021 A
HETATM   38  C30 UNL     1      72.043 -13.497  19.181  1.00  0.00     0.012 C
HETATM   39  C31 UNL     1      73.054 -14.489  19.388  1.00  0.00     0.002 C
HETATM   40  C32 UNL     1      74.350 -14.344  19.105  1.00  0.00     0.013 C
HETATM   41  C33 UNL     1      70.889 -11.619  19.264  1.00  0.00     0.029 A
HETATM   42  C34 UNL     1      70.771 -10.344  19.439  1.00  0.00     0.093 A
HETATM   43  N4  UNL     1      71.891  -9.500  19.324  1.00  0.00    -0.342 N
HETATM   44  N5  UNL     1      76.819 -11.572  16.050  1.00  0.00     0.022 N
HETATM   45  O3  UNL     1      80.322  -9.593  16.303  1.00  0.00    -0.299 OA
ENDROOT
BRANCH  43  46
HETATM   46  C35 UNL     1      71.586  -8.103  19.503  1.00  0.00     0.172 A
HETATM   47  C36 UNL     1      70.967  -7.963  20.860  1.00  0.00     0.087 A
HETATM   48  S1  UNL     1      71.728  -8.407  22.229  1.00  0.00    -0.078 SA
HETATM   49  C37 UNL     1      69.667  -7.403  20.763  1.00  0.00     0.202 A
HETATM   50  O2  UNL     1      68.831  -7.102  21.678  1.00  0.00    -0.286 OA
HETATM   51  C38 UNL     1      69.403  -7.204  19.340  1.00  0.00     0.024 A
HETATM   52  C39 UNL     1      68.265  -6.697  18.696  1.00  0.00     0.016 A
HETATM   53  C43 UNL     1      70.496  -7.624  18.626  1.00  0.00    -0.015 A
HETATM   54  C40 UNL     1      68.182  -6.597  17.333  1.00  0.00     0.001 A
HETATM   55  C41 UNL     1      69.265  -7.012  16.603  1.00  0.00     0.001 A
HETATM   56  C42 UNL     1      70.402  -7.519  17.255  1.00  0.00     0.010 A
ENDBRANCH  43  46
TORSDOF 1
ENDMDL