MODEL 3
REMARK VINA RESULT: -10.978733497      3.659      6.486
REMARK  10 active torsions:
REMARK  status: ('A' for Active; 'I' for Inactive)
REMARK    1  A    between atoms: C2_2  and  C5_5
REMARK    2  A    between atoms: C5_5  and  C6_7
REMARK    3  A    between atoms: C9_10  and  N1_11
REMARK    4  A    between atoms: C10_14  and  C11_15
REMARK    5  A    between atoms: C15_20  and  N3_21
REMARK    6  A    between atoms: N3_21  and  C16_23
REMARK    7  A    between atoms: C16_23  and  O2_24
REMARK    8  A    between atoms: C16_23  and  N4_26
REMARK    9  A    between atoms: C21_31  and  C22_32
REMARK   10  A    between atoms: C23_33  and  C24_34
ROOT
HETATM    1  N4  UNL     1      70.749  -8.731  17.173  1.00  0.00    -0.272 N
HETATM    2  C17 UNL     1      69.675  -8.173  17.779  1.00  0.00     0.059 A
HETATM    3  C18 UNL     1      69.277  -6.903  17.455  1.00  0.00     0.031 A
HETATM    4  C19 UNL     1      68.158  -6.261  18.007  1.00  0.00     0.004 A
HETATM    5  C20 UNL     1      67.413  -6.929  18.919  1.00  0.00     0.022 A
HETATM    6  C21 UNL     1      67.766  -8.224  19.285  1.00  0.00     0.034 A
HETATM    7  C25 UNL     1      68.869  -8.824  18.724  1.00  0.00     0.062 A
HETATM    8  C26 UNL     1      69.151 -10.104  19.078  1.00  0.00     0.214 A
HETATM    9  O5  UNL     1      68.527 -10.811  19.902  1.00  0.00    -0.285 OA
HETATM   10  C27 UNL     1      70.254 -10.687  18.457  1.00  0.00     0.114 A
HETATM   11  N5  UNL     1      70.770 -11.922  18.621  1.00  0.00    -0.349 N
ATOM     12  H5  UNL     1      70.393 -12.632  19.248  1.00  0.00     0.166 HD
HETATM   13  C28 UNL     1      71.838 -12.084  17.851  1.00  0.00     0.063 A
HETATM   14  C29 UNL     1      72.730 -13.125  17.644  1.00  0.00     0.045 A
HETATM   15  C30 UNL     1      73.802 -13.049  16.780  1.00  0.00    -0.007 A
HETATM   16  C31 UNL     1      74.693 -14.075  16.566  1.00  0.00     0.014 A
HETATM   17  C32 UNL     1      75.756 -13.979  15.700  1.00  0.00     0.001 A
HETATM   18  C33 UNL     1      75.938 -12.779  15.005  1.00  0.00     0.002 A
HETATM   19  C34 UNL     1      75.035 -11.749  15.225  1.00  0.00     0.030 A
HETATM   20  C35 UNL     1      73.969 -11.856  16.098  1.00  0.00     0.043 A
HETATM   21  N6  UNL     1      73.103 -10.866  16.307  1.00  0.00    -0.352 N
ATOM     22  H6  UNL     1      73.257 -10.002  15.787  1.00  0.00     0.166 HD
HETATM   23  C36 UNL     1      72.048 -10.896  17.136  1.00  0.00     0.089 A
HETATM   24  C37 UNL     1      71.032 -10.031  17.536  1.00  0.00     0.103 A
ENDROOT
BRANCH   1  25
HETATM   25  C16 UNL     1      71.598  -8.014  16.354  1.00  0.00     0.231 C
BRANCH  25  26
HETATM   26  N3  UNL     1      72.760  -7.318  16.450  1.00  0.00    -0.300 N
ATOM     27  H3  UNL     1      72.653  -6.354  16.135  1.00  0.00     0.171 HD
BRANCH  26  28
HETATM   28  C15 UNL     1      73.954  -7.565  16.834  1.00  0.00     0.175 A
HETATM   29  N1  UNL     1      74.381  -7.484  18.137  1.00  0.00    -0.233 N
HETATM   30  N2  UNL     1      75.567  -7.794  18.384  1.00  0.00    -0.288 N
HETATM   31  C10 UNL     1      76.403  -8.187  17.440  1.00  0.00     0.078 A
ATOM     32  H2  UNL     1      75.900  -7.741  19.347  1.00  0.00     0.188 HD
HETATM   33  S1  UNL     1      75.390  -8.102  16.076  1.00  0.00    -0.036 SA
BRANCH  29  34
HETATM   34  C9  UNL     1      73.472  -6.966  19.146  1.00  0.00     0.059 A
HETATM   35  C8  UNL     1      72.689  -7.715  19.954  1.00  0.00     0.032 A
HETATM   36  C7  UNL     1      71.856  -7.076  20.881  1.00  0.00     0.017 A
HETATM   37  C6  UNL     1      71.803  -5.708  21.002  1.00  0.00     0.011 A
HETATM   38  C39 UNL     1      72.611  -4.968  20.165  1.00  0.00     0.017 A
HETATM   39  C38 UNL     1      73.438  -5.573  19.247  1.00  0.00     0.032 A
BRANCH  37  40
HETATM   40  C5  UNL     1      70.939  -5.029  21.949  1.00  0.00     0.167 C
HETATM   41  O1  UNL     1      71.402  -3.988  22.538  1.00  0.00    -0.292 OA
BRANCH  40  42
HETATM   42  C2  UNL     1      69.567  -5.438  22.296  1.00  0.00     0.014 C
HETATM   43  C1  UNL     1      69.257  -5.078  23.748  1.00  0.00     0.023 C
HETATM   44  C3  UNL     1      68.584  -4.641  21.453  1.00  0.00     0.023 C
HETATM   45  C4  UNL     1      69.357  -6.927  22.186  1.00  0.00     0.023 C
ENDBRANCH  40  42
ENDBRANCH  37  40
ENDBRANCH  29  34
BRANCH  31  46
HETATM   46  C11 UNL     1      77.838  -8.578  17.592  1.00  0.00    -0.001 C
HETATM   47  C12 UNL     1      78.539  -8.520  16.280  1.00  0.00     0.021 C
HETATM   48  C13 UNL     1      78.536  -7.658  18.592  1.00  0.00     0.021 C
HETATM   49  C14 UNL     1      77.881  -9.994  18.134  1.00  0.00     0.021 C
ENDBRANCH  31  46
ENDBRANCH  26  28
ENDBRANCH  25  26
BRANCH  25  50
HETATM   50  O2  UNL     1      71.180  -7.997  15.080  1.00  0.00    -0.332 OA
ATOM     51  H2  UNL     1      70.694  -8.794  14.902  1.00  0.00     0.221 HD
ENDBRANCH  25  50
ENDBRANCH   1  25
BRANCH   6  52
HETATM   52  C22 UNL     1      66.959  -8.934  20.251  1.00  0.00    -0.054 C
HETATM   53  C23 UNL     1      66.241  -9.513  21.069  1.00  0.00     0.010 C
BRANCH  53  54
HETATM   54  C24 UNL     1      65.415 -10.209  22.012  1.00  0.00     0.258 C
HETATM   55  O3  UNL     1      64.859  -9.633  23.001  1.00  0.00    -0.637 OA
HETATM   56  O4  UNL     1      65.213 -11.570  21.840  1.00  0.00    -0.637 OA
ENDBRANCH  53  54
ENDBRANCH   6  52
TORSDOF 10
ENDMDL