MODEL 2
REMARK VINA RESULT: -10.269205129      2.112      2.833
REMARK  2 active torsions:
REMARK  status: ('A' for Active; 'I' for Inactive)
REMARK    1  A    between atoms: C3_4  and  C4_5
REMARK    2  A    between atoms: C19_21  and  O1_22
ROOT
HETATM    1  C1  UNL     1      74.801  -7.520  16.147  1.00  0.00     0.150 C
HETATM    2  N1  UNL     1      74.646  -8.812  16.921  1.00  0.00    -0.373 N
HETATM    3  C2  UNL     1      73.893  -9.676  17.618  1.00  0.00     0.054 C
HETATM    4  C3  UNL     1      73.050 -10.011  18.592  1.00  0.00     0.022 C
HETATM    5  C16 UNL     1      72.976 -11.559  18.839  1.00  0.00     0.022 A
HETATM    6  C17 UNL     1      74.188 -12.316  18.814  1.00  0.00     0.084 A
HETATM    7  C18 UNL     1      73.951 -13.594  19.287  1.00  0.00     0.075 A
HETATM    8  C19 UNL     1      72.771 -14.137  19.721  1.00  0.00     0.080 A
HETATM    9  C20 UNL     1      71.655 -13.375  19.707  1.00  0.00     0.019 A
HETATM   10  C21 UNL     1      71.769 -12.029  19.242  1.00  0.00    -0.008 A
HETATM   11  C22 UNL     1      70.604 -11.290  19.123  1.00  0.00     0.014 A
HETATM   12  C23 UNL     1      69.390 -11.828  19.454  1.00  0.00     0.013 A
HETATM   13  C24 UNL     1      69.301 -13.121  19.911  1.00  0.00    -0.025 A
HETATM   14  C25 UNL     1      68.076 -13.651  20.244  1.00  0.00     0.012 A
HETATM   15  C26 UNL     1      67.973 -14.942  20.699  1.00  0.00     0.001 A
HETATM   16  C27 UNL     1      69.109 -15.713  20.824  1.00  0.00     0.001 A
HETATM   17  C28 UNL     1      70.359 -15.199  20.495  1.00  0.00     0.013 A
HETATM   18  C29 UNL     1      70.434 -13.907  20.040  1.00  0.00    -0.012 A
HETATM   19  O2  UNL     1      75.437 -12.033  18.422  1.00  0.00    -0.340 OA
HETATM   20  C30 UNL     1      76.503 -11.731  17.595  1.00  0.00     0.183 C
HETATM   21  C31 UNL     1      76.699 -10.250  17.848  1.00  0.00     0.133 C
HETATM   22  C32 UNL     1      75.782  -9.697  17.067  1.00  0.00     0.143 C
HETATM   23  C33 UNL     1      74.360 -10.750  16.876  1.00  0.00     0.020 C
HETATM   24  C34 UNL     1      74.658 -11.724  16.012  1.00  0.00     0.039 C
HETATM   25  C35 UNL     1      73.800 -11.487  14.862  1.00  0.00     0.030 C
HETATM   26  C36 UNL     1      74.584 -11.436  13.708  1.00  0.00     0.002 C
HETATM   27  C37 UNL     1      76.102 -11.595  13.770  1.00  0.00    -0.001 C
HETATM   28  C38 UNL     1      76.891 -11.927  14.843  1.00  0.00     0.007 C
HETATM   29  C39 UNL     1      76.797 -12.267  16.251  1.00  0.00     0.091 C
HETATM   30  C40 UNL     1      78.070 -12.975  16.491  1.00  0.00     0.195 C
HETATM   31  S2  UNL     1      78.998 -11.529  17.107  1.00  0.00     0.214 S
HETATM   32  O3  UNL     1      79.913 -12.008  18.234  1.00  0.00    -0.211 OA
HETATM   33  O4  UNL     1      80.009 -11.134  16.030  1.00  0.00    -0.211 OA
HETATM   34  N2  UNL     1      78.127 -10.160  17.503  1.00  0.00    -0.205 NA
HETATM   35  C41 UNL     1      78.765  -9.513  18.652  1.00  0.00     0.130 C
HETATM   36  N3  UNL     1      75.495 -12.917  16.243  1.00  0.00    -0.373 N
ATOM     37  H3  UNL     1      75.239 -13.897  16.360  1.00  0.00     0.161 HD
ENDROOT
BRANCH   4  38
HETATM   38  C4  UNL     1      72.429  -9.153  19.614  1.00  0.00     0.020 A
HETATM   39  C5  UNL     1      71.437  -8.214  19.519  1.00  0.00     0.033 A
HETATM   40  C6  UNL     1      71.080  -7.558  20.626  1.00  0.00    -0.007 A
HETATM   41  C7  UNL     1      71.730  -7.866  21.782  1.00  0.00     0.016 A
HETATM   42  C15 UNL     1      70.086  -6.564  20.745  1.00  0.00    -0.014 A
HETATM   43  C8  UNL     1      71.471  -7.274  23.021  1.00  0.00     0.021 A
HETATM   44  S1  UNL     1      72.824  -9.069  21.286  1.00  0.00    -0.089 SA
HETATM   45  C9  UNL     1      70.499  -6.306  23.121  1.00  0.00     0.013 A
HETATM   46  C10 UNL     1      69.836  -5.988  21.957  1.00  0.00    -0.025 A
HETATM   47  C11 UNL     1      68.861  -5.017  22.081  1.00  0.00     0.012 A
HETATM   48  C12 UNL     1      68.124  -4.611  20.993  1.00  0.00     0.001 A
HETATM   49  C13 UNL     1      68.382  -5.196  19.779  1.00  0.00     0.001 A
HETATM   50  C14 UNL     1      69.351  -6.164  19.645  1.00  0.00     0.013 A
ENDBRANCH   4  38
BRANCH   8  51
HETATM   51  O1  UNL     1      72.758 -15.445  20.160  1.00  0.00    -0.360 OA
ATOM     52  H1  UNL     1      72.188 -15.683  20.883  1.00  0.00     0.217 HD
ENDBRANCH   8  51
TORSDOF 2
ENDMDL