MODEL 4
REMARK VINA RESULT: -9.117363822      3.098      6.074
REMARK  9 active torsions:
REMARK  status: ('A' for Active; 'I' for Inactive)
REMARK    1  A    between atoms: C2_2  and  O1_5
REMARK    2  A    between atoms: O1_5  and  C5_6
REMARK       I    between atoms: C5_6  and  N1_8
REMARK    3  A    between atoms: N1_8  and  C6_10
REMARK    4  A    between atoms: N4_18  and  C10_19
REMARK    5  A    between atoms: C10_19  and  C13_22
REMARK    6  A    between atoms: C13_22  and  C14_23
REMARK    7  A    between atoms: C15_24  and  C16_25
REMARK       I    between atoms: N6_49  and  C37_50
REMARK    8  A    between atoms: C37_50  and  O5_52
REMARK    9  A    between atoms: O5_52  and  C38_53
ROOT
HETATM    1  C6  UNL     1      67.370  -6.793  22.366  1.00  0.00     0.702 A
HETATM    2  N2  UNL     1      67.177  -7.703  21.385  1.00  0.00    -0.173 N
ATOM      3  H2  UNL     1      67.605  -7.553  20.471  1.00  0.00     0.186 HD
HETATM    4  C7  UNL     1      66.429  -8.804  21.590  1.00  0.00     0.157 A
HETATM    5  C8  UNL     1      65.866  -8.980  22.824  1.00  0.00     0.148 A
HETATM    6  N3  UNL     1      65.166 -10.120  22.858  1.00  0.00    -0.345 N
ATOM      7  H3  UNL     1      64.646 -10.496  23.651  1.00  0.00     0.167 HD
HETATM    8  C9  UNL     1      65.288 -10.670  21.629  1.00  0.00     0.186 A
HETATM    9  N4  UNL     1      66.051  -9.878  20.855  1.00  0.00    -0.317 N
HETATM   10  C36 UNL     1      66.061  -8.045  23.846  1.00  0.00     0.302 A
HETATM   11  O3  UNL     1      65.555  -8.185  24.982  1.00  0.00    -0.264 OA
HETATM   12  N6  UNL     1      66.810  -6.978  23.580  1.00  0.00    -0.050 N
HETATM   13  C37 UNL     1      67.037  -6.002  24.581  1.00  0.00     0.389 C
HETATM   14  O4  UNL     1      67.744  -4.976  24.368  1.00  0.00    -0.237 OA
ENDROOT
BRANCH   9  15
HETATM   15  C10 UNL     1      66.448 -10.071  19.467  1.00  0.00     0.042 C
HETATM   16  C11 UNL     1      65.338 -10.765  18.689  1.00  0.00     0.039 C
HETATM   17  C12 UNL     1      66.798  -8.752  18.816  1.00  0.00     0.039 C
BRANCH  15  18
HETATM   18  C13 UNL     1      67.652 -10.958  19.429  1.00  0.00     0.125 C
BRANCH  18  19
HETATM   19  C14 UNL     1      68.784 -10.204  18.891  1.00  0.00    -0.099 C
HETATM   20  C15 UNL     1      69.711  -9.588  18.425  1.00  0.00    -0.067 C
BRANCH  20  21
HETATM   21  C16 UNL     1      70.812  -8.849  17.841  1.00  0.00     0.018 A
HETATM   22  C17 UNL     1      70.655  -7.606  17.265  1.00  0.00     0.023 A
HETATM   23  C18 UNL     1      71.712  -6.909  16.711  1.00  0.00     0.032 A
HETATM   24  C19 UNL     1      72.982  -7.438  16.713  1.00  0.00     0.043 A
HETATM   25  N5  UNL     1      74.188  -6.995  16.252  1.00  0.00    -0.355 N
HETATM   26  C26 UNL     1      73.162  -8.680  17.284  1.00  0.00     0.004 A
HETATM   27  C20 UNL     1      75.145  -7.892  16.498  1.00  0.00     0.044 A
ATOM     28  H5  UNL     1      74.337  -6.101  15.784  1.00  0.00     0.166 HD
HETATM   29  C21 UNL     1      76.512  -7.987  16.268  1.00  0.00     0.038 A
HETATM   30  C25 UNL     1      74.511  -8.947  17.142  1.00  0.00     0.004 A
HETATM   31  C22 UNL     1      77.177  -9.118  16.686  1.00  0.00    -0.045 A
HETATM   32  C23 UNL     1      76.566 -10.170  17.324  1.00  0.00    -0.046 A
HETATM   33  C35 UNL     1      78.632  -9.205  16.441  1.00  0.00     0.078 C
HETATM   34  C24 UNL     1      75.209 -10.059  17.544  1.00  0.00     0.022 A
HETATM   35  C28 UNL     1      77.288 -11.396  17.770  1.00  0.00     0.078 C
HETATM   36  C29 UNL     1      78.310 -11.645  16.721  1.00  0.00    -0.047 A
HETATM   37  C30 UNL     1      78.639 -12.933  16.358  1.00  0.00     0.008 A
HETATM   38  C34 UNL     1      78.941 -10.603  16.089  1.00  0.00    -0.047 A
HETATM   39  C31 UNL     1      79.593 -13.187  15.372  1.00  0.00     0.001 A
HETATM   40  C32 UNL     1      80.226 -12.144  14.738  1.00  0.00     0.001 A
HETATM   41  C33 UNL     1      79.882 -10.855  15.117  1.00  0.00     0.008 A
HETATM   42  C27 UNL     1      72.098  -9.368  17.835  1.00  0.00     0.035 A
ENDBRANCH  20  21
ENDBRANCH  18  19
ENDBRANCH  15  18
ENDBRANCH   9  15
BRANCH   1  43
HETATM   43  N1  UNL     1      68.098  -5.772  22.106  1.00  0.00    -0.134 N
HETATM   44  C5  UNL     1      68.871  -5.657  20.933  1.00  0.00     0.379 C
HETATM   45  O2  UNL     1      68.535  -4.788  20.075  1.00  0.00    -0.238 OA
ATOM     46  H1  UNL     1      68.119  -5.006  22.780  1.00  0.00     0.189 HD
BRANCH  44  47
HETATM   47  O1  UNL     1      69.979  -6.439  20.669  1.00  0.00    -0.293 OA
BRANCH  47  48
HETATM   48  C2  UNL     1      71.216  -6.119  21.255  1.00  0.00     0.061 C
HETATM   49  C1  UNL     1      71.499  -7.215  22.278  1.00  0.00     0.046 C
HETATM   50  C3  UNL     1      72.291  -6.076  20.222  1.00  0.00     0.046 C
HETATM   51  C4  UNL     1      71.176  -4.822  22.036  1.00  0.00     0.046 C
ENDBRANCH  47  48
ENDBRANCH  44  47
ENDBRANCH   1  43
BRANCH  13  52
HETATM   52  O5  UNL     1      66.489  -6.138  25.835  1.00  0.00    -0.293 OA
BRANCH  52  53
HETATM   53  C38 UNL     1      65.505  -5.240  26.285  1.00  0.00     0.061 C
HETATM   54  C39 UNL     1      66.090  -4.032  26.962  1.00  0.00     0.046 C
HETATM   55  C40 UNL     1      64.594  -4.789  25.170  1.00  0.00     0.046 C
HETATM   56  C41 UNL     1      64.656  -5.978  27.312  1.00  0.00     0.046 C
ENDBRANCH  52  53
ENDBRANCH  13  52
TORSDOF 9
ENDMDL