MODEL 3
REMARK VINA RESULT: -10.811434349      2.048      2.946
REMARK  0 active torsions:
REMARK  status: ('A' for Active; 'I' for Inactive)
ROOT
HETATM    1  O1  UNL     1      66.516  -6.901  23.886  1.00  0.00    -0.268 OA
HETATM    2  C1  UNL     1      67.142  -7.281  22.819  1.00  0.00     0.251 C
HETATM    3  N1  UNL     1      66.335  -8.268  22.119  1.00  0.00    -0.351 N
ATOM      4  H1  UNL     1      65.496  -8.634  22.569  1.00  0.00     0.163 HD
HETATM    5  C2  UNL     1      66.700  -8.751  20.779  1.00  0.00     0.179 C
HETATM    6  C3  UNL     1      66.771 -10.229  20.746  1.00  0.00     0.026 A
HETATM    7  C4  UNL     1      66.215 -11.216  20.041  1.00  0.00     0.027 A
HETATM    8  C5  UNL     1      66.536 -12.599  20.260  1.00  0.00     0.011 A
HETATM    9  C6  UNL     1      67.450 -12.927  21.235  1.00  0.00    -0.038 A
HETATM   10  C7  UNL     1      68.027 -11.912  21.968  1.00  0.00     0.095 A
HETATM   11  N2  UNL     1      67.654 -10.659  21.676  1.00  0.00    -0.367 N
ATOM     12  H2  UNL     1      68.096  -9.927  22.233  1.00  0.00     0.165 HD
HETATM   13  C8  UNL     1      67.856 -14.377  21.470  1.00  0.00     0.078 C
HETATM   14  C9  UNL     1      69.106 -14.689  20.654  1.00  0.00    -0.054 A
HETATM   15  C10 UNL     1      68.990 -15.159  19.376  1.00  0.00     0.010 A
HETATM   16  C11 UNL     1      70.159 -15.413  18.594  1.00  0.00     0.037 A
HETATM   17  C12 UNL     1      71.421 -15.203  19.070  1.00  0.00     0.069 A
HETATM   18  C13 UNL     1      71.516 -14.735  20.343  1.00  0.00     0.037 A
HETATM   19  C14 UNL     1      70.371 -14.473  21.149  1.00  0.00     0.010 A
HETATM   20  O2  UNL     1      72.529 -15.459  18.278  1.00  0.00    -0.347 OA
HETATM   21  C15 UNL     1      73.401 -16.535  18.221  1.00  0.00     0.214 C
HETATM   22  C16 UNL     1      74.860 -16.128  18.216  1.00  0.00    -0.034 A
HETATM   23  C17 UNL     1      75.431 -16.341  19.489  1.00  0.00     0.009 A
HETATM   24  C18 UNL     1      76.737 -16.049  19.797  1.00  0.00     0.001 A
HETATM   25  C19 UNL     1      77.450 -15.529  18.763  1.00  0.00     0.007 A
HETATM   26  C20 UNL     1      76.907 -15.300  17.462  1.00  0.00    -0.052 A
HETATM   27  C21 UNL     1      75.606 -15.600  17.185  1.00  0.00     0.016 A
HETATM   28  C22 UNL     1      78.024 -14.724  16.637  1.00  0.00     0.097 C
HETATM   29  C23 UNL     1      78.321 -13.410  17.280  1.00  0.00     0.043 A
HETATM   30  N3  UNL     1      77.252 -12.689  17.661  1.00  0.00    -0.194 N
ATOM     31  H3  UNL     1      76.324 -13.069  17.478  1.00  0.00     0.184 HD
HETATM   32  C24 UNL     1      77.339 -11.494  18.269  1.00  0.00     0.679 A
HETATM   33  N4  UNL     1      78.564 -11.000  18.508  1.00  0.00    -0.191 N
ATOM     34  H4  UNL     1      78.648 -10.094  18.968  1.00  0.00     0.184 HD
HETATM   35  C25 UNL     1      79.675 -11.653  18.164  1.00  0.00     0.061 A
HETATM   36  C26 UNL     1      80.943 -11.159  18.397  1.00  0.00     0.031 A
HETATM   37  C27 UNL     1      82.059 -11.867  18.020  1.00  0.00     0.002 A
HETATM   38  C28 UNL     1      81.908 -13.107  17.387  1.00  0.00     0.001 A
HETATM   39  C29 UNL     1      80.649 -13.614  17.145  1.00  0.00     0.016 A
HETATM   40  C30 UNL     1      79.554 -12.897  17.529  1.00  0.00     0.015 A
HETATM   41  N5  UNL     1      76.168 -10.792  18.637  1.00  0.00    -0.222 N
ATOM     42  H5  UNL     1      76.191 -10.285  19.521  1.00  0.00     0.178 HD
HETATM   43  C31 UNL     1      74.938 -10.729  17.874  1.00  0.00     0.176 C
HETATM   44  C32 UNL     1      74.341  -9.341  17.822  1.00  0.00    -0.037 A
HETATM   45  C33 UNL     1      74.588  -8.762  16.551  1.00  0.00     0.009 A
HETATM   46  C34 UNL     1      74.160  -7.514  16.195  1.00  0.00     0.003 A
HETATM   47  C35 UNL     1      73.463  -6.844  17.170  1.00  0.00     0.037 A
HETATM   48  C36 UNL     1      73.194  -7.376  18.449  1.00  0.00     0.069 A
HETATM   49  C37 UNL     1      73.648  -8.651  18.768  1.00  0.00     0.045 A
HETATM   50  O3  UNL     1      72.486  -6.487  19.196  1.00  0.00    -0.347 OA
HETATM   51  C38 UNL     1      72.353  -5.850  20.381  1.00  0.00     0.214 C
HETATM   52  C39 UNL     1      71.006  -6.211  21.002  1.00  0.00    -0.034 A
HETATM   53  C40 UNL     1      69.863  -5.514  20.707  1.00  0.00     0.010 A
HETATM   54  C41 UNL     1      68.630  -5.876  21.308  1.00  0.00     0.017 A
HETATM   55  C42 UNL     1      68.467  -6.914  22.205  1.00  0.00     0.032 A
HETATM   56  C43 UNL     1      69.643  -7.584  22.467  1.00  0.00     0.017 A
HETATM   57  C44 UNL     1      70.893  -7.252  21.887  1.00  0.00     0.010 A
ENDROOT
TORSDOF 0
ENDMDL