MODEL 4
REMARK VINA RESULT: -9.524033077      2.917      7.573
REMARK  2 active torsions:
REMARK  status: ('A' for Active; 'I' for Inactive)
REMARK    1  A    between atoms: N2_5  and  C4_6
REMARK    2  A    between atoms: C15_19  and  C16_20
ROOT
HETATM    1  C4  UNL     1      69.224 -13.788  22.109  1.00  0.00     0.039 C
HETATM    2  C5  UNL     1      70.593 -13.391  21.782  1.00  0.00     0.138 C
HETATM    3  C6  UNL     1      70.888 -13.181  20.374  1.00  0.00     0.117 A
HETATM    4  N3  UNL     1      70.966 -14.200  19.494  1.00  0.00    -0.243 N
HETATM    5  N4  UNL     1      70.134 -15.324  19.525  1.00  0.00    -0.278 N
HETATM    6  C7  UNL     1      70.151 -16.139  18.468  1.00  0.00     0.055 A
HETATM    7  C8  UNL     1      69.419 -17.326  18.222  1.00  0.00     0.031 A
HETATM    8  C9  UNL     1      69.728 -17.879  16.957  1.00  0.00    -0.001 A
HETATM    9  C10 UNL     1      70.649 -17.318  16.054  1.00  0.00    -0.016 A
HETATM   10  C11 UNL     1      71.386 -16.085  16.349  1.00  0.00     0.054 A
HETATM   11  C12 UNL     1      71.767 -14.900  17.157  1.00  0.00     0.081 A
HETATM   12  C13 UNL     1      71.752 -13.996  18.291  1.00  0.00     0.047 A
HETATM   13  C14 UNL     1      72.365 -12.820  18.048  1.00  0.00     0.059 A
HETATM   14  C15 UNL     1      72.254 -11.724  18.953  1.00  0.00     0.056 A
HETATM   15  N6  UNL     1      71.531 -12.012  20.008  1.00  0.00    -0.292 N
HETATM   16  C25 UNL     1      71.108 -10.894  20.727  1.00  0.00     0.126 A
HETATM   17  C26 UNL     1      71.890 -10.176  21.565  1.00  0.00     0.276 A
HETATM   18  O1  UNL     1      73.136 -10.298  21.650  1.00  0.00    -0.266 OA
HETATM   19  N7  UNL     1      71.081  -9.354  22.249  1.00  0.00    -0.288 N
ATOM     20  H7  UNL     1      71.389  -8.690  22.959  1.00  0.00     0.172 HD
HETATM   21  C27 UNL     1      69.798  -9.531  21.861  1.00  0.00     0.262 A
HETATM   22  O2  UNL     1      68.807  -8.885  22.367  1.00  0.00    -0.267 OA
HETATM   23  C28 UNL     1      69.753 -10.534  20.841  1.00  0.00     0.078 A
HETATM   24  C29 UNL     1      68.612 -10.904  20.091  1.00  0.00     0.020 A
HETATM   25  C30 UNL     1      67.921 -12.070  19.924  1.00  0.00     0.044 A
HETATM   26  C31 UNL     1      66.640 -11.972  19.284  1.00  0.00     0.031 A
HETATM   27  C32 UNL     1      66.050 -10.851  18.816  1.00  0.00     0.014 A
HETATM   28  C33 UNL     1      66.771  -9.700  18.976  1.00  0.00    -0.025 A
HETATM   29  C34 UNL     1      66.211  -8.558  18.404  1.00  0.00     0.012 A
HETATM   30  C35 UNL     1      66.889  -7.365  18.416  1.00  0.00     0.001 A
HETATM   31  C36 UNL     1      68.132  -7.319  18.999  1.00  0.00     0.001 A
HETATM   32  C37 UNL     1      68.634  -8.475  19.551  1.00  0.00     0.013 A
HETATM   33  C38 UNL     1      67.995  -9.701  19.579  1.00  0.00    -0.012 A
HETATM   34  N8  UNL     1      68.215 -13.401  20.066  1.00  0.00    -0.356 N
ATOM     35  H8  UNL     1      67.975 -13.894  19.205  1.00  0.00     0.166 HD
HETATM   36  C39 UNL     1      68.699 -14.248  20.931  1.00  0.00     0.052 C
HETATM   37  C40 UNL     1      68.938 -15.626  20.326  1.00  0.00     0.208 C
HETATM   38  C41 UNL     1      70.910 -15.822  17.536  1.00  0.00    -0.032 A
ENDROOT
BRANCH  14  39
HETATM   39  C16 UNL     1      72.976 -10.557  18.596  1.00  0.00     0.019 A
HETATM   40  C17 UNL     1      74.283 -10.248  18.769  1.00  0.00     0.105 A
HETATM   41  N5  UNL     1      74.586  -9.061  18.220  1.00  0.00    -0.360 N
HETATM   42  C18 UNL     1      75.871  -8.367  18.183  1.00  0.00     0.156 C
HETATM   43  C19 UNL     1      73.485  -8.551  17.667  1.00  0.00     0.045 A
HETATM   44  C20 UNL     1      73.215  -7.375  16.967  1.00  0.00     0.030 A
HETATM   45  C24 UNL     1      72.486  -9.434  17.877  1.00  0.00     0.005 A
HETATM   46  C21 UNL     1      71.967  -7.067  16.471  1.00  0.00     0.002 A
HETATM   47  C22 UNL     1      70.982  -8.002  16.710  1.00  0.00     0.001 A
HETATM   48  C23 UNL     1      71.201  -9.182  17.399  1.00  0.00     0.014 A
ENDBRANCH  14  39
BRANCH   1  49
HETATM   49  N2  UNL     1      68.821 -13.659  23.415  1.00  0.00    -0.379 N
HETATM   50  C3  UNL     1      67.740 -12.675  23.701  1.00  0.00     0.153 C
HETATM   51  C2  UNL     1      66.612 -13.357  24.430  1.00  0.00     0.291 C
HETATM   52  N1  UNL     1      67.087 -14.004  25.615  1.00  0.00     0.087 N
HETATM   53  C1  UNL     1      67.469 -13.051  26.611  1.00  0.00     0.310 C
HETATM   54  C43 UNL     1      68.105 -14.979  25.293  1.00  0.00     0.291 C
HETATM   55  C42 UNL     1      69.284 -14.317  24.610  1.00  0.00     0.153 C
ENDBRANCH   1  49
TORSDOF 2
ENDMDL