MODEL 5
REMARK VINA RESULT: -8.434621493      2.334      2.692
REMARK  13 active torsions:
REMARK  status: ('A' for Active; 'I' for Inactive)
REMARK    1  A    between atoms: C2_2  and  C3_3
REMARK    2  A    between atoms: C3_3  and  N1_4
REMARK    3  A    between atoms: C6_7  and  C7_8
REMARK    4  A    between atoms: C7_8  and  S1_9
REMARK    5  A    between atoms: S1_9  and  C8_10
REMARK    6  A    between atoms: C8_10  and  C9_11
REMARK    7  A    between atoms: C9_11  and  N2_12
REMARK    8  A    between atoms: C9_11  and  C22_33
REMARK       I    between atoms: N2_12  and  C10_14
REMARK    9  A    between atoms: C10_14  and  C11_16
REMARK   10  A    between atoms: C15_20  and  S2_21
REMARK   11  A    between atoms: S2_21  and  C16_22
REMARK   12  A    between atoms: C16_22  and  C17_23
REMARK       I    between atoms: C17_23  and  N3_25
REMARK       I    between atoms: C22_33  and  N4_35
REMARK   13  A    between atoms: N4_35  and  C23_37
ROOT
HETATM    1  C9  UNL     1       2.292  -1.639 -23.303  1.00  0.00     0.186 C
ENDROOT
BRANCH   1   2
HETATM    2  C8  UNL     1       2.122  -1.251 -21.902  1.00  0.00     0.108 C
BRANCH   2   3
HETATM    3  S1  UNL     1       1.123   0.192 -21.647  1.00  0.00    -0.164 SA
BRANCH   3   4
HETATM    4  C7  UNL     1       0.287   0.514 -20.168  1.00  0.00     0.109 C
BRANCH   4   5
HETATM    5  C6  UNL     1      -0.666   1.656 -20.045  1.00  0.00     0.233 C
HETATM    6  N1  UNL     1      -1.683   1.637 -19.054  1.00  0.00     0.093 N
HETATM    7  C4  UNL     1      -0.696   2.142 -18.099  1.00  0.00     0.275 C
HETATM    8  C5  UNL     1       0.026   2.783 -19.264  1.00  0.00     0.067 C
BRANCH   6   9
HETATM    9  C3  UNL     1      -2.307   0.431 -18.633  1.00  0.00     0.272 C
BRANCH   9  10
HETATM   10  C2  UNL     1      -3.829   0.528 -18.722  1.00  0.00     0.026 C
HETATM   11  C1  UNL     1      -4.362   1.859 -18.333  1.00  0.00     0.007 C
ENDBRANCH   9  10
ENDBRANCH   6   9
ENDBRANCH   4   5
ENDBRANCH   3   4
ENDBRANCH   2   3
ENDBRANCH   1   2
BRANCH   1  12
HETATM   12  N2  UNL     1       3.192  -0.790 -24.078  1.00  0.00    -0.347 N
HETATM   13  C10 UNL     1       3.083  -0.598 -25.490  1.00  0.00     0.222 C
HETATM   14  O1  UNL     1       2.197  -1.158 -26.128  1.00  0.00    -0.273 OA
ATOM     15  H2  UNL     1       3.941  -0.306 -23.583  1.00  0.00     0.163 HD
BRANCH  13  16
HETATM   16  C11 UNL     1       4.064   0.287 -26.201  1.00  0.00     0.079 C
HETATM   17  C12 UNL     1       5.005  -0.547 -27.023  1.00  0.00     0.014 C
HETATM   18  C13 UNL     1       6.271  -0.891 -26.234  1.00  0.00     0.002 C
HETATM   19  C14 UNL     1       6.995   0.430 -26.047  1.00  0.00     0.015 C
HETATM   20  C15 UNL     1       6.175   1.285 -25.141  1.00  0.00     0.048 C
HETATM   21  C21 UNL     1       4.701   1.207 -25.228  1.00  0.00     0.029 C
BRANCH  20  22
HETATM   22  S2  UNL     1       6.769   3.009 -25.165  1.00  0.00    -0.155 SA
BRANCH  22  23
HETATM   23  C16 UNL     1       5.731   4.099 -24.147  1.00  0.00     0.178 C
BRANCH  23  24
HETATM   24  C17 UNL     1       6.167   3.983 -22.722  1.00  0.00     0.242 C
HETATM   25  O2  UNL     1       7.231   4.478 -22.342  1.00  0.00    -0.272 OA
HETATM   26  N3  UNL     1       5.327   3.299 -21.849  1.00  0.00    -0.245 N
HETATM   27  C18 UNL     1       4.040   2.649 -22.111  1.00  0.00     0.145 C
HETATM   28  S3  UNL     1       5.547   3.005 -20.162  1.00  0.00     0.235 S
HETATM   29  C19 UNL     1       3.132   3.207 -21.011  1.00  0.00     0.038 C
HETATM   30  C20 UNL     1       3.806   2.781 -19.713  1.00  0.00     0.165 C
HETATM   31  O3  UNL     1       6.255   1.704 -19.976  1.00  0.00    -0.205 OA
HETATM   32  O4  UNL     1       6.144   4.137 -19.422  1.00  0.00    -0.205 OA
ENDBRANCH  23  24
ENDBRANCH  22  23
ENDBRANCH  20  22
ENDBRANCH  13  16
ENDBRANCH   1  12
BRANCH   1  33
HETATM   33  C22 UNL     1       2.939  -3.021 -23.451  1.00  0.00     0.247 C
HETATM   34  O5  UNL     1       2.196  -3.925 -23.905  1.00  0.00    -0.271 OA
HETATM   35  N4  UNL     1       4.240  -3.236 -23.136  1.00  0.00    -0.305 N
ATOM     36  H4  UNL     1       4.790  -2.390 -23.291  1.00  0.00     0.171 HD
BRANCH  35  37
HETATM   37  C23 UNL     1       4.980  -4.177 -22.705  1.00  0.00     0.150 A
HETATM   38  N5  UNL     1       4.757  -5.365 -22.164  1.00  0.00    -0.346 N
HETATM   39  C24 UNL     1       5.742  -6.162 -21.900  1.00  0.00     0.097 A
ATOM     40  H5  UNL     1       3.802  -5.654 -21.953  1.00  0.00     0.167 HD
HETATM   41  C25 UNL     1       7.016  -5.737 -22.200  1.00  0.00     0.070 A
HETATM   42  S4  UNL     1       6.739  -4.200 -22.850  1.00  0.00    -0.064 SA
ENDBRANCH  35  37
ENDBRANCH   1  33
TORSDOF 13
ENDMDL