MODEL 1
REMARK VINA RESULT: -8.152545023      0.000      0.000
REMARK  13 active torsions:
REMARK  status: ('A' for Active; 'I' for Inactive)
REMARK    1  A    between atoms: C2_2  and  C3_3
REMARK    2  A    between atoms: C3_3  and  C5_5
REMARK    3  A    between atoms: C5_5  and  C6_6
REMARK    4  A    between atoms: C5_5  and  N1_9
REMARK    5  A    between atoms: C6_6  and  O1_7
REMARK    6  A    between atoms: C11_13  and  C12_14
REMARK    7  A    between atoms: C12_14  and  N2_15
REMARK    8  A    between atoms: N2_15  and  C13_16
REMARK    9  A    between atoms: N2_15  and  C18_22
REMARK   10  A    between atoms: C13_16  and  C14_17
REMARK   11  A    between atoms: C22_26  and  N3_27
REMARK   12  A    between atoms: C29_35  and  C30_36
REMARK   13  A    between atoms: C30_36  and  O3_37
ROOT
HETATM    1  N2  UNL     1       3.771   1.391 -21.887  1.00  0.00    -0.333 N
ENDROOT
BRANCH   1   2
HETATM    2  C12 UNL     1       3.493   1.231 -23.296  1.00  0.00     0.076 C
BRANCH   2   3
HETATM    3  C11 UNL     1       4.450   0.714 -24.245  1.00  0.00     0.052 C
HETATM    4  C9  UNL     1       4.457   1.657 -25.470  1.00  0.00     0.031 C
HETATM    5  C8  UNL     1       5.878   1.904 -25.926  1.00  0.00     0.083 C
HETATM    6  C10 UNL     1       3.832   2.991 -25.178  1.00  0.00     0.016 C
HETATM    7  N1  UNL     1       6.393   0.993 -26.870  1.00  0.00    -0.266 N
HETATM    8  S1  UNL     1       5.683  -0.529 -26.968  1.00  0.00     0.321 S
HETATM    9  N5  UNL     1       5.366  -1.209 -25.417  1.00  0.00    -0.302 N
HETATM   10  O4  UNL     1       4.445  -0.556 -27.835  1.00  0.00    -0.182 OA
HETATM   11  O5  UNL     1       6.643  -1.475 -27.673  1.00  0.00    -0.182 OA
HETATM   12  C31 UNL     1       4.112  -0.630 -24.903  1.00  0.00     0.144 C
ATOM     13  H5  UNL     1       5.947  -1.896 -24.936  1.00  0.00     0.173 HD
BRANCH   7  14
HETATM   14  C5  UNL     1       7.762   1.113 -27.170  1.00  0.00     0.129 C
BRANCH  14  15
HETATM   15  C3  UNL     1       8.097   2.198 -28.206  1.00  0.00     0.007 C
HETATM   16  C4  UNL     1       9.107   1.578 -29.187  1.00  0.00     0.012 C
BRANCH  15  17
HETATM   17  C2  UNL     1       8.779   3.395 -27.609  1.00  0.00     0.002 C
HETATM   18  C1  UNL     1       9.290   4.256 -28.759  1.00  0.00     0.005 C
ENDBRANCH  15  17
ENDBRANCH  14  15
BRANCH  14  19
HETATM   19  C6  UNL     1       8.643   1.198 -25.986  1.00  0.00     0.193 C
BRANCH  19  20
HETATM   20  O1  UNL     1       9.119  -0.005 -25.561  1.00  0.00    -0.394 OA
HETATM   21  C7  UNL     1       8.724  -0.318 -24.288  1.00  0.00     0.201 C
ENDBRANCH  19  20
ENDBRANCH  14  19
ENDBRANCH   7  14
ENDBRANCH   2   3
ENDBRANCH   1   2
BRANCH   1  22
HETATM   22  C13 UNL     1       5.075   1.430 -21.334  1.00  0.00     0.128 C
BRANCH  22  23
HETATM   23  C14 UNL     1       6.040   2.507 -21.555  1.00  0.00     0.062 C
HETATM   24  C15 UNL     1       7.450   2.188 -21.901  1.00  0.00     0.068 C
HETATM   25  C16 UNL     1       7.693   3.225 -23.026  1.00  0.00     0.033 C
HETATM   26  C17 UNL     1       6.778   4.344 -22.503  1.00  0.00     0.175 C
HETATM   27  O2  UNL     1       5.634   3.662 -22.164  1.00  0.00    -0.354 OA
ENDBRANCH  22  23
ENDBRANCH   1  22
BRANCH   1  28
HETATM   28  C18 UNL     1       2.594   1.450 -21.103  1.00  0.00     0.052 A
HETATM   29  C19 UNL     1       1.885   0.306 -20.807  1.00  0.00    -0.032 A
HETATM   30  C20 UNL     1       2.242  -1.011 -21.437  1.00  0.00     0.050 C
HETATM   31  C21 UNL     1       0.773   0.320 -19.994  1.00  0.00     0.038 A
HETATM   32  C22 UNL     1       0.313   1.472 -19.444  1.00  0.00     0.031 A
HETATM   33  C28 UNL     1       1.001   2.631 -19.728  1.00  0.00     0.041 A
HETATM   34  C29 UNL     1       2.132   2.607 -20.558  1.00  0.00    -0.005 A
BRANCH  32  35
HETATM   35  N3  UNL     1      -0.837   1.453 -18.629  1.00  0.00    -0.377 N
HETATM   36  C23 UNL     1      -1.025   2.357 -17.539  1.00  0.00     0.153 C
HETATM   37  C24 UNL     1      -2.394   2.999 -17.534  1.00  0.00     0.291 C
HETATM   38  N4  UNL     1      -3.428   2.076 -17.930  1.00  0.00     0.087 N
HETATM   39  C25 UNL     1      -4.744   2.613 -17.818  1.00  0.00     0.310 C
HETATM   40  C26 UNL     1      -3.149   1.365 -19.129  1.00  0.00     0.291 C
HETATM   41  C27 UNL     1      -1.892   0.508 -18.893  1.00  0.00     0.153 C
ENDBRANCH  32  35
BRANCH  34  42
HETATM   42  C30 UNL     1       2.664   3.954 -20.867  1.00  0.00     0.205 C
BRANCH  42  43
HETATM   43  O3  UNL     1       3.649   4.375 -19.959  1.00  0.00    -0.396 OA
ATOM     44  H3  UNL     1       4.357   3.749 -19.865  1.00  0.00     0.209 HD
ENDBRANCH  42  43
ENDBRANCH  34  42
ENDBRANCH   1  28
TORSDOF 13
ENDMDL