MODEL 1
REMARK VINA RESULT: -8.540132542      0.000      0.000
REMARK  13 active torsions:
REMARK  status: ('A' for Active; 'I' for Inactive)
REMARK    1  A    between atoms: C2_2  and  C4_4
REMARK    2  A    between atoms: C4_4  and  C5_5
REMARK    3  A    between atoms: C5_5  and  C6_6
REMARK    4  A    between atoms: C5_5  and  N4_23
REMARK       I    between atoms: C6_6  and  N1_8
REMARK    5  A    between atoms: N1_8  and  C7_10
REMARK    6  A    between atoms: C7_10  and  C8_11
REMARK    7  A    between atoms: C7_10  and  C14_20
REMARK       I    between atoms: C8_11  and  N2_13
REMARK       I    between atoms: N4_23  and  C18_25
REMARK    8  A    between atoms: C18_25  and  C19_27
REMARK    9  A    between atoms: C19_27  and  S1_28
REMARK   10  A    between atoms: S1_28  and  C20_29
REMARK   11  A    between atoms: C20_29  and  C21_30
REMARK   12  A    between atoms: C21_30  and  C23_32
REMARK   13  A    between atoms: C26_35  and  O4_36
ROOT
HETATM    1  C5  UNL     1       1.661   0.123 -21.126  1.00  0.00     0.101 C
ENDROOT
BRANCH   1   2
HETATM    2  C4  UNL     1       1.107   0.681 -19.877  1.00  0.00     0.012 C
BRANCH   2   3
HETATM    3  C2  UNL     1      -0.169   1.385 -19.813  1.00  0.00     0.002 C
HETATM    4  C1  UNL     1      -0.262   2.846 -19.785  1.00  0.00     0.013 C
HETATM    5  C3  UNL     1      -0.978   0.820 -18.644  1.00  0.00     0.013 C
ENDBRANCH   2   3
ENDBRANCH   1   2
BRANCH   1   6
HETATM    6  C6  UNL     1       2.968   0.713 -21.519  1.00  0.00     0.268 C
HETATM    7  O1  UNL     1       3.959  -0.049 -21.573  1.00  0.00    -0.266 OA
HETATM    8  N1  UNL     1       3.167   2.067 -21.831  1.00  0.00    -0.342 N
ATOM      9  H1  UNL     1       2.359   2.690 -21.785  1.00  0.00     0.163 HD
BRANCH   8  10
HETATM   10  C7  UNL     1       4.466   2.652 -22.221  1.00  0.00     0.180 C
BRANCH  10  11
HETATM   11  C8  UNL     1       4.544   2.815 -23.678  1.00  0.00     0.243 C
HETATM   12  O2  UNL     1       3.505   3.368 -24.208  1.00  0.00    -0.271 OA
HETATM   13  N2  UNL     1       5.577   2.454 -24.560  1.00  0.00    -0.347 N
HETATM   14  C9  UNL     1       6.815   1.810 -24.253  1.00  0.00     0.156 C
HETATM   15  C13 UNL     1       5.378   2.763 -25.987  1.00  0.00     0.156 C
HETATM   16  C10 UNL     1       8.051   2.536 -24.653  1.00  0.00     0.291 C
HETATM   17  N3  UNL     1       7.705   3.525 -25.654  1.00  0.00     0.087 N
HETATM   18  C11 UNL     1       8.937   3.774 -26.404  1.00  0.00     0.310 C
HETATM   19  C12 UNL     1       6.728   3.039 -26.585  1.00  0.00     0.291 C
ENDBRANCH  10  11
BRANCH  10  20
HETATM   20  C14 UNL     1       4.545   4.052 -21.607  1.00  0.00     0.009 C
HETATM   21  C15 UNL     1       5.920   4.617 -21.595  1.00  0.00     0.012 C
HETATM   22  C16 UNL     1       3.792   4.146 -20.318  1.00  0.00     0.012 C
ENDBRANCH  10  20
ENDBRANCH   8  10
ENDBRANCH   1   6
BRANCH   1  23
HETATM   23  N4  UNL     1       1.456  -1.227 -21.488  1.00  0.00    -0.317 N
HETATM   24  C17 UNL     1       1.458  -2.286 -20.506  1.00  0.00     0.159 C
HETATM   25  C18 UNL     1       1.284  -1.642 -22.819  1.00  0.00     0.233 C
HETATM   26  O3  UNL     1       1.149  -2.858 -23.092  1.00  0.00    -0.272 OA
BRANCH  25  27
HETATM   27  C19 UNL     1       1.258  -0.669 -23.935  1.00  0.00     0.181 C
BRANCH  27  28
HETATM   28  S1  UNL     1       2.710  -0.662 -24.910  1.00  0.00    -0.132 SA
BRANCH  28  29
HETATM   29  C20 UNL     1       3.023  -1.886 -26.120  1.00  0.00     0.048 C
BRANCH  29  30
HETATM   30  C21 UNL     1       3.977  -3.000 -25.891  1.00  0.00    -0.070 C
HETATM   31  C22 UNL     1       4.798  -3.404 -27.075  1.00  0.00     0.044 C
BRANCH  30  32
HETATM   32  C23 UNL     1       4.722  -2.902 -24.612  1.00  0.00     0.052 C
HETATM   33  C24 UNL     1       5.698  -1.836 -24.399  1.00  0.00     0.024 C
HETATM   34  C25 UNL     1       6.676  -1.520 -25.475  1.00  0.00     0.013 C
HETATM   35  C26 UNL     1       6.537  -2.349 -23.212  1.00  0.00     0.154 C
HETATM   36  C27 UNL     1       6.410  -3.849 -23.206  1.00  0.00     0.184 C
HETATM   37  O5  UNL     1       5.898  -4.281 -21.978  1.00  0.00    -0.345 OA
HETATM   38  C31 UNL     1       5.384  -4.214 -24.250  1.00  0.00     0.165 C
HETATM   39  C28 UNL     1       4.978  -5.262 -22.296  1.00  0.00     0.158 C
HETATM   40  C29 UNL     1       3.754  -5.245 -21.381  1.00  0.00     0.078 C
HETATM   41  C30 UNL     1       5.558  -6.667 -22.242  1.00  0.00     0.078 C
HETATM   42  O6  UNL     1       4.528  -5.062 -23.572  1.00  0.00    -0.347 OA
BRANCH  35  43
HETATM   43  O4  UNL     1       7.885  -2.036 -23.380  1.00  0.00    -0.393 OA
ATOM     44  H4  UNL     1       8.157  -1.361 -22.771  1.00  0.00     0.210 HD
ENDBRANCH  35  43
ENDBRANCH  30  32
ENDBRANCH  29  30
ENDBRANCH  28  29
ENDBRANCH  27  28
ENDBRANCH  25  27
ENDBRANCH   1  23
TORSDOF 13
ENDMDL