MODEL 3
REMARK VINA RESULT: -8.482600607      3.390      5.777
REMARK  12 active torsions:
REMARK  status: ('A' for Active; 'I' for Inactive)
REMARK    1  A    between atoms: C2_2  and  C3_3
REMARK    2  A    between atoms: C3_3  and  C4_4
REMARK    3  A    between atoms: C4_4  and  N1_5
REMARK    4  A    between atoms: C4_4  and  C14_22
REMARK       I    between atoms: N1_5  and  C5_7
REMARK    5  A    between atoms: C5_7  and  C6_9
REMARK    6  A    between atoms: C8_13  and  N3_14
REMARK       I    between atoms: C14_22  and  N5_24
REMARK    7  A    between atoms: C15_25  and  C16_26
REMARK       I    between atoms: C16_26  and  N6_28
REMARK    8  A    between atoms: N6_28  and  C17_30
REMARK    9  A    between atoms: C17_30  and  C18_31
REMARK       I    between atoms: N7_38  and  C24_39
REMARK   10  A    between atoms: C24_39  and  C25_41
REMARK   11  A    between atoms: C25_41  and  C27_43
REMARK   12  A    between atoms: C30_46  and  C31_47
ROOT
HETATM    1  C14 UNL     1       4.316   0.217 -24.835  1.00  0.00     0.245 C
HETATM    2  O2  UNL     1       3.244   0.313 -25.540  1.00  0.00    -0.271 OA
HETATM    3  N5  UNL     1       5.102  -0.952 -24.906  1.00  0.00    -0.314 N
HETATM    4  C15 UNL     1       4.763  -2.048 -25.776  1.00  0.00     0.199 C
HETATM    5  C23 UNL     1       5.710  -3.173 -25.434  1.00  0.00     0.163 C
HETATM    6  N7  UNL     1       6.365  -2.780 -24.218  1.00  0.00    -0.328 N
HETATM    7  C24 UNL     1       7.006  -3.637 -23.297  1.00  0.00     0.225 C
HETATM    8  O5  UNL     1       7.534  -3.119 -22.249  1.00  0.00    -0.273 OA
HETATM    9  C30 UNL     1       6.243  -1.322 -24.115  1.00  0.00     0.192 C
ENDROOT
BRANCH   1  10
HETATM   10  C4  UNL     1       4.583   1.399 -23.994  1.00  0.00     0.177 C
BRANCH  10  11
HETATM   11  C3  UNL     1       4.626   2.707 -24.769  1.00  0.00     0.034 C
BRANCH  11  12
HETATM   12  C2  UNL     1       5.932   3.227 -25.172  1.00  0.00    -0.002 C
HETATM   13  C1  UNL     1       6.277   2.929 -26.624  1.00  0.00     0.005 C
ENDBRANCH  11  12
ENDBRANCH  10  11
BRANCH  10  14
HETATM   14  N1  UNL     1       3.365   1.527 -23.122  1.00  0.00    -0.342 N
HETATM   15  C5  UNL     1       3.418   1.135 -21.792  1.00  0.00     0.270 C
HETATM   16  O1  UNL     1       4.510   0.668 -21.328  1.00  0.00    -0.266 OA
ATOM     17  H1  UNL     1       2.500   1.903 -23.509  1.00  0.00     0.163 HD
BRANCH  15  18
HETATM   18  C6  UNL     1       2.250   1.241 -20.903  1.00  0.00     0.116 A
HETATM   19  C7  UNL     1       1.894   2.444 -20.343  1.00  0.00     0.125 A
HETATM   20  N2  UNL     1       0.825   2.506 -19.534  1.00  0.00    -0.349 N
HETATM   21  C8  UNL     1       0.065   1.435 -19.233  1.00  0.00     0.118 A
ATOM     22  H2  UNL     1       0.576   3.408 -19.128  1.00  0.00     0.167 HD
HETATM   23  C13 UNL     1       0.441   0.244 -19.805  1.00  0.00     0.137 A
HETATM   24  N4  UNL     1       1.502   0.140 -20.619  1.00  0.00    -0.357 N
ATOM     25  H4  UNL     1       1.748  -0.763 -21.024  1.00  0.00     0.165 HD
BRANCH  21  26
HETATM   26  N3  UNL     1      -1.058   1.535 -18.375  1.00  0.00    -0.366 N
HETATM   27  C9  UNL     1      -2.199   0.637 -18.374  1.00  0.00     0.124 C
HETATM   28  C10 UNL     1      -3.375   1.470 -17.911  1.00  0.00     0.021 C
HETATM   29  C11 UNL     1      -2.789   2.830 -17.638  1.00  0.00     0.021 C
HETATM   30  C12 UNL     1      -1.330   2.498 -17.351  1.00  0.00     0.124 C
ENDBRANCH  21  26
ENDBRANCH  15  18
ENDBRANCH  10  14
ENDBRANCH   1  10
BRANCH   4  31
HETATM   31  C16 UNL     1       4.737  -1.826 -27.205  1.00  0.00     0.242 C
HETATM   32  O3  UNL     1       3.601  -2.060 -27.782  1.00  0.00    -0.271 OA
HETATM   33  N6  UNL     1       5.756  -1.394 -28.070  1.00  0.00    -0.359 N
ATOM     34  H6  UNL     1       6.678  -1.198 -27.680  1.00  0.00     0.162 HD
BRANCH  33  35
HETATM   35  C17 UNL     1       5.556  -1.219 -29.467  1.00  0.00     0.127 C
BRANCH  35  36
HETATM   36  C18 UNL     1       6.343  -2.096 -30.375  1.00  0.00     0.007 C
HETATM   37  C19 UNL     1       5.720  -3.478 -30.372  1.00  0.00     0.032 C
HETATM   38  C20 UNL     1       5.586  -3.930 -31.819  1.00  0.00     0.168 C
HETATM   39  O4  UNL     1       4.603  -3.115 -32.372  1.00  0.00    -0.391 OA
HETATM   40  C21 UNL     1       5.147  -1.873 -32.597  1.00  0.00     0.168 C
HETATM   41  C22 UNL     1       6.308  -1.485 -31.764  1.00  0.00     0.032 C
ENDBRANCH  35  36
ENDBRANCH  33  35
ENDBRANCH   4  31
BRANCH   9  42
HETATM   42  C31 UNL     1       7.533  -0.642 -24.365  1.00  0.00     0.043 C
HETATM   43  C32 UNL     1       7.846  -0.277 -25.773  1.00  0.00     0.009 C
ENDBRANCH   9  42
BRANCH   7  44
HETATM   44  C25 UNL     1       7.110  -5.093 -23.458  1.00  0.00     0.078 C
HETATM   45  C26 UNL     1       8.526  -5.376 -23.974  1.00  0.00     0.020 C
BRANCH  44  46
HETATM   46  C27 UNL     1       6.888  -5.764 -22.125  1.00  0.00    -0.002 A
HETATM   47  C28 UNL     1       6.487  -7.193 -22.068  1.00  0.00     0.006 A
HETATM   48  C29 UNL     1       5.483  -6.108 -21.708  1.00  0.00     0.006 A
ENDBRANCH  44  46
ENDBRANCH   7  44
TORSDOF 12
ENDMDL