MODEL 3
REMARK VINA RESULT: -7.509326029      2.696      7.531
REMARK  13 active torsions:
REMARK  status: ('A' for Active; 'I' for Inactive)
REMARK    1  A    between atoms: C2_2  and  C3_3
REMARK    2  A    between atoms: C3_3  and  C4_4
REMARK    3  A    between atoms: C4_4  and  C5_5
REMARK    4  A    between atoms: C7_10  and  C8_11
REMARK    5  A    between atoms: C8_11  and  C9_12
REMARK    6  A    between atoms: C11_14  and  O2_15
REMARK    7  A    between atoms: C12_18  and  C13_19
REMARK    8  A    between atoms: C13_19  and  C14_20
REMARK    9  A    between atoms: C19_27  and  C20_28
REMARK   10  A    between atoms: C20_28  and  C21_29
REMARK   11  A    between atoms: C25_36  and  C26_37
REMARK   12  A    between atoms: C26_37  and  C27_38
REMARK   13  A    between atoms: C27_38  and  S1_39
ROOT
HETATM    1  C5  UNL     1       4.420   1.154 -23.568  1.00  0.00     0.178 C
HETATM    2  C6  UNL     1       5.114   1.052 -22.259  1.00  0.00     0.241 C
HETATM    3  O1  UNL     1       4.557   0.260 -21.405  1.00  0.00    -0.271 OA
HETATM    4  N1  UNL     1       6.260   1.682 -21.838  1.00  0.00    -0.350 N
ATOM      5  H1  UNL     1       6.175   2.209 -20.969  1.00  0.00     0.163 HD
HETATM    6  C7  UNL     1       7.599   1.705 -22.467  1.00  0.00     0.139 C
HETATM    7  C11 UNL     1       7.625   0.760 -23.616  1.00  0.00     0.280 C
HETATM    8  O3  UNL     1       7.916   1.012 -24.866  1.00  0.00    -0.344 OA
HETATM    9  C12 UNL     1       8.579   0.769 -26.001  1.00  0.00     0.224 C
HETATM   10  C17 UNL     1       7.663   0.812 -27.181  1.00  0.00     0.288 C
HETATM   11  O4  UNL     1       7.594   1.878 -27.897  1.00  0.00    -0.262 OA
HETATM   12  O5  UNL     1       6.859  -0.232 -27.581  1.00  0.00    -0.317 OA
HETATM   13  C18 UNL     1       5.934  -0.954 -26.817  1.00  0.00     0.204 C
HETATM   14  C19 UNL     1       5.342  -2.034 -27.731  1.00  0.00     0.109 C
HETATM   15  N2  UNL     1       4.109  -2.545 -27.203  1.00  0.00    -0.354 N
ATOM     16  H2  UNL     1       3.814  -3.448 -27.574  1.00  0.00     0.163 HD
HETATM   17  C24 UNL     1       3.251  -1.977 -26.245  1.00  0.00     0.231 C
HETATM   18  O6  UNL     1       2.074  -1.648 -26.631  1.00  0.00    -0.273 OA
HETATM   19  C25 UNL     1       3.526  -1.701 -24.819  1.00  0.00     0.170 C
HETATM   20  C29 UNL     1       2.709  -0.570 -24.336  1.00  0.00     0.233 C
HETATM   21  O8  UNL     1       1.476  -0.565 -24.678  1.00  0.00    -0.272 OA
HETATM   22  N3  UNL     1       3.129   0.509 -23.542  1.00  0.00    -0.342 N
HETATM   23  C30 UNL     1       2.182   1.079 -22.562  1.00  0.00     0.153 C
ENDROOT
BRANCH  19  24
HETATM   24  C26 UNL     1       2.967  -2.944 -24.086  1.00  0.00     0.036 C
BRANCH  24  25
HETATM   25  C27 UNL     1       3.613  -3.166 -22.761  1.00  0.00     0.109 C
BRANCH  25  26
HETATM   26  S1  UNL     1       2.343  -3.072 -21.523  1.00  0.00     0.010 S
HETATM   27  C28 UNL     1       2.270  -4.561 -20.559  1.00  0.00     0.127 C
HETATM   28  O7  UNL     1       0.838  -2.808 -22.219  1.00  0.00    -0.258 OA
ENDBRANCH  25  26
ENDBRANCH  24  25
ENDBRANCH  19  24
BRANCH  14  29
HETATM   29  C20 UNL     1       5.301  -1.487 -29.108  1.00  0.00     0.031 C
BRANCH  29  30
HETATM   30  C21 UNL     1       5.023  -2.411 -30.228  1.00  0.00    -0.021 C
HETATM   31  C22 UNL     1       5.934  -3.576 -30.389  1.00  0.00     0.009 C
HETATM   32  C23 UNL     1       4.926  -1.708 -31.572  1.00  0.00     0.009 C
ENDBRANCH  29  30
ENDBRANCH  14  29
BRANCH   1  33
HETATM   33  C4  UNL     1       4.190   2.631 -23.935  1.00  0.00     0.035 C
BRANCH  33  34
HETATM   34  C3  UNL     1       4.169   2.732 -25.436  1.00  0.00     0.002 C
BRANCH  34  35
HETATM   35  C2  UNL     1       5.428   3.471 -25.877  1.00  0.00    -0.004 C
HETATM   36  C1  UNL     1       5.990   4.284 -24.716  1.00  0.00     0.005 C
ENDBRANCH  34  35
ENDBRANCH  33  34
ENDBRANCH   1  33
BRANCH   6  37
HETATM   37  C8  UNL     1       8.047   3.086 -22.666  1.00  0.00     0.030 C
BRANCH  37  38
HETATM   38  C9  UNL     1       9.513   3.297 -22.894  1.00  0.00    -0.002 C
HETATM   39  C10 UNL     1       9.645   3.896 -24.307  1.00  0.00     0.005 C
ENDBRANCH  37  38
ENDBRANCH   6  37
BRANCH   9  40
HETATM   40  C13 UNL     1       9.393  -0.496 -26.136  1.00  0.00     0.046 C
BRANCH  40  41
HETATM   41  C14 UNL     1      10.841  -0.233 -25.898  1.00  0.00    -0.020 C
HETATM   42  C15 UNL     1      11.078  -0.375 -24.387  1.00  0.00     0.009 C
HETATM   43  C16 UNL     1      11.203   1.172 -26.291  1.00  0.00     0.009 C
ENDBRANCH  40  41
ENDBRANCH   9  40
BRANCH   7  44
HETATM   44  O2  UNL     1       7.285  -0.425 -23.138  1.00  0.00    -0.369 OA
ATOM     45  H2  UNL     1       6.674  -0.804 -23.758  1.00  0.00     0.212 HD
ENDBRANCH   7  44
TORSDOF 13
ENDMDL