MODEL 2
REMARK VINA RESULT: -8.433106462      2.135      8.439
REMARK  16 active torsions:
REMARK  status: ('A' for Active; 'I' for Inactive)
REMARK    1  A    between atoms: O1_2  and  C2_3
REMARK    2  A    between atoms: C2_3  and  C5_6
REMARK       I    between atoms: C5_6  and  N1_8
REMARK       I    between atoms: N2_11  and  C8_12
REMARK    3  A    between atoms: C8_12  and  C9_14
REMARK    4  A    between atoms: C9_14  and  C11_16
REMARK    5  A    between atoms: C11_16  and  C12_17
REMARK    6  A    between atoms: C12_17  and  N3_18
REMARK    7  A    between atoms: C12_17  and  C26_38
REMARK       I    between atoms: N3_18  and  C13_20
REMARK    8  A    between atoms: C13_20  and  C14_22
REMARK    9  A    between atoms: N4_26  and  C18_27
REMARK   10  A    between atoms: C18_27  and  O5_28
REMARK   11  A    between atoms: C18_27  and  C19_30
REMARK   12  A    between atoms: C19_30  and  C20_32
REMARK   13  A    between atoms: C20_32  and  C23_35
REMARK   14  A    between atoms: C26_38  and  O7_39
REMARK   15  A    between atoms: C26_38  and  C27_41
REMARK   16  A    between atoms: C27_41  and  C28_42
ROOT
HETATM    1  C12 UNL     1       4.633   2.769 -22.377  1.00  0.00     0.019 C
ENDROOT
BRANCH   1   2
HETATM    2  C11 UNL     1       3.386   3.518 -22.017  1.00  0.00     0.069 C
BRANCH   2   3
HETATM    3  C9  UNL     1       3.017   3.554 -20.560  1.00  0.00     0.079 C
HETATM    4  C10 UNL     1       4.252   3.665 -19.670  1.00  0.00     0.020 C
BRANCH   3   5
HETATM    5  C8  UNL     1       2.374   2.269 -20.148  1.00  0.00     0.224 C
HETATM    6  N2  UNL     1       1.036   2.195 -19.726  1.00  0.00    -0.349 N
HETATM    7  C7  UNL     1       0.091   3.274 -19.611  1.00  0.00     0.145 C
HETATM    8  C31 UNL     1       0.514   0.875 -19.347  1.00  0.00     0.145 C
HETATM    9  C6  UNL     1      -0.963   2.941 -18.535  1.00  0.00     0.145 C
HETATM   10  N1  UNL     1      -1.715   1.784 -18.933  1.00  0.00    -0.346 N
HETATM   11  C5  UNL     1      -3.068   1.501 -18.721  1.00  0.00     0.254 C
HETATM   12  C32 UNL     1      -0.946   0.763 -19.672  1.00  0.00     0.145 C
HETATM   13  O2  UNL     1      -3.561   0.406 -19.214  1.00  0.00    -0.270 OA
HETATM   14  O3  UNL     1       3.056   1.223 -20.182  1.00  0.00    -0.273 OA
BRANCH  11  15
HETATM   15  C2  UNL     1      -4.080   2.303 -17.986  1.00  0.00     0.133 C
HETATM   16  C3  UNL     1      -4.600   3.261 -19.124  1.00  0.00     0.056 C
HETATM   17  C4  UNL     1      -5.268   1.480 -17.584  1.00  0.00     0.056 C
BRANCH  15  18
HETATM   18  O1  UNL     1      -3.602   3.161 -17.045  1.00  0.00    -0.376 OA
HETATM   19  C1  UNL     1      -4.509   4.049 -16.523  1.00  0.00     0.203 C
ENDBRANCH  15  18
ENDBRANCH  11  15
ENDBRANCH   3   5
ENDBRANCH   2   3
ENDBRANCH   1   2
BRANCH   1  20
HETATM   20  N3  UNL     1       4.470   1.599 -23.181  1.00  0.00    -0.330 N
HETATM   21  C13 UNL     1       3.862   1.642 -24.501  1.00  0.00     0.244 C
HETATM   22  O4  UNL     1       3.483   2.742 -24.894  1.00  0.00    -0.271 OA
ATOM     23  H3  UNL     1       4.792   0.703 -22.816  1.00  0.00     0.168 HD
BRANCH  21  24
HETATM   24  C14 UNL     1       3.743   0.414 -25.256  1.00  0.00     0.178 C
HETATM   25  C15 UNL     1       4.480   0.670 -26.624  1.00  0.00     0.037 C
HETATM   26  C16 UNL     1       4.789  -0.716 -27.081  1.00  0.00     0.022 C
HETATM   27  C17 UNL     1       4.110  -1.630 -26.132  1.00  0.00     0.126 C
HETATM   28  N4  UNL     1       4.289  -0.807 -24.841  1.00  0.00    -0.345 N
BRANCH  28  29
HETATM   29  C18 UNL     1       4.786  -1.505 -23.743  1.00  0.00     0.186 C
BRANCH  29  30
HETATM   30  O5  UNL     1       5.942  -1.019 -23.318  1.00  0.00    -0.343 OA
ATOM     31  H5  UNL     1       6.555  -1.704 -23.077  1.00  0.00     0.219 HD
ENDBRANCH  29  30
BRANCH  29  32
HETATM   32  C19 UNL     1       4.362  -2.617 -22.968  1.00  0.00     0.207 C
HETATM   33  O6  UNL     1       5.147  -3.488 -22.552  1.00  0.00    -0.288 OA
BRANCH  32  34
HETATM   34  C20 UNL     1       2.928  -2.849 -22.567  1.00  0.00     0.025 C
HETATM   35  C21 UNL     1       2.077  -3.358 -23.678  1.00  0.00     0.024 C
HETATM   36  C22 UNL     1       2.995  -4.046 -21.564  1.00  0.00     0.024 C
BRANCH  34  37
HETATM   37  C23 UNL     1       2.308  -1.752 -21.806  1.00  0.00    -0.007 C
HETATM   38  C24 UNL     1       1.473  -2.394 -20.681  1.00  0.00     0.011 C
HETATM   39  C25 UNL     1       1.393  -0.819 -22.518  1.00  0.00     0.011 C
ENDBRANCH  34  37
ENDBRANCH  32  34
ENDBRANCH  29  32
ENDBRANCH  28  29
ENDBRANCH  21  24
ENDBRANCH   1  20
BRANCH   1  40
HETATM   40  C26 UNL     1       5.756   3.694 -22.745  1.00  0.00     0.164 C
BRANCH  40  41
HETATM   41  O7  UNL     1       5.140   4.780 -23.438  1.00  0.00    -0.390 OA
ATOM     42  H7  UNL     1       5.712   4.967 -24.172  1.00  0.00     0.210 HD
ENDBRANCH  40  41
BRANCH  40  43
HETATM   43  C27 UNL     1       6.868   3.236 -23.559  1.00  0.00     0.041 C
BRANCH  43  44
HETATM   44  C28 UNL     1       7.258   3.988 -24.790  1.00  0.00    -0.020 C
HETATM   45  C29 UNL     1       6.896   3.234 -26.059  1.00  0.00     0.009 C
HETATM   46  C30 UNL     1       8.812   3.968 -24.784  1.00  0.00     0.009 C
ENDBRANCH  43  44
ENDBRANCH  40  43
ENDBRANCH   1  40
TORSDOF 16
ENDMDL