MODEL 5
REMARK VINA RESULT: -7.797194311      0.685      1.041
REMARK  14 active torsions:
REMARK  status: ('A' for Active; 'I' for Inactive)
REMARK    1  A    between atoms: C2_2  and  O1_3
REMARK    2  A    between atoms: O1_3  and  C3_4
REMARK       I    between atoms: C3_4  and  N1_6
REMARK    3  A    between atoms: N2_9  and  C6_10
REMARK    4  A    between atoms: C6_10  and  O3_11
REMARK    5  A    between atoms: C7_13  and  N3_14
REMARK    6  A    between atoms: C7_13  and  C25_40
REMARK       I    between atoms: N3_14  and  C8_16
REMARK    7  A    between atoms: C8_16  and  C9_18
REMARK    8  A    between atoms: C9_18  and  C10_19
REMARK    9  A    between atoms: C9_18  and  N4_25
REMARK   10  A    between atoms: C10_19  and  C11_20
REMARK   11  A    between atoms: C11_20  and  S1_21
REMARK   12  A    between atoms: S1_21  and  C12_22
REMARK       I    between atoms: N4_25  and  C15_27
REMARK   13  A    between atoms: C15_27  and  C16_29
REMARK   14  A    between atoms: C25_40  and  C27_42
ROOT
HETATM    1  N3  UNL     1       3.678   1.067 -21.845  1.00  0.00    -0.322 N
ATOM      2  H3  UNL     1       4.006   0.223 -21.375  1.00  0.00     0.169 HD
HETATM    3  C8  UNL     1       4.021   1.238 -23.178  1.00  0.00     0.245 C
HETATM    4  O4  UNL     1       3.617   2.305 -23.772  1.00  0.00    -0.271 OA
ENDROOT
BRANCH   3   5
HETATM    5  C9  UNL     1       4.819   0.300 -23.991  1.00  0.00     0.177 C
BRANCH   5   6
HETATM    6  C10 UNL     1       5.107  -0.931 -23.172  1.00  0.00     0.045 C
BRANCH   6   7
HETATM    7  C11 UNL     1       5.032  -2.215 -23.973  1.00  0.00     0.076 C
BRANCH   7   8
HETATM    8  S1  UNL     1       3.437  -2.997 -23.644  1.00  0.00    -0.165 SA
BRANCH   8   9
HETATM    9  C12 UNL     1       2.215  -2.408 -24.844  1.00  0.00     0.039 C
HETATM   10  C13 UNL     1       2.882  -1.915 -26.110  1.00  0.00     0.021 C
HETATM   11  C14 UNL     1       1.429  -1.262 -24.246  1.00  0.00     0.021 C
ENDBRANCH   8   9
ENDBRANCH   7   8
ENDBRANCH   6   7
ENDBRANCH   5   6
BRANCH   5  12
HETATM   12  N4  UNL     1       6.048   0.870 -24.459  1.00  0.00    -0.346 N
HETATM   13  C15 UNL     1       6.430   1.022 -25.800  1.00  0.00     0.254 C
HETATM   14  O5  UNL     1       5.693   0.653 -26.739  1.00  0.00    -0.271 OA
ATOM     15  H4  UNL     1       6.705   1.196 -23.750  1.00  0.00     0.163 HD
BRANCH  13  16
HETATM   16  C16 UNL     1       7.741   1.635 -26.148  1.00  0.00     0.346 C
HETATM   17  C17 UNL     1       7.603   3.085 -26.533  1.00  0.00     0.265 C
HETATM   18  C18 UNL     1       8.141   3.368 -27.899  1.00  0.00     0.038 C
HETATM   19  N6  UNL     1       8.149   3.981 -25.537  1.00  0.00     0.098 N
HETATM   20  C19 UNL     1       9.558   3.780 -27.974  1.00  0.00     0.004 C
HETATM   21  C20 UNL     1      10.162   4.334 -26.727  1.00  0.00     0.038 C
HETATM   22  C21 UNL     1       9.569   3.705 -25.457  1.00  0.00     0.251 C
HETATM   23  C22 UNL     1       9.897   2.235 -25.512  1.00  0.00     0.308 C
HETATM   24  N5  UNL     1       8.746   1.391 -25.148  1.00  0.00     0.102 N
HETATM   25  C23 UNL     1       9.199   0.015 -25.262  1.00  0.00     0.311 C
HETATM   26  C24 UNL     1       7.483   3.914 -24.276  1.00  0.00     0.311 C
ENDBRANCH  13  16
ENDBRANCH   5  12
ENDBRANCH   3   5
BRANCH   1  27
HETATM   27  C7  UNL     1       2.867   2.026 -21.053  1.00  0.00     0.088 C
HETATM   28  C6  UNL     1       1.688   1.417 -20.508  1.00  0.00     0.166 C
BRANCH  28  29
HETATM   29  N2  UNL     1       0.666   1.746 -19.629  1.00  0.00    -0.357 N
HETATM   30  C5  UNL     1      -0.093   0.611 -18.953  1.00  0.00     0.145 C
HETATM   31  C4  UNL     1      -1.546   0.738 -19.329  1.00  0.00     0.148 C
HETATM   32  N1  UNL     1      -2.045   2.098 -19.277  1.00  0.00    -0.325 N
HETATM   33  C3  UNL     1      -3.284   2.438 -18.692  1.00  0.00     0.362 C
HETATM   34  C30 UNL     1      -1.229   3.154 -19.842  1.00  0.00     0.148 C
HETATM   35  O2  UNL     1      -3.670   3.619 -18.682  1.00  0.00    -0.238 OA
HETATM   36  C29 UNL     1       0.158   3.013 -19.189  1.00  0.00     0.145 C
BRANCH  33  37
HETATM   37  O1  UNL     1      -4.068   1.453 -18.131  1.00  0.00    -0.304 OA
BRANCH  37  38
HETATM   38  C2  UNL     1      -5.446   1.710 -17.833  1.00  0.00     0.176 C
HETATM   39  C1  UNL     1      -5.660   1.981 -16.377  1.00  0.00     0.034 C
ENDBRANCH  37  38
ENDBRANCH  33  37
ENDBRANCH  28  29
BRANCH  28  40
HETATM   40  O3  UNL     1       1.524   0.169 -20.981  1.00  0.00    -0.344 OA
ATOM     41  H3  UNL     1       1.295  -0.428 -20.279  1.00  0.00     0.219 HD
ENDBRANCH  28  40
BRANCH  27  42
HETATM   42  C25 UNL     1       3.700   2.995 -20.328  1.00  0.00    -0.053 C
HETATM   43  C26 UNL     1       4.098   2.678 -18.930  1.00  0.00     0.046 C
BRANCH  42  44
HETATM   44  C27 UNL     1       3.538   4.437 -20.698  1.00  0.00     0.031 C
HETATM   45  C28 UNL     1       4.724   4.888 -21.544  1.00  0.00     0.010 C
ENDBRANCH  42  44
ENDBRANCH  27  42
ENDBRANCH   1  27
TORSDOF 14
ENDMDL