MODEL 1
REMARK VINA RESULT: -9.250139381      0.000      0.000
REMARK  13 active torsions:
REMARK  status: ('A' for Active; 'I' for Inactive)
REMARK    1  A    between atoms: C2_2  and  N1_3
REMARK    2  A    between atoms: N1_3  and  C3_4
REMARK       I    between atoms: N1_3  and  C5_6
REMARK    3  A    between atoms: C5_6  and  C6_8
REMARK    4  A    between atoms: C6_8  and  C7_9
REMARK    5  A    between atoms: C12_14  and  C13_15
REMARK    6  A    between atoms: C13_15  and  C14_16
REMARK    7  A    between atoms: C13_15  and  N2_20
REMARK    8  A    between atoms: C14_16  and  C15_17
REMARK       I    between atoms: N2_20  and  C18_22
REMARK    9  A    between atoms: C18_22  and  C19_24
REMARK       I    between atoms: C19_24  and  N3_26
REMARK   10  A    between atoms: N4_29  and  C22_30
REMARK   11  A    between atoms: N5_38  and  C30_39
REMARK   12  A    between atoms: C30_39  and  O4_40
REMARK   13  A    between atoms: C30_39  and  C31_42
ROOT
HETATM    1  C7  UNL     1       0.147   1.798 -20.062  1.00  0.00     0.234 C
HETATM    2  C8  UNL     1       0.273   0.509 -19.343  1.00  0.00     0.038 C
HETATM    3  C9  UNL     1       1.253  -0.284 -20.216  1.00  0.00     0.038 C
HETATM    4  C10 UNL     1       1.610   0.646 -21.301  1.00  0.00     0.228 C
HETATM    5  C11 UNL     1       3.011   0.526 -21.859  1.00  0.00     0.074 C
HETATM    6  C12 UNL     1       3.412   1.973 -22.148  1.00  0.00     0.253 C
HETATM    7  N5  UNL     1       3.633   2.702 -20.969  1.00  0.00     0.159 N
HETATM    8  C33 UNL     1       2.316   2.755 -20.288  1.00  0.00     0.548 C
HETATM    9  N6  UNL     1       1.306   1.982 -20.879  1.00  0.00     0.126 N
ENDROOT
BRANCH   6  10
HETATM   10  C13 UNL     1       4.349   2.019 -23.285  1.00  0.00     0.118 C
BRANCH  10  11
HETATM   11  C14 UNL     1       3.799   2.766 -24.491  1.00  0.00     0.031 C
BRANCH  11  12
HETATM   12  C15 UNL     1       4.827   3.620 -25.180  1.00  0.00    -0.021 C
HETATM   13  C16 UNL     1       5.618   2.910 -26.229  1.00  0.00     0.009 C
HETATM   14  C17 UNL     1       5.799   4.229 -24.187  1.00  0.00     0.009 C
ENDBRANCH  11  12
ENDBRANCH  10  11
BRANCH  10  15
HETATM   15  N2  UNL     1       4.464   0.632 -23.779  1.00  0.00    -0.346 N
HETATM   16  C18 UNL     1       5.583  -0.183 -23.625  1.00  0.00     0.309 C
HETATM   17  O2  UNL     1       6.596   0.244 -23.027  1.00  0.00    -0.262 OA
ATOM     18  H2  UNL     1       3.660   0.240 -24.270  1.00  0.00     0.163 HD
BRANCH  16  19
HETATM   19  C19 UNL     1       5.594  -1.528 -24.152  1.00  0.00     0.311 C
HETATM   20  O3  UNL     1       5.256  -2.488 -23.381  1.00  0.00    -0.262 OA
HETATM   21  N3  UNL     1       5.955  -1.864 -25.475  1.00  0.00    -0.341 N
HETATM   22  C20 UNL     1       5.934  -3.250 -25.914  1.00  0.00     0.156 C
HETATM   23  C29 UNL     1       6.346  -0.863 -26.427  1.00  0.00     0.156 C
HETATM   24  C21 UNL     1       5.152  -3.399 -27.202  1.00  0.00     0.292 C
HETATM   25  N4  UNL     1       5.407  -2.290 -28.109  1.00  0.00     0.096 N
HETATM   26  C28 UNL     1       6.580  -1.566 -27.772  1.00  0.00     0.292 C
BRANCH  25  27
HETATM   27  C22 UNL     1       5.272  -2.692 -29.477  1.00  0.00     0.223 C
HETATM   28  C23 UNL     1       5.320  -1.475 -30.383  1.00  0.00     0.036 C
HETATM   29  C24 UNL     1       4.831  -1.855 -31.764  1.00  0.00     0.002 C
HETATM   30  C25 UNL     1       5.747  -2.925 -32.321  1.00  0.00     0.000 C
HETATM   31  C26 UNL     1       5.908  -4.079 -31.391  1.00  0.00     0.002 C
HETATM   32  C27 UNL     1       6.269  -3.686 -29.969  1.00  0.00     0.036 C
ENDBRANCH  25  27
ENDBRANCH  16  19
ENDBRANCH  10  15
ENDBRANCH   6  10
BRANCH   7  33
HETATM   33  C30 UNL     1       4.599   2.367 -20.013  1.00  0.00     0.429 C
BRANCH  33  34
HETATM   34  O4  UNL     1       5.492   1.361 -20.421  1.00  0.00    -0.362 OA
ATOM     35  H4  UNL     1       5.841   0.836 -19.711  1.00  0.00     0.212 HD
ENDBRANCH  33  34
BRANCH  33  36
HETATM   36  C31 UNL     1       5.397   3.410 -19.364  1.00  0.00     0.181 C
HETATM   37  C32 UNL     1       5.595   3.487 -17.872  1.00  0.00     0.096 C
HETATM   38  O5  UNL     1       5.939   4.264 -20.015  1.00  0.00    -0.294 OA
ENDBRANCH  33  36
ENDBRANCH   7  33
BRANCH   1  39
HETATM   39  C6  UNL     1      -0.177   2.995 -19.217  1.00  0.00     0.139 C
BRANCH  39  40
HETATM   40  C5  UNL     1      -1.211   2.626 -18.223  1.00  0.00     0.221 C
HETATM   41  N1  UNL     1      -2.603   2.730 -18.508  1.00  0.00    -0.353 N
HETATM   42  O1  UNL     1      -0.924   2.203 -17.073  1.00  0.00    -0.273 OA
BRANCH  41  43
HETATM   43  C2  UNL     1      -3.606   2.377 -17.542  1.00  0.00     0.121 C
HETATM   44  C1  UNL     1      -4.336   3.556 -16.983  1.00  0.00     0.026 C
ENDBRANCH  41  43
BRANCH  41  45
HETATM   45  C3  UNL     1      -2.996   3.202 -19.815  1.00  0.00     0.121 C
HETATM   46  C4  UNL     1      -3.551   2.101 -20.693  1.00  0.00     0.026 C
ENDBRANCH  41  45
ENDBRANCH  39  40
ENDBRANCH   1  39
TORSDOF 13
ENDMDL