MODEL 3
REMARK VINA RESULT: -8.150839604      4.411      8.282
REMARK  15 active torsions:
REMARK  status: ('A' for Active; 'I' for Inactive)
REMARK    1  A    between atoms: C2_2  and  C3_3
REMARK    2  A    between atoms: C3_3  and  C4_4
REMARK    3  A    between atoms: C4_4  and  O1_5
REMARK    4  A    between atoms: O1_5  and  C5_6
REMARK       I    between atoms: C5_6  and  N1_8
REMARK    5  A    between atoms: N2_11  and  C8_12
REMARK    6  A    between atoms: C8_12  and  O3_13
REMARK    7  A    between atoms: C9_15  and  N3_16
REMARK    8  A    between atoms: C9_15  and  C28_45
REMARK       I    between atoms: N3_16  and  C10_18
REMARK    9  A    between atoms: C10_18  and  C11_20
REMARK   10  A    between atoms: N4_22  and  C13_23
REMARK   11  A    between atoms: C13_23  and  C14_24
REMARK       I    between atoms: N6_30  and  C19_31
REMARK   12  A    between atoms: C19_31  and  C20_33
REMARK   13  A    between atoms: C20_33  and  N7_34
REMARK   14  A    between atoms: C20_33  and  C21_38
REMARK   15  A    between atoms: C21_38  and  C22_39
ROOT
HETATM    1  C11 UNL     1       1.840   1.464 -19.586  1.00  0.00     0.215 C
HETATM    2  C12 UNL     1       3.166   2.154 -19.781  1.00  0.00     0.148 C
HETATM    3  N4  UNL     1       2.861   3.238 -20.686  1.00  0.00    -0.211 NA
HETATM    4  N5  UNL     1       1.509   3.376 -20.808  1.00  0.00    -0.042 NA
HETATM    5  N6  UNL     1       0.914   2.550 -19.843  1.00  0.00    -0.232 N
HETATM    6  C19 UNL     1      -0.325   2.742 -19.225  1.00  0.00     0.268 C
HETATM    7  O5  UNL     1      -0.652   1.872 -18.337  1.00  0.00    -0.270 OA
ENDROOT
BRANCH   1   8
HETATM    8  C10 UNL     1       1.743   0.373 -20.621  1.00  0.00     0.248 C
HETATM    9  N3  UNL     1       2.610   0.345 -21.726  1.00  0.00    -0.322 N
ATOM     10  H3  UNL     1       3.315   1.076 -21.824  1.00  0.00     0.169 HD
HETATM   11  O4  UNL     1       0.850  -0.495 -20.430  1.00  0.00    -0.271 OA
BRANCH   9  12
HETATM   12  C9  UNL     1       2.529  -0.701 -22.734  1.00  0.00     0.087 C
HETATM   13  C8  UNL     1       3.819  -1.256 -23.076  1.00  0.00     0.166 C
BRANCH  13  14
HETATM   14  N2  UNL     1       4.350  -2.147 -23.970  1.00  0.00    -0.357 N
HETATM   15  C7  UNL     1       3.746  -2.608 -25.180  1.00  0.00     0.145 C
HETATM   16  C6  UNL     1       4.647  -3.613 -25.930  1.00  0.00     0.148 C
HETATM   17  N1  UNL     1       5.982  -3.084 -26.024  1.00  0.00    -0.325 N
HETATM   18  C5  UNL     1       6.655  -3.149 -27.285  1.00  0.00     0.362 C
HETATM   19  C32 UNL     1       6.623  -2.506 -24.832  1.00  0.00     0.148 C
HETATM   20  O2  UNL     1       7.830  -2.681 -27.280  1.00  0.00    -0.238 OA
HETATM   21  C31 UNL     1       5.680  -2.743 -23.676  1.00  0.00     0.145 C
BRANCH  18  22
HETATM   22  O1  UNL     1       6.064  -3.681 -28.404  1.00  0.00    -0.304 OA
BRANCH  22  23
HETATM   23  C4  UNL     1       5.463  -2.875 -29.371  1.00  0.00     0.180 C
BRANCH  23  24
HETATM   24  C3  UNL     1       5.561  -3.484 -30.742  1.00  0.00     0.026 C
BRANCH  24  25
HETATM   25  C2  UNL     1       4.998  -2.498 -31.778  1.00  0.00    -0.002 C
HETATM   26  C1  UNL     1       5.846  -1.255 -31.822  1.00  0.00     0.005 C
ENDBRANCH  24  25
ENDBRANCH  23  24
ENDBRANCH  22  23
ENDBRANCH  18  22
ENDBRANCH  13  14
BRANCH  13  27
HETATM   27  O3  UNL     1       4.792  -0.745 -22.276  1.00  0.00    -0.344 OA
ATOM     28  H3  UNL     1       4.751  -1.135 -21.410  1.00  0.00     0.219 HD
ENDBRANCH  13  27
BRANCH  12  29
HETATM   29  C28 UNL     1       1.509  -0.388 -23.772  1.00  0.00    -0.057 C
HETATM   30  C29 UNL     1       1.997   0.401 -24.951  1.00  0.00     0.045 C
HETATM   31  C30 UNL     1       0.579  -1.466 -24.133  1.00  0.00     0.045 C
ENDBRANCH  12  29
ENDBRANCH   9  12
ENDBRANCH   1   8
BRANCH   3  32
HETATM   32  C13 UNL     1       3.631   4.405 -20.429  1.00  0.00     0.116 C
BRANCH  32  33
HETATM   33  C14 UNL     1       4.476   4.853 -21.594  1.00  0.00     0.000 C
HETATM   34  C15 UNL     1       4.259   3.917 -22.787  1.00  0.00     0.006 C
HETATM   35  C16 UNL     1       5.517   3.996 -23.585  1.00  0.00     0.000 C
HETATM   36  C17 UNL     1       6.618   4.306 -22.618  1.00  0.00     0.000 C
HETATM   37  C18 UNL     1       5.946   4.749 -21.327  1.00  0.00     0.006 C
ENDBRANCH  32  33
ENDBRANCH   3  32
BRANCH   6  38
HETATM   38  C20 UNL     1      -1.294   3.828 -19.475  1.00  0.00     0.276 C
BRANCH  38  39
HETATM   39  N7  UNL     1      -1.349   4.641 -18.263  1.00  0.00    -0.066 N
ATOM     40  H73 UNL     1      -0.496   4.587 -17.706  1.00  0.00     0.275 HD
ATOM     41  H72 UNL     1      -1.318   5.643 -18.452  1.00  0.00     0.275 HD
ATOM     42  H71 UNL     1      -2.182   4.356 -17.748  1.00  0.00     0.275 HD
ENDBRANCH  38  39
BRANCH  38  43
HETATM   43  C21 UNL     1      -2.639   3.198 -19.748  1.00  0.00     0.047 C
BRANCH  43  44
HETATM   44  C22 UNL     1      -3.537   3.117 -18.553  1.00  0.00    -0.012 C
HETATM   45  C23 UNL     1      -4.208   1.810 -18.327  1.00  0.00     0.005 C
HETATM   46  C24 UNL     1      -4.804   1.819 -16.935  1.00  0.00     0.000 C
HETATM   47  C25 UNL     1      -5.651   3.027 -16.656  1.00  0.00     0.000 C
HETATM   48  C26 UNL     1      -4.954   4.323 -17.001  1.00  0.00     0.000 C
HETATM   49  C27 UNL     1      -4.582   4.199 -18.481  1.00  0.00     0.005 C
ENDBRANCH  43  44
ENDBRANCH  38  43
ENDBRANCH   6  38
TORSDOF 15
ENDMDL