MODEL 5
REMARK VINA RESULT: -8.333675112      3.105      7.541
REMARK  14 active torsions:
REMARK  status: ('A' for Active; 'I' for Inactive)
REMARK    1  A    between atoms: C2_2  and  C3_3
REMARK       I    between atoms: N1_4  and  C4_6
REMARK    2  A    between atoms: C4_6  and  C5_8
REMARK       I    between atoms: N2_11  and  C8_12
REMARK    3  A    between atoms: C8_12  and  C9_14
REMARK    4  A    between atoms: C9_14  and  C10_16
REMARK    5  A    between atoms: C10_16  and  C11_17
REMARK    6  A    between atoms: C10_16  and  N3_22
REMARK    7  A    between atoms: C11_17  and  C12_18
REMARK       I    between atoms: N3_22  and  C16_24
REMARK    8  A    between atoms: C16_24  and  C17_26
REMARK       I    between atoms: N4_30  and  C21_31
REMARK    9  A    between atoms: C21_31  and  C22_33
REMARK   10  A    between atoms: C22_33  and  C23_35
REMARK   11  A    between atoms: C23_35  and  N5_36
REMARK   12  A    between atoms: C23_35  and  C29_45
REMARK       I    between atoms: N5_36  and  C24_38
REMARK   13  A    between atoms: C24_38  and  O8_40
REMARK   14  A    between atoms: O8_40  and  C25_41
ROOT
HETATM    1  N3  UNL     1       1.978   2.529 -20.332  1.00  0.00    -0.347 N
ATOM      2  H3  UNL     1       1.752   2.967 -21.225  1.00  0.00     0.163 HD
HETATM    3  C16 UNL     1       3.242   2.832 -19.686  1.00  0.00     0.241 C
HETATM    4  O4  UNL     1       3.408   2.230 -18.607  1.00  0.00    -0.271 OA
ENDROOT
BRANCH   3   5
HETATM    5  C17 UNL     1       4.096   3.750 -20.360  1.00  0.00     0.179 C
HETATM    6  C18 UNL     1       3.451   4.583 -21.481  1.00  0.00     0.037 C
HETATM    7  C19 UNL     1       4.634   5.204 -22.208  1.00  0.00     0.022 C
HETATM    8  C20 UNL     1       5.825   4.686 -21.372  1.00  0.00     0.127 C
HETATM    9  N4  UNL     1       5.294   3.351 -21.036  1.00  0.00    -0.332 N
HETATM   10  C21 UNL     1       5.878   2.134 -21.415  1.00  0.00     0.296 C
HETATM   11  O5  UNL     1       5.180   1.091 -21.150  1.00  0.00    -0.264 OA
BRANCH  10  12
HETATM   12  C22 UNL     1       7.133   1.894 -22.050  1.00  0.00     0.262 C
HETATM   13  O6  UNL     1       8.201   2.010 -21.359  1.00  0.00    -0.280 OA
BRANCH  12  14
HETATM   14  C23 UNL     1       7.345   1.522 -23.436  1.00  0.00     0.073 C
BRANCH  14  15
HETATM   15  N5  UNL     1       6.106   0.969 -23.975  1.00  0.00    -0.302 N
HETATM   16  C24 UNL     1       5.778  -0.398 -24.014  1.00  0.00     0.365 C
HETATM   17  O7  UNL     1       6.566  -1.300 -23.561  1.00  0.00    -0.238 OA
ATOM     18  H5  UNL     1       5.423   1.626 -24.353  1.00  0.00     0.171 HD
BRANCH  16  19
HETATM   19  O8  UNL     1       4.596  -0.893 -24.539  1.00  0.00    -0.294 OA
BRANCH  19  20
HETATM   20  C25 UNL     1       4.206  -0.701 -25.878  1.00  0.00     0.061 C
HETATM   21  C26 UNL     1       3.223  -1.820 -26.207  1.00  0.00     0.046 C
HETATM   22  C27 UNL     1       5.346  -0.823 -26.856  1.00  0.00     0.046 C
HETATM   23  C28 UNL     1       3.554   0.642 -26.097  1.00  0.00     0.046 C
ENDBRANCH  19  20
ENDBRANCH  16  19
ENDBRANCH  14  15
BRANCH  14  24
HETATM   24  C29 UNL     1       8.123   2.353 -24.362  1.00  0.00     0.032 C
HETATM   25  C30 UNL     1       7.349   3.683 -24.646  1.00  0.00     0.016 C
HETATM   26  C31 UNL     1       8.297   1.757 -25.744  1.00  0.00     0.016 C
ENDBRANCH  14  24
ENDBRANCH  12  14
ENDBRANCH  10  12
ENDBRANCH   3   5
BRANCH   1  27
HETATM   27  C10 UNL     1       1.015   1.597 -19.719  1.00  0.00     0.165 C
BRANCH  27  28
HETATM   28  C9  UNL     1      -0.135   2.329 -19.195  1.00  0.00     0.239 C
HETATM   29  O3  UNL     1      -0.424   3.437 -19.764  1.00  0.00    -0.285 OA
BRANCH  28  30
HETATM   30  C8  UNL     1      -0.978   1.922 -18.087  1.00  0.00     0.292 C
HETATM   31  N2  UNL     1      -2.242   1.325 -18.292  1.00  0.00    -0.332 N
HETATM   32  C5  UNL     1      -2.988   0.986 -19.492  1.00  0.00     0.181 C
HETATM   33  C7  UNL     1      -3.305   0.809 -17.462  1.00  0.00     0.129 C
HETATM   34  C6  UNL     1      -3.935   0.138 -18.665  1.00  0.00     0.055 C
HETATM   35  O2  UNL     1      -0.576   2.104 -16.916  1.00  0.00    -0.264 OA
BRANCH  32  36
HETATM   36  C4  UNL     1      -3.690   2.125 -20.114  1.00  0.00     0.244 C
HETATM   37  N1  UNL     1      -4.441   2.999 -19.294  1.00  0.00    -0.339 N
HETATM   38  C3  UNL     1      -4.188   4.213 -19.031  1.00  0.00     0.063 C
ATOM     39  H1  UNL     1      -5.280   2.608 -18.866  1.00  0.00     0.167 HD
HETATM   40  O1  UNL     1      -3.662   2.373 -21.359  1.00  0.00    -0.271 OA
BRANCH  38  41
HETATM   41  C2  UNL     1      -5.090   4.972 -18.150  1.00  0.00     0.040 C
HETATM   42  C1  UNL     1      -5.142   4.300 -16.805  1.00  0.00     0.010 C
ENDBRANCH  38  41
ENDBRANCH  32  36
ENDBRANCH  28  30
ENDBRANCH  27  28
BRANCH  27  43
HETATM   43  C11 UNL     1       0.684   0.556 -20.774  1.00  0.00     0.038 C
BRANCH  43  44
HETATM   44  C12 UNL     1       1.814   0.258 -21.699  1.00  0.00    -0.012 C
HETATM   45  C13 UNL     1       1.281  -0.188 -23.055  1.00  0.00     0.005 C
HETATM   46  C14 UNL     1       1.619  -1.614 -22.743  1.00  0.00     0.001 C
HETATM   47  C15 UNL     1       2.365  -1.154 -21.523  1.00  0.00     0.005 C
ENDBRANCH  43  44
ENDBRANCH  27  43
ENDBRANCH   1  27
TORSDOF 14
ENDMDL