MODEL 3
REMARK VINA RESULT: -5.670134332      9.476     11.173
REMARK  8 active torsions:
REMARK  status: ('A' for Active; 'I' for Inactive)
REMARK    1  A    between atoms: C2_2  and  C3_3
REMARK    2  A    between atoms: C3_3  and  C5_5
REMARK    3  A    between atoms: C7_8  and  C8_9
REMARK    4  A    between atoms: C8_9  and  C9_10
REMARK    5  A    between atoms: C11_12  and  O1_13
REMARK    6  A    between atoms: C13_16  and  O2_17
REMARK    7  A    between atoms: C14_19  and  C15_20
REMARK    8  A    between atoms: C18_25  and  O3_26
ROOT
HETATM    1  C5  UNL     1     -17.021  35.663   7.465  1.00  0.00     0.002 A
HETATM    2  C6  UNL     1     -15.669  35.729   7.037  1.00  0.00     0.052 A
HETATM    3 CL1  UNL     1     -14.479  35.730   8.364  1.00  0.00    -0.083 Cl
HETATM    4  C7  UNL     1     -15.269  35.876   5.767  1.00  0.00     0.003 A
HETATM    5  C16 UNL     1     -16.292  35.969   4.799  1.00  0.00     0.091 A
HETATM    6  C17 UNL     1     -17.610  35.921   5.140  1.00  0.00     0.032 A
HETATM    7  C18 UNL     1     -17.995  35.764   6.503  1.00  0.00     0.089 A
HETATM    8  C20 UNL     1     -18.608  36.132   4.115  1.00  0.00     0.016 C
HETATM    9  C21 UNL     1     -18.230  36.388   2.862  1.00  0.00     0.012 C
HETATM   10  C22 UNL     1     -16.818  36.480   2.438  1.00  0.00     0.078 C
HETATM   11  C23 UNL     1     -16.489  35.630   1.218  1.00  0.00     0.051 C
HETATM   12  C24 UNL     1     -16.600  37.962   2.085  1.00  0.00     0.051 C
HETATM   13  O4  UNL     1     -15.929  36.101   3.470  1.00  0.00    -0.335 OA
ENDROOT
BRANCH   4  14
HETATM   14  C8  UNL     1     -13.910  36.083   5.323  1.00  0.00     0.082 C
BRANCH  14  15
HETATM   15  C9  UNL     1     -13.022  34.968   5.023  1.00  0.00    -0.037 A
HETATM   16  C10 UNL     1     -13.288  33.950   4.143  1.00  0.00     0.044 A
HETATM   17  C11 UNL     1     -12.376  32.911   3.976  1.00  0.00     0.068 A
HETATM   18  C12 UNL     1     -11.212  32.862   4.652  1.00  0.00     0.073 A
HETATM   19  C13 UNL     1     -10.913  33.893   5.553  1.00  0.00     0.080 A
HETATM   20  C14 UNL     1     -11.809  34.945   5.746  1.00  0.00     0.045 A
BRANCH  17  21
HETATM   21  O1  UNL     1     -12.716  31.896   3.071  1.00  0.00    -0.361 OA
ATOM     22  H1  UNL     1     -12.224  31.085   3.120  1.00  0.00     0.217 HD
ENDBRANCH  17  21
BRANCH  19  23
HETATM   23  O2  UNL     1      -9.706  33.824   6.233  1.00  0.00    -0.360 OA
ATOM     24  H2  UNL     1      -9.467  32.990   6.620  1.00  0.00     0.217 HD
ENDBRANCH  19  23
BRANCH  20  25
HETATM   25  C15 UNL     1     -11.483  36.016   6.707  1.00  0.00     0.390 C
HETATM   26  F1  UNL     1     -10.359  36.681   6.203  1.00  0.00    -0.209 F
HETATM   27  F2  UNL     1     -11.239  35.512   7.989  1.00  0.00    -0.209 F
ENDBRANCH  20  25
ENDBRANCH  14  15
ENDBRANCH   4  14
BRANCH   1  28
HETATM   28  C3  UNL     1     -17.274  35.229   8.857  1.00  0.00     0.019 C
HETATM   29  C4  UNL     1     -18.276  34.003   8.723  1.00  0.00     0.015 C
BRANCH  28  30
HETATM   30  C2  UNL     1     -17.935  36.182   9.788  1.00  0.00     0.004 C
HETATM   31  C1  UNL     1     -19.157  35.480  10.437  1.00  0.00     0.006 C
ENDBRANCH  28  30
ENDBRANCH   1  28
BRANCH   7  32
HETATM   32  O3  UNL     1     -19.344  35.735   6.710  1.00  0.00    -0.354 OA
HETATM   33  C19 UNL     1     -20.183  36.829   7.081  1.00  0.00     0.210 C
ENDBRANCH   7  32
TORSDOF 8
ENDMDL