MODEL 4
REMARK VINA RESULT: -5.820485084      4.289      7.759
REMARK  7 active torsions:
REMARK  status: ('A' for Active; 'I' for Inactive)
REMARK    1  A    between atoms: C2_2  and  C3_3
REMARK    2  A    between atoms: C3_3  and  C4_4
REMARK    3  A    between atoms: C5_5  and  O1_6
REMARK    4  A    between atoms: O1_6  and  C6_7
REMARK    5  A    between atoms: C6_7  and  C7_8
REMARK    6  A    between atoms: C10_12  and  O2_13
REMARK    7  A    between atoms: C12_16  and  O3_17
ROOT
HETATM    1  C4  UNL     1     -24.816  32.257   3.399  1.00  0.00    -0.011 A
HETATM    2  C5  UNL     1     -24.288  32.970   4.494  1.00  0.00     0.084 A
HETATM    3  C13 UNL     1     -23.371  33.984   4.398  1.00  0.00    -0.004 A
HETATM    4  C14 UNL     1     -22.898  34.650   5.651  1.00  0.00     0.053 C
HETATM    5  C15 UNL     1     -22.941  34.327   3.163  1.00  0.00     0.077 A
HETATM    6 CL2  UNL     1     -21.765  35.617   2.981  1.00  0.00    -0.081 Cl
HETATM    7  C16 UNL     1     -23.414  33.678   2.046  1.00  0.00     0.113 A
HETATM    8  O4  UNL     1     -22.973  34.043   0.867  1.00  0.00    -0.272 OA
HETATM    9  C17 UNL     1     -23.366  33.488  -0.228  1.00  0.00     0.310 A
HETATM   10  O5  UNL     1     -22.904  33.885  -1.321  1.00  0.00    -0.258 OA
HETATM   11  C18 UNL     1     -24.280  32.475  -0.207  1.00  0.00     0.116 A
HETATM   12 CL3  UNL     1     -24.837  31.693  -1.681  1.00  0.00    -0.077 Cl
HETATM   13  C19 UNL     1     -24.818  32.008   1.021  1.00  0.00    -0.020 A
HETATM   14  C20 UNL     1     -25.818  30.965   1.039  1.00  0.00     0.051 C
HETATM   15  C21 UNL     1     -24.362  32.632   2.155  1.00  0.00     0.017 A
ENDROOT
BRANCH   2  16
HETATM   16  O1  UNL     1     -24.756  32.603   5.764  1.00  0.00    -0.345 OA
BRANCH  16  17
HETATM   17  C6  UNL     1     -25.944  33.215   6.251  1.00  0.00     0.217 C
BRANCH  17  18
HETATM   18  C7  UNL     1     -26.158  32.922   7.683  1.00  0.00     0.001 A
HETATM   19  C8  UNL     1     -25.443  33.500   8.708  1.00  0.00     0.038 A
HETATM   20  C9  UNL     1     -25.663  33.203  10.045  1.00  0.00     0.067 A
HETATM   21 CL1  UNL     1     -24.740  33.951  11.326  1.00  0.00    -0.081 Cl
HETATM   22  C10 UNL     1     -26.630  32.297  10.396  1.00  0.00     0.090 A
HETATM   23  C11 UNL     1     -27.368  31.698   9.382  1.00  0.00     0.075 A
HETATM   24  C12 UNL     1     -27.132  32.008   8.059  1.00  0.00     0.076 A
BRANCH  22  25
HETATM   25  O2  UNL     1     -26.931  31.930  11.696  1.00  0.00    -0.359 OA
ATOM     26  H2  UNL     1     -27.587  31.287  11.938  1.00  0.00     0.217 HD
ENDBRANCH  22  25
BRANCH  24  27
HETATM   27  O3  UNL     1     -27.883  31.396   7.060  1.00  0.00    -0.360 OA
ATOM     28  H3  UNL     1     -28.830  31.421   7.129  1.00  0.00     0.217 HD
ENDBRANCH  24  27
ENDBRANCH  17  18
ENDBRANCH  16  17
ENDBRANCH   2  16
BRANCH   1  29
HETATM   29  C3  UNL     1     -25.711  31.138   3.578  1.00  0.00     0.042 C
BRANCH  29  30
HETATM   30  C2  UNL     1     -25.030  29.823   3.947  1.00  0.00     0.000 C
HETATM   31  C1  UNL     1     -25.443  29.449   5.326  1.00  0.00     0.005 C
ENDBRANCH  29  30
ENDBRANCH   1  29
TORSDOF 7
ENDMDL