MODEL 2
REMARK VINA RESULT: -6.651738825      4.570      8.083
REMARK  7 active torsions:
REMARK  status: ('A' for Active; 'I' for Inactive)
REMARK    1  A    between atoms: O1_2  and  C2_3
REMARK    2  A    between atoms: C2_3  and  C3_4
REMARK    3  A    between atoms: C2_3  and  C17_25
REMARK    4  A    between atoms: C3_4  and  O2_5
REMARK    5  A    between atoms: O2_5  and  C4_6
REMARK    6  A    between atoms: C7_9  and  O3_10
REMARK    7  A    between atoms: C11_15  and  O4_16
ROOT
HETATM    1  C4  UNL     1     -25.877  31.053   3.959  1.00  0.00     0.084 A
HETATM    2  C5  UNL     1     -27.066  30.601   3.452  1.00  0.00     0.006 A
HETATM    3  C6  UNL     1     -28.127  30.007   4.329  1.00  0.00     0.054 C
HETATM    4  C7  UNL     1     -27.240  30.717   2.089  1.00  0.00     0.086 A
HETATM    5  C8  UNL     1     -26.294  31.255   1.246  1.00  0.00     0.019 A
HETATM    6  C9  UNL     1     -26.506  31.360  -0.118  1.00  0.00    -0.013 A
HETATM    7  C10 UNL     1     -27.775  30.883  -0.702  1.00  0.00     0.052 C
HETATM    8  C11 UNL     1     -25.514  31.919  -0.938  1.00  0.00     0.096 A
HETATM    9  C12 UNL     1     -24.348  32.359  -0.412  1.00  0.00     0.090 A
HETATM   10 CL1  UNL     1     -23.130  33.053  -1.462  1.00  0.00    -0.080 Cl
HETATM   11  C13 UNL     1     -24.142  32.251   0.963  1.00  0.00     0.070 A
HETATM   12 CL2  UNL     1     -22.624  32.850   1.554  1.00  0.00    -0.081 Cl
HETATM   13  C14 UNL     1     -25.075  31.713   1.808  1.00  0.00     0.010 A
HETATM   14  C15 UNL     1     -24.855  31.614   3.176  1.00  0.00    -0.015 A
HETATM   15  C16 UNL     1     -23.595  32.066   3.749  1.00  0.00     0.052 C
ENDROOT
BRANCH   1  16
HETATM   16  O2  UNL     1     -25.649  30.962   5.312  1.00  0.00    -0.347 OA
BRANCH  16  17
HETATM   17  C3  UNL     1     -25.875  32.035   6.144  1.00  0.00     0.212 C
BRANCH  17  18
HETATM   18  C2  UNL     1     -26.794  31.775   7.301  1.00  0.00     0.178 C
BRANCH  18  19
HETATM   19  O1  UNL     1     -28.077  32.193   7.102  1.00  0.00    -0.384 OA
HETATM   20  C1  UNL     1     -28.243  33.226   6.210  1.00  0.00     0.202 C
ENDBRANCH  18  19
BRANCH  18  21
HETATM   21  C17 UNL     1     -26.226  32.178   8.611  1.00  0.00    -0.024 A
HETATM   22  C18 UNL     1     -26.166  31.325   9.702  1.00  0.00     0.016 A
HETATM   23  C19 UNL     1     -25.638  31.709  10.912  1.00  0.00    -0.059 A
HETATM   24  C20 UNL     1     -25.597  30.763  12.042  1.00  0.00     0.048 C
HETATM   25  C21 UNL     1     -25.137  32.976  11.098  1.00  0.00     0.049 A
HETATM   26  C22 UNL     1     -25.183  33.845  10.029  1.00  0.00     0.117 A
HETATM   27  F1  UNL     1     -24.683  35.095  10.232  1.00  0.00    -0.206 F
HETATM   28  C23 UNL     1     -25.714  33.442   8.836  1.00  0.00     0.052 A
ENDBRANCH  18  21
ENDBRANCH  17  18
ENDBRANCH  16  17
ENDBRANCH   1  16
BRANCH   4  29
HETATM   29  O3  UNL     1     -28.427  30.267   1.573  1.00  0.00    -0.359 OA
ATOM     30  H3  UNL     1     -28.664  29.366   1.758  1.00  0.00     0.217 HD
ENDBRANCH   4  29
BRANCH   8  31
HETATM   31  O4  UNL     1     -25.773  32.003  -2.297  1.00  0.00    -0.358 OA
ATOM     32  H4  UNL     1     -25.117  31.660  -2.892  1.00  0.00     0.217 HD
ENDBRANCH   8  31
TORSDOF 7
ENDMDL