MODEL 4
REMARK VINA RESULT: -5.697334648      3.003      4.673
REMARK  8 active torsions:
REMARK  status: ('A' for Active; 'I' for Inactive)
REMARK    1  A    between atoms: C3_4  and  C4_5
REMARK    2  A    between atoms: C4_5  and  O1_6
REMARK    3  A    between atoms: C4_5  and  N1_8
REMARK    4  A    between atoms: N1_8  and  O2_10
REMARK    5  A    between atoms: C6_13  and  O3_14
REMARK    6  A    between atoms: O3_14  and  C7_15
REMARK    7  A    between atoms: C7_15  and  C8_16
REMARK    8  A    between atoms: C13_21  and  C14_22
ROOT
HETATM    1  C8  UNL     1     -21.501  35.350   0.062  1.00  0.00     0.018 C
HETATM    2  C9  UNL     1     -21.462  36.824  -0.471  1.00  0.00     0.007 C
HETATM    3  C10 UNL     1     -22.672  36.926  -1.375  1.00  0.00     0.001 C
HETATM    4  C11 UNL     1     -23.853  36.194  -0.756  1.00  0.00     0.001 C
HETATM    5  C12 UNL     1     -23.710  36.132   0.748  1.00  0.00     0.010 C
HETATM    6  C13 UNL     1     -22.453  35.360   1.175  1.00  0.00     0.028 C
ENDROOT
BRANCH   1   7
HETATM    7  C7  UNL     1     -20.057  35.132   0.495  1.00  0.00     0.181 C
BRANCH   7   8
HETATM    8  O3  UNL     1     -19.510  36.316   1.002  1.00  0.00    -0.350 OA
BRANCH   8   9
HETATM    9  C6  UNL     1     -19.075  36.420   2.356  1.00  0.00     0.083 A
HETATM   10  C2  UNL     1     -19.582  37.424   3.144  1.00  0.00     0.013 A
HETATM   11  C1  UNL     1     -20.582  38.480   2.742  1.00  0.00     0.059 C
HETATM   12  S1  UNL     1     -18.806  37.172   4.638  1.00  0.00    -0.088 SA
HETATM   13  C3  UNL     1     -17.868  35.816   4.238  1.00  0.00     0.060 A
HETATM   14  C5  UNL     1     -18.187  35.587   2.924  1.00  0.00     0.061 A
BRANCH  13  15
HETATM   15  C4  UNL     1     -16.913  35.027   5.045  1.00  0.00     0.177 C
BRANCH  15  16
HETATM   16  O1  UNL     1     -16.977  35.001   6.417  1.00  0.00    -0.344 OA
ATOM     17  H1  UNL     1     -16.438  35.570   6.953  1.00  0.00     0.219 HD
ENDBRANCH  15  16
BRANCH  15  18
HETATM   18  N1  UNL     1     -16.015  34.363   4.415  1.00  0.00    -0.246 N
ATOM     19  H1  UNL     1     -15.148  34.844   4.177  1.00  0.00     0.196 HD
BRANCH  18  20
HETATM   20  O2  UNL     1     -16.140  33.071   4.044  1.00  0.00    -0.288 OA
ATOM     21  H2  UNL     1     -15.584  32.639   3.406  1.00  0.00     0.244 HD
ENDBRANCH  18  20
ENDBRANCH  15  18
ENDBRANCH  13  15
ENDBRANCH   8   9
ENDBRANCH   7   8
ENDBRANCH   1   7
BRANCH   6  22
HETATM   22  C14 UNL     1     -22.809  34.149   1.885  1.00  0.00    -0.010 A
HETATM   23  C15 UNL     1     -22.998  34.242   3.288  1.00  0.00     0.044 A
HETATM   24 CL1  UNL     1     -22.751  35.805   4.026  1.00  0.00    -0.084 Cl
HETATM   25  C16 UNL     1     -23.358  33.166   4.054  1.00  0.00     0.048 A
HETATM   26  C17 UNL     1     -23.556  31.939   3.497  1.00  0.00     0.037 A
HETATM   27 CL2  UNL     1     -24.017  30.530   4.447  1.00  0.00    -0.084 Cl
HETATM   28  C18 UNL     1     -23.384  31.815   2.153  1.00  0.00     0.048 A
HETATM   29  C19 UNL     1     -23.018  32.913   1.377  1.00  0.00     0.044 A
HETATM   30 CL3  UNL     1     -22.906  32.593  -0.331  1.00  0.00    -0.084 Cl
ENDBRANCH   6  22
TORSDOF 8
ENDMDL