MODEL 1
REMARK VINA RESULT: -5.367614452      0.000      0.000
REMARK  6 active torsions:
REMARK  status: ('A' for Active; 'I' for Inactive)
REMARK    1  A    between atoms: C7_8  and  C8_9
REMARK    2  A    between atoms: C9_10  and  C10_11
REMARK    3  A    between atoms: C9_10  and  C16_19
REMARK    4  A    between atoms: C17_20  and  O1_21
REMARK    5  A    between atoms: C18_24  and  O3_25
REMARK    6  A    between atoms: C19_27  and  C20_28
ROOT
HETATM    1  C20 UNL     1     -12.321  35.844   5.318  1.00  0.00    -0.044 C
HETATM    2  C21 UNL     1     -11.476  36.607   5.696  1.00  0.00     0.010 C
HETATM    3 CL3  UNL     1     -10.269  37.729   6.226  1.00  0.00    -0.023 Cl
ENDROOT
BRANCH   1   4
HETATM    4  C19 UNL     1     -13.298  34.924   4.851  1.00  0.00     0.093 A
HETATM    5  C16 UNL     1     -14.655  34.977   4.743  1.00  0.00     0.057 A
HETATM    6  C17 UNL     1     -15.022  33.766   4.213  1.00  0.00     0.198 A
HETATM    7  O2  UNL     1     -14.004  32.997   3.996  1.00  0.00    -0.263 OA
HETATM    8  C18 UNL     1     -12.932  33.653   4.366  1.00  0.00     0.205 A
BRANCH   5   9
HETATM    9  C9  UNL     1     -15.549  36.160   5.140  1.00  0.00    -0.009 C
HETATM   10  C8  UNL     1     -15.968  36.896   3.982  1.00  0.00     0.011 C
BRANCH  10  11
HETATM   11  C7  UNL     1     -16.931  36.536   2.936  1.00  0.00     0.107 C
HETATM   12  N1  UNL     1     -18.002  37.502   2.940  1.00  0.00    -0.386 N
HETATM   13  C2  UNL     1     -17.991  38.643   3.683  1.00  0.00     0.054 C
HETATM   14  C3  UNL     1     -19.155  37.083   2.242  1.00  0.00     0.122 C
HETATM   15  C1  UNL     1     -18.877  38.501   4.916  1.00  0.00     0.054 C
HETATM   16  C4  UNL     1     -18.751  36.806   0.799  1.00  0.00     0.020 C
HETATM   17  C5  UNL     1     -17.386  37.433   0.598  1.00  0.00     0.004 C
HETATM   18  C6  UNL     1     -16.324  36.834   1.505  1.00  0.00     0.029 C
ENDBRANCH  10  11
BRANCH   9  19
HETATM   19  C10 UNL     1     -16.278  35.776   6.297  1.00  0.00    -0.003 A
HETATM   20  C11 UNL     1     -17.579  35.248   6.064  1.00  0.00     0.015 A
HETATM   21  C12 UNL     1     -18.383  34.831   7.095  1.00  0.00     0.025 A
HETATM   22  C13 UNL     1     -17.962  34.906   8.392  1.00  0.00     0.035 A
HETATM   23 CL1  UNL     1     -18.938  34.394   9.754  1.00  0.00    -0.084 Cl
HETATM   24  C14 UNL     1     -16.707  35.410   8.649  1.00  0.00     0.048 A
HETATM   25  C15 UNL     1     -15.901  35.830   7.582  1.00  0.00     0.046 A
HETATM   26 CL2  UNL     1     -14.307  36.331   7.972  1.00  0.00    -0.083 Cl
ENDBRANCH   9  19
ENDBRANCH   5   9
BRANCH   6  27
HETATM   27  O1  UNL     1     -16.361  33.445   3.955  1.00  0.00    -0.340 OA
ATOM     28  H1  UNL     1     -16.606  32.786   3.317  1.00  0.00     0.220 HD
ENDBRANCH   6  27
BRANCH   8  29
HETATM   29  O3  UNL     1     -11.648  33.130   4.274  1.00  0.00    -0.340 OA
ATOM     30  H3  UNL     1     -11.410  32.437   3.669  1.00  0.00     0.220 HD
ENDBRANCH   8  29
ENDBRANCH   1   4
TORSDOF 6
ENDMDL