MODEL 2
REMARK VINA RESULT: -5.512196989      6.780      9.741
REMARK  6 active torsions:
REMARK  status: ('A' for Active; 'I' for Inactive)
REMARK    1  A    between atoms: C6_8  and  O1_9
REMARK    2  A    between atoms: C7_11  and  O2_12
REMARK    3  A    between atoms: C10_16  and  O3_17
REMARK    4  A    between atoms: O3_17  and  C11_18
REMARK    5  A    between atoms: C14_22  and  C15_23
REMARK    6  A    between atoms: C15_23  and  C16_24
ROOT
HETATM    1  C1  UNL     1     -24.454  35.704  -1.327  1.00  0.00     0.052 C
HETATM    2  C2  UNL     1     -23.052  36.140  -1.027  1.00  0.00    -0.012 A
HETATM    3  C3  UNL     1     -22.701  37.417  -1.384  1.00  0.00     0.098 A
HETATM    4  N1  UNL     1     -21.494  37.916  -1.123  1.00  0.00    -0.364 N
ATOM      5  H1  UNL     1     -21.260  38.870  -1.400  1.00  0.00     0.165 HD
HETATM    6  C4  UNL     1     -20.587  37.154  -0.491  1.00  0.00     0.048 A
HETATM    7  C5  UNL     1     -19.351  37.731  -0.257  1.00  0.00     0.069 A
HETATM    8  C6  UNL     1     -18.396  36.978   0.381  1.00  0.00     0.101 A
HETATM    9  C7  UNL     1     -18.684  35.685   0.766  1.00  0.00     0.099 A
HETATM   10  C8  UNL     1     -19.897  35.127   0.531  1.00  0.00     0.056 A
HETATM   11  C9  UNL     1     -20.890  35.860  -0.111  1.00  0.00     0.028 A
HETATM   12  C10 UNL     1     -22.130  35.310  -0.366  1.00  0.00     0.096 A
ENDROOT
BRANCH  12  13
HETATM   13  O3  UNL     1     -22.531  34.090  -0.056  1.00  0.00    -0.306 OA
BRANCH  13  14
HETATM   14  C11 UNL     1     -23.341  33.379   0.700  1.00  0.00     0.115 A
HETATM   15  C12 UNL     1     -23.507  33.499   2.058  1.00  0.00     0.069 A
HETATM   16 CL1  UNL     1     -22.603  34.743   2.894  1.00  0.00    -0.081 Cl
HETATM   17  C13 UNL     1     -24.388  32.685   2.780  1.00  0.00     0.034 A
HETATM   18  C14 UNL     1     -25.133  31.725   2.142  1.00  0.00    -0.054 A
HETATM   19  C17 UNL     1     -24.985  31.586   0.782  1.00  0.00     0.029 A
HETATM   20  C18 UNL     1     -24.122  32.381   0.080  1.00  0.00     0.047 A
HETATM   21 BR1  UNL     1     -23.944  32.101  -1.813  1.00  0.00    -0.048 Br
BRANCH  18  22
HETATM   22  C15 UNL     1     -26.077  30.854   2.900  1.00  0.00     0.053 C
BRANCH  22  23
HETATM   23  C16 UNL     1     -25.788  30.927   4.384  1.00  0.00     0.119 C
HETATM   24 CL2  UNL     1     -24.985  29.430   4.912  1.00  0.00    -0.130 Cl
ENDBRANCH  22  23
ENDBRANCH  18  22
ENDBRANCH  13  14
ENDBRANCH  12  13
BRANCH   9  25
HETATM   25  O2  UNL     1     -17.697  34.943   1.409  1.00  0.00    -0.358 OA
ATOM     26  H2  UNL     1     -17.843  34.016   1.552  1.00  0.00     0.217 HD
ENDBRANCH   9  25
BRANCH   8  27
HETATM   27  O1  UNL     1     -17.118  37.478   0.660  1.00  0.00    -0.358 OA
ATOM     28  H1  UNL     1     -16.420  36.923   0.988  1.00  0.00     0.217 HD
ENDBRANCH   8  27
TORSDOF 6
ENDMDL