MODEL 5
REMARK VINA RESULT: -5.634062731      6.345      9.809
REMARK  6 active torsions:
REMARK  status: ('A' for Active; 'I' for Inactive)
REMARK    1  A    between atoms: C2_2  and  C3_3
REMARK    2  A    between atoms: C3_3  and  C4_4
REMARK    3  A    between atoms: C4_4  and  C5_6
REMARK    4  A    between atoms: C6_7  and  C7_8
REMARK    5  A    between atoms: C14_15  and  O2_16
REMARK    6  A    between atoms: N1_20  and  C17_21
ROOT
HETATM    1  C5  UNL     1     -15.271  37.388   3.806  1.00  0.00     0.065 A
HETATM    2  C6  UNL     1     -15.878  36.217   3.490  1.00  0.00     0.017 A
HETATM    3  C15 UNL     1     -15.228  35.185   4.143  1.00  0.00     0.027 A
HETATM    4  C16 UNL     1     -15.515  33.714   4.117  1.00  0.00     0.070 C
HETATM    5  N1  UNL     1     -14.225  35.702   4.861  1.00  0.00    -0.301 N
HETATM    6  C23 UNL     1     -14.222  37.029   4.681  1.00  0.00     0.138 A
HETATM    7  N2  UNL     1     -13.283  37.907   5.299  1.00  0.00    -0.081 NA
ENDROOT
BRANCH   2   8
HETATM    8  C7  UNL     1     -17.023  35.995   2.641  1.00  0.00     0.016 A
HETATM    9  C8  UNL     1     -18.266  36.194   3.213  1.00  0.00    -0.048 A
HETATM   10  C9  UNL     1     -18.461  36.636   4.619  1.00  0.00     0.049 C
HETATM   11  C10 UNL     1     -19.364  35.962   2.411  1.00  0.00     0.014 A
HETATM   12  C11 UNL     1     -19.237  35.549   1.095  1.00  0.00    -0.059 A
HETATM   13  C12 UNL     1     -20.424  35.301   0.238  1.00  0.00     0.048 C
HETATM   14  C13 UNL     1     -17.967  35.368   0.582  1.00  0.00     0.044 A
HETATM   15  C14 UNL     1     -16.837  35.586   1.338  1.00  0.00     0.077 A
BRANCH  15  16
HETATM   16  O2  UNL     1     -15.573  35.395   0.794  1.00  0.00    -0.360 OA
ATOM     17  H2  UNL     1     -15.428  34.862   0.021  1.00  0.00     0.217 HD
ENDBRANCH  15  16
ENDBRANCH   2   8
BRANCH   1  18
HETATM   18  C4  UNL     1     -15.487  38.784   3.438  1.00  0.00     0.163 C
HETATM   19  O1  UNL     1     -16.376  39.492   3.993  1.00  0.00    -0.292 OA
BRANCH  18  20
HETATM   20  C3  UNL     1     -14.700  39.471   2.408  1.00  0.00     0.084 C
BRANCH  20  21
HETATM   21  C2  UNL     1     -14.886  38.802   1.046  1.00  0.00     0.003 C
HETATM   22  C1  UNL     1     -16.253  39.100   0.478  1.00  0.00     0.005 C
ENDBRANCH  20  21
ENDBRANCH  18  20
ENDBRANCH   1  18
BRANCH   5  23
HETATM   23  C17 UNL     1     -13.312  34.966   5.679  1.00  0.00     0.065 A
HETATM   24  C18 UNL     1     -12.182  34.364   5.218  1.00  0.00     0.075 A
HETATM   25  C19 UNL     1     -11.316  33.658   6.036  1.00  0.00     0.140 A
HETATM   26  F1  UNL     1     -10.218  33.091   5.493  1.00  0.00    -0.204 F
HETATM   27  C20 UNL     1     -11.610  33.561   7.364  1.00  0.00     0.074 A
HETATM   28 CL1  UNL     1     -10.501  32.660   8.396  1.00  0.00    -0.081 Cl
HETATM   29  C21 UNL     1     -12.740  34.152   7.886  1.00  0.00     0.053 A
HETATM   30  C22 UNL     1     -13.583  34.848   7.047  1.00  0.00     0.063 A
HETATM   31 CL2  UNL     1     -15.000  35.583   7.724  1.00  0.00    -0.082 Cl
ENDBRANCH   5  23
TORSDOF 6
ENDMDL