MODEL 1
REMARK VINA RESULT: -6.228599202      0.000      0.000
REMARK  7 active torsions:
REMARK  status: ('A' for Active; 'I' for Inactive)
REMARK    1  A    between atoms: C2_2  and  O1_3
REMARK    2  A    between atoms: O1_3  and  C3_4
REMARK    3  A    between atoms: C5_7  and  O2_8
REMARK    4  A    between atoms: C7_12  and  C8_13
REMARK    5  A    between atoms: C8_13  and  N1_15
REMARK    6  A    between atoms: N1_15  and  C10_17
REMARK    7  A    between atoms: C13_22  and  C14_23
ROOT
HETATM    1  C8  UNL     1     -26.174  30.224   4.253  1.00  0.00     0.117 C
HETATM    2  C9  UNL     1     -25.258  29.481   5.182  1.00  0.00     0.037 C
ENDROOT
BRANCH   1   3
HETATM    3  C7  UNL     1     -25.615  30.705   3.021  1.00  0.00     0.013 A
HETATM    4  C6  UNL     1     -26.405  30.696   1.827  1.00  0.00     0.079 A
HETATM    5  C5  UNL     1     -25.992  31.249   0.650  1.00  0.00     0.112 A
HETATM    6 CL2  UNL     1     -27.936  29.907   1.895  1.00  0.00    -0.081 Cl
HETATM    7  C4  UNL     1     -24.788  31.863   0.543  1.00  0.00     0.103 A
HETATM    8  C3  UNL     1     -23.994  31.916   1.644  1.00  0.00     0.115 A
HETATM    9 CL1  UNL     1     -24.314  32.512  -1.045  1.00  0.00    -0.078 Cl
HETATM   10  C19 UNL     1     -24.419  31.333   2.868  1.00  0.00     0.079 A
HETATM   11 CL3  UNL     1     -23.241  31.491   4.155  1.00  0.00    -0.081 Cl
BRANCH   5  12
HETATM   12  O2  UNL     1     -26.813  31.180  -0.471  1.00  0.00    -0.357 OA
ATOM     13  H2  UNL     1     -26.897  30.351  -0.929  1.00  0.00     0.217 HD
ENDBRANCH   5  12
BRANCH   8  14
HETATM   14  O1  UNL     1     -22.744  32.553   1.581  1.00  0.00    -0.348 OA
BRANCH  14  15
HETATM   15  C2  UNL     1     -22.653  33.967   1.668  1.00  0.00     0.171 C
HETATM   16  C1  UNL     1     -21.623  34.460   0.699  1.00  0.00     0.034 C
ENDBRANCH  14  15
ENDBRANCH   8  14
ENDBRANCH   1   3
BRANCH   1  17
HETATM   17  N1  UNL     1     -26.686  31.338   4.994  1.00  0.00    -0.347 N
ATOM     18  H1  UNL     1     -27.440  31.808   4.493  1.00  0.00     0.163 HD
BRANCH  17  19
HETATM   19  C10 UNL     1     -26.452  31.889   6.101  1.00  0.00     0.225 A
HETATM   20  N2  UNL     1     -25.752  32.931   6.516  1.00  0.00    -0.323 N
HETATM   21  C11 UNL     1     -25.857  33.076   7.881  1.00  0.00     0.043 A
ATOM     22  H2  UNL     1     -25.208  33.543   5.907  1.00  0.00     0.169 HD
HETATM   23  C12 UNL     1     -25.238  34.210   8.624  1.00  0.00     0.071 C
HETATM   24  C13 UNL     1     -26.654  32.072   8.283  1.00  0.00     0.114 A
HETATM   25  O4  UNL     1     -27.000  31.382   7.231  1.00  0.00    -0.277 OA
BRANCH  24  26
HETATM   26  C14 UNL     1     -27.136  31.723   9.630  1.00  0.00     0.031 A
HETATM   27  C15 UNL     1     -28.536  31.774   9.945  1.00  0.00     0.041 A
HETATM   28  C16 UNL     1     -28.673  31.296  11.240  1.00  0.00     0.143 A
HETATM   29  O3  UNL     1     -27.487  30.986  11.676  1.00  0.00    -0.327 OA
HETATM   30  C17 UNL     1     -26.554  31.224  10.741  1.00  0.00     0.061 A
HETATM   31  C18 UNL     1     -25.121  30.931  10.992  1.00  0.00     0.077 C
ENDBRANCH  24  26
ENDBRANCH  17  19
ENDBRANCH   1  17
TORSDOF 7
ENDMDL