MODEL 5
REMARK VINA RESULT: -5.572865850      1.598      3.745
REMARK  7 active torsions:
REMARK  status: ('A' for Active; 'I' for Inactive)
REMARK    1  A    between atoms: C2_2  and  C3_3
REMARK    2  A    between atoms: C3_3  and  C4_4
REMARK    3  A    between atoms: C4_4  and  C5_5
REMARK    4  A    between atoms: C5_5  and  C6_7
REMARK    5  A    between atoms: C8_9  and  C9_10
REMARK    6  A    between atoms: C10_11  and  O2_12
REMARK    7  A    between atoms: C18_24  and  O4_25
ROOT
HETATM    1  C6  UNL     1     -23.235  34.181   2.303  1.00  0.00     0.022 C
HETATM    2  C7  UNL     1     -22.090  34.720   1.917  1.00  0.00     0.026 C
HETATM    3  C8  UNL     1     -21.500  34.491   0.613  1.00  0.00     0.189 C
HETATM    4  O3  UNL     1     -22.343  33.828  -0.250  1.00  0.00    -0.336 OA
HETATM    5  C16 UNL     1     -23.526  33.227   0.092  1.00  0.00     0.084 A
HETATM    6  C17 UNL     1     -24.222  32.465  -0.852  1.00  0.00     0.076 A
HETATM    7  C18 UNL     1     -25.412  31.849  -0.536  1.00  0.00     0.090 A
HETATM    8  C19 UNL     1     -25.889  32.011   0.742  1.00  0.00     0.068 A
HETATM    9 CL3  UNL     1     -27.399  31.247   1.190  1.00  0.00    -0.081 Cl
HETATM   10  C20 UNL     1     -25.214  32.768   1.708  1.00  0.00     0.042 A
HETATM   11  C21 UNL     1     -24.025  33.380   1.383  1.00  0.00     0.013 A
ENDROOT
BRANCH   3  12
HETATM   12  C9  UNL     1     -20.882  35.654  -0.058  1.00  0.00     0.016 A
HETATM   13  C10 UNL     1     -19.509  35.692  -0.160  1.00  0.00     0.077 A
HETATM   14  C11 UNL     1     -18.834  36.768  -0.747  1.00  0.00     0.062 A
HETATM   15  C12 UNL     1     -19.541  37.837  -1.247  1.00  0.00     0.059 A
HETATM   16 CL1  UNL     1     -18.709  39.190  -1.985  1.00  0.00    -0.082 Cl
HETATM   17  C13 UNL     1     -20.904  37.778  -1.134  1.00  0.00     0.062 A
HETATM   18 CL2  UNL     1     -21.831  39.122  -1.758  1.00  0.00    -0.082 Cl
HETATM   19  C14 UNL     1     -21.598  36.712  -0.550  1.00  0.00    -0.027 A
HETATM   20  C15 UNL     1     -23.099  36.808  -0.449  1.00  0.00     0.050 C
BRANCH  13  21
HETATM   21  O2  UNL     1     -18.702  34.660   0.314  1.00  0.00    -0.360 OA
ATOM     22  H2  UNL     1     -18.653  33.816  -0.121  1.00  0.00     0.217 HD
ENDBRANCH  13  21
ENDBRANCH   3  12
BRANCH   1  23
HETATM   23  C5  UNL     1     -23.753  34.470   3.663  1.00  0.00     0.160 C
HETATM   24  O1  UNL     1     -24.563  35.342   3.968  1.00  0.00    -0.292 OA
BRANCH  23  25
HETATM   25  C4  UNL     1     -23.261  33.634   4.805  1.00  0.00     0.084 C
BRANCH  25  26
HETATM   26  C3  UNL     1     -24.243  32.516   5.072  1.00  0.00     0.007 C
BRANCH  26  27
HETATM   27  C2  UNL     1     -23.675  31.226   4.529  1.00  0.00    -0.004 C
HETATM   28  C1  UNL     1     -24.694  30.134   4.419  1.00  0.00     0.005 C
ENDBRANCH  26  27
ENDBRANCH  25  26
ENDBRANCH  23  25
ENDBRANCH   1  23
BRANCH   7  29
HETATM   29  O4  UNL     1     -26.058  31.106  -1.511  1.00  0.00    -0.359 OA
ATOM     30  H4  UNL     1     -26.148  30.168  -1.387  1.00  0.00     0.217 HD
ENDBRANCH   7  29
TORSDOF 7
ENDMDL