MODEL 4
REMARK VINA RESULT: -5.762610462      2.815      4.623
REMARK  8 active torsions:
REMARK  status: ('A' for Active; 'I' for Inactive)
REMARK    1  A    between atoms: C2_2  and  O2_4
REMARK    2  A    between atoms: O2_4  and  C3_5
REMARK    3  A    between atoms: C4_6  and  C5_7
REMARK    4  A    between atoms: C13_16  and  O3_17
REMARK    5  A    between atoms: C14_19  and  C15_20
REMARK    6  A    between atoms: C16_23  and  O4_24
REMARK    7  A    between atoms: C17_26  and  C18_27
REMARK    8  A    between atoms: C18_27  and  C19_28
ROOT
HETATM    1  C3  UNL     1     -23.438  32.766   2.584  1.00  0.00     0.101 A
HETATM    2  C4  UNL     1     -22.973  33.612   1.569  1.00  0.00     0.033 A
HETATM    3  C13 UNL     1     -22.444  34.827   1.941  1.00  0.00     0.090 A
HETATM    4  C14 UNL     1     -22.360  35.225   3.282  1.00  0.00     0.042 A
HETATM    5  C16 UNL     1     -22.820  34.374   4.234  1.00  0.00     0.086 A
HETATM    6  C17 UNL     1     -23.375  33.113   3.903  1.00  0.00     0.014 A
ENDROOT
BRANCH   2   7
HETATM    7  C5  UNL     1     -23.002  33.188   0.174  1.00  0.00     0.027 C
HETATM    8  C6  UNL     1     -23.817  33.590  -0.760  1.00  0.00    -0.024 C
HETATM    9  C7  UNL     1     -23.567  32.963  -2.072  1.00  0.00     0.006 C
HETATM   10  C12 UNL     1     -24.916  34.543  -0.522  1.00  0.00     0.203 C
HETATM   11  C8  UNL     1     -24.381  32.824  -3.108  1.00  0.00    -0.026 C
HETATM   12  C9  UNL     1     -25.808  33.315  -3.143  1.00  0.00     0.027 C
HETATM   13  C10 UNL     1     -26.384  32.919  -1.802  1.00  0.00     0.007 C
HETATM   14  C11 UNL     1     -26.293  33.961  -0.758  1.00  0.00     0.042 C
HETATM   15  F1  UNL     1     -24.837  35.643  -1.391  1.00  0.00    -0.244 F
ENDBRANCH   2   7
BRANCH   1  16
HETATM   16  O2  UNL     1     -23.977  31.544   2.231  1.00  0.00    -0.278 OA
BRANCH  16  17
HETATM   17  C2  UNL     1     -25.295  31.511   1.805  1.00  0.00     0.260 C
HETATM   18  C1  UNL     1     -25.820  30.460   0.898  1.00  0.00     0.126 C
HETATM   19  O1  UNL     1     -26.121  32.390   2.176  1.00  0.00    -0.265 OA
ENDBRANCH  16  17
ENDBRANCH   1  16
BRANCH   3  20
HETATM   20  O3  UNL     1     -21.970  35.706   0.981  1.00  0.00    -0.359 OA
ATOM     21  H3  UNL     1     -21.702  36.584   1.226  1.00  0.00     0.217 HD
ENDBRANCH   3  20
BRANCH   6  22
HETATM   22  C18 UNL     1     -23.857  32.223   4.952  1.00  0.00     0.072 C
BRANCH  22  23
HETATM   23  C19 UNL     1     -25.252  32.292   5.341  1.00  0.00    -0.020 C
HETATM   24  C20 UNL     1     -25.998  31.200   5.425  1.00  0.00    -0.091 C
HETATM   25  C21 UNL     1     -25.535  29.820   5.149  1.00  0.00     0.042 C
HETATM   26  C22 UNL     1     -27.452  31.326   5.840  1.00  0.00     0.042 C
ENDBRANCH  22  23
ENDBRANCH   6  22
BRANCH   4  27
HETATM   27  C15 UNL     1     -21.778  36.551   3.606  1.00  0.00     0.216 C
HETATM   28 CL1  UNL     1     -22.903  37.487   4.620  1.00  0.00    -0.103 Cl
HETATM   29 CL2  UNL     1     -20.293  36.199   4.565  1.00  0.00    -0.103 Cl
ENDBRANCH   4  27
BRANCH   5  30
HETATM   30  O4  UNL     1     -22.770  34.695   5.564  1.00  0.00    -0.359 OA
ATOM     31  H4  UNL     1     -22.357  35.495   5.867  1.00  0.00     0.217 HD
ENDBRANCH   5  30
TORSDOF 8
ENDMDL