MODEL 4
REMARK VINA RESULT: -4.971121468      2.706      4.589
REMARK  9 active torsions:
REMARK  status: ('A' for Active; 'I' for Inactive)
REMARK    1  A    between atoms: N1_1  and  C1_5
REMARK    2  A    between atoms: C1_5  and  C2_6
REMARK    3  A    between atoms: C2_6  and  C3_7
REMARK    4  A    between atoms: C3_7  and  N2_8
REMARK    5  A    between atoms: C4_10  and  N3_11
REMARK    6  A    between atoms: N3_11  and  N4_13
REMARK    7  A    between atoms: C5_15  and  C6_17
REMARK    8  A    between atoms: C9_24  and  N8_25
REMARK    9  A    between atoms: N8_25  and  C10_27
ROOT
HETATM    1  N4  UNL     1     -19.351  -7.582 -13.510  1.00  0.00    -0.285 N
ATOM      2  H4  UNL     1     -18.517  -7.010 -13.375  1.00  0.00     0.188 HD
HETATM    3  C5  UNL     1     -19.690  -7.892 -14.686  1.00  0.00     0.161 C
HETATM    4  N5  UNL     1     -20.892  -8.708 -14.760  1.00  0.00    -0.079 NA
ENDROOT
BRANCH   3   5
HETATM    5  C6  UNL     1     -19.026  -7.529 -15.911  1.00  0.00     0.119 A
HETATM    6  N6  UNL     1     -19.634  -6.561 -16.687  1.00  0.00    -0.359 N
HETATM    7  C7  UNL     1     -19.147  -6.121 -17.838  1.00  0.00     0.105 A
ATOM      8  H6  UNL     1     -20.511  -6.160 -16.353  1.00  0.00     0.165 HD
HETATM    9  C8  UNL     1     -17.947  -6.691 -18.264  1.00  0.00     0.106 A
HETATM   10  N7  UNL     1     -17.322  -7.624 -17.559  1.00  0.00    -0.349 N
HETATM   11  C9  UNL     1     -17.865  -8.058 -16.357  1.00  0.00     0.132 A
ATOM     12  H7  UNL     1     -16.446  -8.021 -17.898  1.00  0.00     0.167 HD
BRANCH  11  13
HETATM   13  N8  UNL     1     -17.158  -9.053 -15.647  1.00  0.00    -0.370 N
ATOM     14  H8  UNL     1     -17.629  -9.904 -15.339  1.00  0.00     0.161 HD
BRANCH  13  15
HETATM   15  C10 UNL     1     -15.713  -8.843 -15.356  1.00  0.00     0.083 A
HETATM   16  C11 UNL     1     -15.033  -9.888 -14.578  1.00  0.00     0.027 A
HETATM   17  C12 UNL     1     -15.379  -8.609 -13.871  1.00  0.00     0.027 A
ENDBRANCH  13  15
ENDBRANCH  11  13
ENDBRANCH   3   5
BRANCH   1  18
HETATM   18  N3  UNL     1     -20.067  -7.988 -12.395  1.00  0.00    -0.295 N
ATOM     19  H3  UNL     1     -20.497  -8.913 -12.388  1.00  0.00     0.187 HD
BRANCH  18  20
HETATM   20  C4  UNL     1     -20.217  -7.144 -11.260  1.00  0.00     0.192 C
HETATM   21  N2  UNL     1     -21.147  -6.276 -11.260  1.00  0.00    -0.385 N
ATOM     22  H2  UNL     1     -21.227  -5.686 -10.432  1.00  0.00     0.160 HD
BRANCH  21  23
HETATM   23  C3  UNL     1     -22.090  -6.048 -12.312  1.00  0.00     0.122 C
BRANCH  23  24
HETATM   24  C2  UNL     1     -22.013  -4.598 -12.759  1.00  0.00     0.047 C
BRANCH  24  25
HETATM   25  C1  UNL     1     -21.198  -4.585 -14.048  1.00  0.00     0.231 C
BRANCH  25  26
HETATM   26  N1  UNL     1     -19.860  -4.145 -13.714  1.00  0.00    -0.079 N
ATOM     27  H13 UNL     1     -19.499  -3.445 -14.362  1.00  0.00     0.274 HD
ATOM     28  H12 UNL     1     -19.829  -3.573 -12.869  1.00  0.00     0.274 HD
ATOM     29  H11 UNL     1     -19.269  -4.974 -13.655  1.00  0.00     0.274 HD
ENDBRANCH  25  26
ENDBRANCH  24  25
ENDBRANCH  23  24
ENDBRANCH  21  23
ENDBRANCH  18  20
ENDBRANCH   1  18
TORSDOF 9
ENDMDL