MODEL 2
REMARK VINA RESULT: -6.066073994      1.352      1.767
REMARK  8 active torsions:
REMARK  status: ('A' for Active; 'I' for Inactive)
REMARK    1  A    between atoms: C1_2  and  C2_3
REMARK    2  A    between atoms: C1_2  and  C9_12
REMARK    3  A    between atoms: N1_4  and  C3_6
REMARK    4  A    between atoms: C9_12  and  N2_13
REMARK    5  A    between atoms: N2_13  and  C10_16
REMARK    6  A    between atoms: C10_16  and  O2_17
REMARK    7  A    between atoms: C10_16  and  C11_19
REMARK    8  A    between atoms: C11_19  and  C12_21
ROOT
HETATM    1  N2  UNL     1     -17.976  -7.518 -12.991  1.00  0.00    -0.035 N
ATOM      2  H21 UNL     1     -17.194  -8.156 -12.842  1.00  0.00     0.281 HD
ATOM      3  H22 UNL     1     -18.562  -8.122 -13.568  1.00  0.00     0.281 HD
ENDROOT
BRANCH   1   4
HETATM    4  C9  UNL     1     -17.563  -6.327 -13.714  1.00  0.00     0.320 C
BRANCH   4   5
HETATM    5  C1  UNL     1     -18.172  -6.365 -15.091  1.00  0.00     0.189 C
HETATM    6  O1  UNL     1     -19.169  -7.020 -15.182  1.00  0.00    -0.290 OA
BRANCH   5   7
HETATM    7  C2  UNL     1     -17.569  -5.649 -16.209  1.00  0.00     0.135 C
HETATM    8  N1  UNL     1     -18.348  -4.980 -17.080  1.00  0.00    -0.391 N
ATOM      9  H1  UNL     1     -18.325  -5.416 -18.002  1.00  0.00     0.159 HD
BRANCH   8  10
HETATM   10  C3  UNL     1     -19.153  -3.894 -17.078  1.00  0.00     0.081 C
HETATM   11  C4  UNL     1     -20.567  -4.129 -17.530  1.00  0.00     0.025 C
HETATM   12  C5  UNL     1     -21.032  -2.845 -18.237  1.00  0.00     0.002 C
HETATM   13  C6  UNL     1     -20.617  -1.719 -17.331  1.00  0.00     0.000 C
HETATM   14  C7  UNL     1     -20.436  -2.159 -15.895  1.00  0.00     0.002 C
HETATM   15  C8  UNL     1     -19.288  -3.146 -15.749  1.00  0.00     0.025 C
ENDBRANCH   8  10
ENDBRANCH   5   7
ENDBRANCH   4   5
ENDBRANCH   1   4
BRANCH   1  16
HETATM   16  C10 UNL     1     -18.629  -7.173 -11.744  1.00  0.00     0.398 C
BRANCH  16  17
HETATM   17  O2  UNL     1     -18.242  -5.987 -11.188  1.00  0.00    -0.364 OA
ATOM     18  H2  UNL     1     -17.624  -6.056 -10.470  1.00  0.00     0.212 HD
ENDBRANCH  16  17
BRANCH  16  19
HETATM   19  C11 UNL     1     -20.092  -7.294 -11.762  1.00  0.00     0.248 C
HETATM   20  O3  UNL     1     -20.544  -8.440 -11.398  1.00  0.00    -0.284 OA
BRANCH  19  21
HETATM   21  C12 UNL     1     -21.047  -6.264 -12.141  1.00  0.00     0.156 A
HETATM   22  N3  UNL     1     -20.759  -5.280 -13.049  1.00  0.00    -0.348 N
HETATM   23  C13 UNL     1     -21.812  -4.472 -13.211  1.00  0.00     0.107 A
ATOM     24  H3  UNL     1     -19.867  -5.178 -13.533  1.00  0.00     0.167 HD
HETATM   25  C14 UNL     1     -22.798  -4.950 -12.386  1.00  0.00     0.107 A
HETATM   26  N4  UNL     1     -22.301  -6.030 -11.756  1.00  0.00    -0.348 N
ATOM     27  H4  UNL     1     -22.814  -6.593 -11.078  1.00  0.00     0.167 HD
ENDBRANCH  19  21
ENDBRANCH  16  19
ENDBRANCH   1  16
TORSDOF 8
ENDMDL