MODEL 2
REMARK VINA RESULT: -5.493551125      1.194      1.478
REMARK  9 active torsions:
REMARK  status: ('A' for Active; 'I' for Inactive)
REMARK    1  A    between atoms: N1_1  and  C1_5
REMARK    2  A    between atoms: C1_5  and  C2_6
REMARK    3  A    between atoms: C2_6  and  C3_7
REMARK    4  A    between atoms: C3_7  and  N2_8
REMARK    5  A    between atoms: C3_7  and  C11_18
REMARK    6  A    between atoms: N2_8  and  C4_11
REMARK    7  A    between atoms: C4_11  and  C5_12
REMARK    8  A    between atoms: C11_18  and  O1_19
REMARK    9  A    between atoms: N3_21  and  N4_23
ROOT
HETATM    1  C3  UNL     1     -17.505  -6.083 -14.601  1.00  0.00     0.262 C
ENDROOT
BRANCH   1   2
HETATM    2  C2  UNL     1     -16.961  -7.425 -14.678  1.00  0.00     0.069 C
BRANCH   2   3
HETATM    3  C1  UNL     1     -17.276  -8.305 -15.830  1.00  0.00     0.232 C
BRANCH   3   4
HETATM    4  N1  UNL     1     -16.735  -9.656 -15.509  1.00  0.00    -0.079 N
ATOM      5  H13 UNL     1     -16.144 -10.037 -16.248  1.00  0.00     0.274 HD
ATOM      6  H12 UNL     1     -16.029  -9.640 -14.773  1.00  0.00     0.274 HD
ATOM      7  H11 UNL     1     -17.532 -10.252 -15.285  1.00  0.00     0.274 HD
ENDBRANCH   3   4
ENDBRANCH   2   3
ENDBRANCH   1   2
BRANCH   1   8
HETATM    8  N2  UNL     1     -17.801  -5.547 -15.935  1.00  0.00    -0.063 N
ATOM      9  H22 UNL     1     -17.470  -6.174 -16.669  1.00  0.00     0.278 HD
ATOM     10  H21 UNL     1     -18.801  -5.580 -16.135  1.00  0.00     0.278 HD
BRANCH   8  11
HETATM   11  C4  UNL     1     -17.281  -4.223 -16.107  1.00  0.00     0.237 C
BRANCH  11  12
HETATM   12  C5  UNL     1     -18.380  -3.334 -16.733  1.00  0.00     0.011 C
HETATM   13  C6  UNL     1     -18.992  -2.517 -15.623  1.00  0.00     0.006 C
HETATM   14  C7  UNL     1     -20.457  -2.271 -15.822  1.00  0.00     0.000 C
HETATM   15  C8  UNL     1     -20.855  -2.262 -17.282  1.00  0.00     0.000 C
HETATM   16  C9  UNL     1     -20.512  -3.527 -18.000  1.00  0.00     0.000 C
HETATM   17  C10 UNL     1     -19.442  -4.277 -17.240  1.00  0.00     0.006 C
ENDBRANCH  11  12
ENDBRANCH   8  11
ENDBRANCH   1   8
BRANCH   1  18
HETATM   18  C11 UNL     1     -18.714  -5.797 -13.791  1.00  0.00     0.162 C
HETATM   19  N3  UNL     1     -20.044  -5.890 -14.089  1.00  0.00    -0.274 N
ATOM     20  H3  UNL     1     -20.293  -6.200 -15.028  1.00  0.00     0.189 HD
BRANCH  18  21
HETATM   21  O1  UNL     1     -18.386  -5.382 -12.601  1.00  0.00    -0.347 OA
ATOM     22  H1  UNL     1     -18.897  -5.827 -11.935  1.00  0.00     0.219 HD
ENDBRANCH  18  21
BRANCH  19  23
HETATM   23  N4  UNL     1     -21.086  -5.596 -13.213  1.00  0.00    -0.243 N
HETATM   24  C12 UNL     1     -21.688  -6.480 -12.363  1.00  0.00     0.224 A
HETATM   25  N5  UNL     1     -22.619  -5.808 -11.708  1.00  0.00    -0.293 N
HETATM   26  N6  UNL     1     -22.660  -4.558 -12.075  1.00  0.00    -0.293 N
ATOM     27  H5  UNL     1     -23.230  -6.217 -11.002  1.00  0.00     0.187 HD
HETATM   28  C13 UNL     1     -21.686  -4.431 -13.030  1.00  0.00     0.224 A
ATOM     29  H6  UNL     1     -23.284  -3.831 -11.727  1.00  0.00     0.187 HD
ENDBRANCH  19  23
ENDBRANCH   1  18
TORSDOF 9
ENDMDL