MODEL 5
REMARK VINA RESULT: -4.965189192      2.155      4.413
REMARK  9 active torsions:
REMARK  status: ('A' for Active; 'I' for Inactive)
REMARK    1  A    between atoms: O1_2  and  N1_3
REMARK    2  A    between atoms: N1_3  and  C2_4
REMARK    3  A    between atoms: C2_4  and  C4_6
REMARK    4  A    between atoms: C4_6  and  C5_7
REMARK    5  A    between atoms: C4_6  and  N2_13
REMARK    6  A    between atoms: C5_7  and  C6_8
REMARK    7  A    between atoms: C6_8  and  C7_9
REMARK    8  A    between atoms: C7_9  and  O3_11
REMARK       I    between atoms: N2_13  and  C9_15
REMARK    9  A    between atoms: C9_15  and  C10_17
ROOT
HETATM    1  C4  UNL     1     -19.809  -7.486 -15.285  1.00  0.00     0.106 C
ENDROOT
BRANCH   1   2
HETATM    2  C2  UNL     1     -20.033  -6.024 -15.533  1.00  0.00     0.125 C
HETATM    3  C3  UNL     1     -20.697  -5.852 -16.912  1.00  0.00     0.032 C
BRANCH   2   4
HETATM    4  N1  UNL     1     -18.828  -5.258 -15.582  1.00  0.00    -0.095 NA
BRANCH   4   5
HETATM    5  O1  UNL     1     -18.313  -4.959 -14.394  1.00  0.00    -0.291 OA
HETATM    6  C1  UNL     1     -19.075  -3.958 -13.749  1.00  0.00     0.231 C
ENDBRANCH   4   5
ENDBRANCH   2   4
ENDBRANCH   1   2
BRANCH   1   7
HETATM    7  C5  UNL     1     -20.707  -8.006 -14.203  1.00  0.00     0.036 C
BRANCH   7   8
HETATM    8  C6  UNL     1     -20.988  -6.932 -13.206  1.00  0.00     0.113 C
BRANCH   8   9
HETATM    9  C7  UNL     1     -20.397  -7.338 -11.893  1.00  0.00     0.258 C
HETATM   10  O2  UNL     1     -20.724  -8.384 -11.302  1.00  0.00    -0.265 OA
BRANCH   9  11
HETATM   11  O3  UNL     1     -19.446  -6.520 -11.306  1.00  0.00    -0.326 OA
HETATM   12  C8  UNL     1     -18.190  -7.029 -10.875  1.00  0.00     0.213 C
ENDBRANCH   9  11
ENDBRANCH   8   9
ENDBRANCH   7   8
ENDBRANCH   1   7
BRANCH   1  13
HETATM   13  N2  UNL     1     -18.457  -7.798 -14.942  1.00  0.00    -0.349 N
HETATM   14  C9  UNL     1     -17.680  -8.592 -15.813  1.00  0.00     0.270 C
HETATM   15  O4  UNL     1     -18.117  -9.051 -16.895  1.00  0.00    -0.266 OA
ATOM     16  H2  UNL     1     -18.055  -7.448 -14.072  1.00  0.00     0.163 HD
BRANCH  14  17
HETATM   17  C10 UNL     1     -16.294  -8.908 -15.456  1.00  0.00     0.117 A
HETATM   18  C11 UNL     1     -15.210  -8.057 -15.473  1.00  0.00     0.124 A
HETATM   19  N3  UNL     1     -14.104  -8.707 -15.081  1.00  0.00    -0.360 N
HETATM   20  C12 UNL     1     -14.506  -9.963 -14.822  1.00  0.00     0.180 A
ATOM     21  H3  UNL     1     -13.161  -8.328 -14.998  1.00  0.00     0.166 HD
HETATM   22  N4  UNL     1     -15.814 -10.101 -15.042  1.00  0.00    -0.347 N
ATOM     23  H4  UNL     1     -16.356 -10.955 -14.918  1.00  0.00     0.167 HD
ENDBRANCH  14  17
ENDBRANCH   1  13
TORSDOF 9
ENDMDL