MODEL 5
REMARK VINA RESULT: -5.810239606      4.029      6.251
REMARK  8 active torsions:
REMARK  status: ('A' for Active; 'I' for Inactive)
REMARK    1  A    between atoms: C2_2  and  C3_3
REMARK    2  A    between atoms: C3_3  and  N1_4
REMARK    3  A    between atoms: N1_4  and  C4_7
REMARK    4  A    between atoms: C4_7  and  C5_8
REMARK    5  A    between atoms: C5_8  and  C6_9
REMARK    6  A    between atoms: C6_9  and  C7_11
REMARK    7  A    between atoms: C7_11  and  S1_13
REMARK    8  A    between atoms: S1_13  and  C9_14
ROOT
HETATM    1  C9  UNL     1     -20.107  -5.874 -13.643  1.00  0.00     0.164 A
HETATM    2  N2  UNL     1     -19.819  -6.986 -12.964  1.00  0.00    -0.288 N
ATOM      3  H2  UNL     1     -18.991  -7.528 -13.209  1.00  0.00     0.172 HD
HETATM    4  C10 UNL     1     -20.624  -7.404 -11.942  1.00  0.00     0.340 A
HETATM    5  O2  UNL     1     -20.373  -8.444 -11.291  1.00  0.00    -0.246 OA
HETATM    6  N3  UNL     1     -21.709  -6.699 -11.613  1.00  0.00    -0.141 N
ATOM      7  H3  UNL     1     -22.311  -7.009 -10.850  1.00  0.00     0.189 HD
HETATM    8  C11 UNL     1     -21.999  -5.592 -12.286  1.00  0.00     0.681 A
HETATM    9  N4  UNL     1     -23.026  -4.843 -12.044  1.00  0.00    -0.234 N
ATOM     10  H41 UNL     1     -23.249  -3.992 -12.561  1.00  0.00     0.174 HD
ATOM     11  H42 UNL     1     -23.626  -5.155 -11.281  1.00  0.00     0.174 HD
HETATM   12  N5  UNL     1     -21.194  -5.172 -13.311  1.00  0.00    -0.170 N
ATOM     13  H5  UNL     1     -21.424  -4.321 -13.823  1.00  0.00     0.186 HD
ENDROOT
BRANCH   1  14
HETATM   14  S1  UNL     1     -19.062  -5.341 -14.964  1.00  0.00    -0.081 SA
BRANCH  14  15
HETATM   15  C7  UNL     1     -17.730  -6.519 -15.176  1.00  0.00     0.120 C
HETATM   16  C8  UNL     1     -16.498  -5.876 -15.771  1.00  0.00     0.030 C
BRANCH  15  17
HETATM   17  C6  UNL     1     -18.114  -7.697 -15.977  1.00  0.00     0.142 C
HETATM   18  O1  UNL     1     -19.142  -8.330 -15.823  1.00  0.00    -0.297 OA
BRANCH  17  19
HETATM   19  C5  UNL     1     -17.174  -8.137 -17.045  1.00  0.00     0.107 C
BRANCH  19  20
HETATM   20  C4  UNL     1     -16.825  -9.607 -16.924  1.00  0.00     0.240 C
BRANCH  20  21
HETATM   21  N1  UNL     1     -16.615  -9.876 -15.516  1.00  0.00    -0.072 N
ATOM     22  H12 UNL     1     -17.065 -10.751 -15.245  1.00  0.00     0.277 HD
ATOM     23  H11 UNL     1     -17.149  -9.225 -14.940  1.00  0.00     0.277 HD
BRANCH  21  24
HETATM   24  C3  UNL     1     -15.238  -9.877 -15.131  1.00  0.00     0.259 C
BRANCH  24  25
HETATM   25  C2  UNL     1     -15.063  -8.898 -14.031  1.00  0.00    -0.010 C
HETATM   26  C1  UNL     1     -13.840  -8.559 -13.653  1.00  0.00     0.008 C
ENDBRANCH  24  25
ENDBRANCH  21  24
ENDBRANCH  20  21
ENDBRANCH  19  20
ENDBRANCH  17  19
ENDBRANCH  15  17
ENDBRANCH  14  15
ENDBRANCH   1  14
TORSDOF 8
ENDMDL