MODEL 2
REMARK VINA RESULT: -5.403498455      2.903      4.459
REMARK  10 active torsions:
REMARK  status: ('A' for Active; 'I' for Inactive)
REMARK    1  A    between atoms: N1_1  and  C1_5
REMARK    2  A    between atoms: C1_5  and  N2_6
REMARK    3  A    between atoms: C1_5  and  C2_10
REMARK    4  A    between atoms: C2_10  and  C3_11
REMARK    5  A    between atoms: C3_11  and  N3_12
REMARK    6  A    between atoms: N3_12  and  C4_15
REMARK    7  A    between atoms: C4_15  and  C5_16
REMARK    8  A    between atoms: C4_15  and  C11_24
REMARK    9  A    between atoms: C5_16  and  C6_17
REMARK   10  A    between atoms: C6_17  and  C7_19
ROOT
HETATM    1  N3  UNL     1     -19.412  -5.720 -14.759  1.00  0.00    -0.061 N
ATOM      2  H31 UNL     1     -18.590  -6.307 -14.617  1.00  0.00     0.278 HD
ATOM      3  H32 UNL     1     -19.000  -4.989 -15.338  1.00  0.00     0.278 HD
ENDROOT
BRANCH   1   4
HETATM    4  C3  UNL     1     -19.867  -5.186 -13.524  1.00  0.00     0.237 C
BRANCH   4   5
HETATM    5  C2  UNL     1     -21.347  -4.981 -13.462  1.00  0.00     0.089 C
BRANCH   5   6
HETATM    6  C1  UNL     1     -21.818  -5.572 -12.129  1.00  0.00     0.379 C
BRANCH   6   7
HETATM    7  N1  UNL     1     -21.829  -7.017 -12.190  1.00  0.00    -0.050 N
ATOM      8  H13 UNL     1     -22.146  -7.428 -11.312  1.00  0.00     0.276 HD
ATOM      9  H12 UNL     1     -22.572  -7.362 -12.799  1.00  0.00     0.276 HD
ATOM     10  H11 UNL     1     -20.918  -7.380 -12.467  1.00  0.00     0.276 HD
ENDBRANCH   6   7
BRANCH   6  11
HETATM   11  N2  UNL     1     -23.146  -5.050 -11.836  1.00  0.00    -0.050 N
ATOM     12  H23 UNL     1     -23.235  -4.072 -12.114  1.00  0.00     0.276 HD
ATOM     13  H22 UNL     1     -23.852  -5.450 -12.454  1.00  0.00     0.276 HD
ATOM     14  H21 UNL     1     -23.386  -5.185 -10.854  1.00  0.00     0.276 HD
ENDBRANCH   6  11
ENDBRANCH   5   6
ENDBRANCH   4   5
ENDBRANCH   1   4
BRANCH   1  15
HETATM   15  C4  UNL     1     -20.459  -6.455 -15.506  1.00  0.00     0.293 C
BRANCH  15  16
HETATM   16  C5  UNL     1     -20.307  -6.024 -16.937  1.00  0.00     0.128 C
BRANCH  16  17
HETATM   17  C6  UNL     1     -19.503  -4.822 -17.183  1.00  0.00     0.168 C
HETATM   18  O1  UNL     1     -18.261  -4.832 -17.253  1.00  0.00    -0.292 OA
BRANCH  17  19
HETATM   19  C7  UNL     1     -20.193  -3.510 -17.358  1.00  0.00     0.050 A
HETATM   20  C8  UNL     1     -20.819  -3.056 -18.486  1.00  0.00     0.023 A
HETATM   21  C9  UNL     1     -21.376  -1.837 -18.431  1.00  0.00     0.009 A
HETATM   22  C10 UNL     1     -21.268  -1.154 -17.249  1.00  0.00     0.050 A
HETATM   23  S1  UNL     1     -20.398  -2.232 -16.257  1.00  0.00    -0.098 SA
ENDBRANCH  17  19
ENDBRANCH  16  17
ENDBRANCH  15  16
BRANCH  15  24
HETATM   24  C11 UNL     1     -20.186  -7.898 -15.385  1.00  0.00     0.205 C
HETATM   25  O2  UNL     1     -19.279  -8.406 -16.087  1.00  0.00    -0.646 OA
HETATM   26  O3  UNL     1     -20.874  -8.706 -14.542  1.00  0.00    -0.646 OA
ENDBRANCH  15  24
ENDBRANCH   1  15
TORSDOF 10
ENDMDL