MODEL 4
REMARK VINA RESULT: -5.489801697      1.072      1.082
REMARK  8 active torsions:
REMARK  status: ('A' for Active; 'I' for Inactive)
REMARK    1  A    between atoms: C1_2  and  C2_4
REMARK    2  A    between atoms: N1_5  and  N2_7
REMARK       I    between atoms: N2_7  and  C3_9
REMARK    3  A    between atoms: C3_9  and  C4_11
REMARK    4  A    between atoms: C4_11  and  C5_12
REMARK    5  A    between atoms: C5_12  and  C6_13
REMARK    6  A    between atoms: C6_13  and  C7_14
REMARK    7  A    between atoms: N3_17  and  N4_19
REMARK    8  A    between atoms: N4_19  and  C8_21
ROOT
HETATM    1  C4  UNL     1     -20.466  -4.656 -14.416  1.00  0.00     0.095 C
HETATM    2  N3  UNL     1     -20.941  -4.100 -15.458  1.00  0.00    -0.299 N
ATOM      3  H3  UNL     1     -21.748  -3.487 -15.339  1.00  0.00     0.186 HD
ENDROOT
BRANCH   1   4
HETATM    4  C3  UNL     1     -19.314  -5.542 -14.538  1.00  0.00     0.283 C
HETATM    5  N2  UNL     1     -19.502  -6.958 -14.763  1.00  0.00    -0.265 N
ATOM      6  H2  UNL     1     -20.451  -7.326 -14.834  1.00  0.00     0.190 HD
HETATM    7  O3  UNL     1     -18.131  -5.180 -14.464  1.00  0.00    -0.265 OA
BRANCH   5   8
HETATM    8  N1  UNL     1     -18.434  -7.829 -14.886  1.00  0.00    -0.302 N
HETATM    9  C2  UNL     1     -18.026  -8.247 -16.018  1.00  0.00     0.191 C
ATOM     10  H1  UNL     1     -17.959  -8.147 -14.041  1.00  0.00     0.186 HD
BRANCH   9  11
HETATM   11  C1  UNL     1     -16.885  -9.174 -16.100  1.00  0.00     0.216 C
HETATM   12  O1  UNL     1     -15.709  -8.785 -15.887  1.00  0.00    -0.643 OA
HETATM   13  O2  UNL     1     -17.091 -10.500 -16.418  1.00  0.00    -0.643 OA
ENDBRANCH   9  11
ENDBRANCH   5   8
ENDBRANCH   1   4
BRANCH   1  14
HETATM   14  C5  UNL     1     -21.036  -4.450 -13.075  1.00  0.00     0.075 C
BRANCH  14  15
HETATM   15  C6  UNL     1     -22.019  -5.450 -12.601  1.00  0.00     0.119 C
BRANCH  15  16
HETATM   16  C7  UNL     1     -21.470  -6.703 -12.052  1.00  0.00     0.172 C
HETATM   17  O4  UNL     1     -21.717  -7.798 -12.584  1.00  0.00    -0.648 OA
HETATM   18  O5  UNL     1     -20.655  -6.734 -10.922  1.00  0.00    -0.648 OA
ENDBRANCH  15  16
ENDBRANCH  14  15
ENDBRANCH   1  14
BRANCH   2  19
HETATM   19  N4  UNL     1     -20.451  -4.263 -16.729  1.00  0.00    -0.301 N
ATOM     20  H4  UNL     1     -19.810  -5.033 -16.923  1.00  0.00     0.187 HD
BRANCH  19  21
HETATM   21  C8  UNL     1     -20.826  -3.364 -17.801  1.00  0.00     0.048 A
HETATM   22  C9  UNL     1     -20.967  -3.510 -19.108  1.00  0.00     0.031 A
HETATM   23  C10 UNL     1     -21.340  -2.125 -19.246  1.00  0.00     0.005 A
HETATM   24  C11 UNL     1     -21.201  -1.972 -17.951  1.00  0.00     0.031 A
ENDBRANCH  19  21
ENDBRANCH   2  19
TORSDOF 8
ENDMDL