MODEL 2
REMARK VINA RESULT: -5.428743629      1.436      1.744
REMARK  8 active torsions:
REMARK  status: ('A' for Active; 'I' for Inactive)
REMARK    1  A    between atoms: N1_2  and  C2_5
REMARK    2  A    between atoms: C2_5  and  C3_6
REMARK    3  A    between atoms: C3_6  and  C4_7
REMARK    4  A    between atoms: C3_6  and  N4_18
REMARK    5  A    between atoms: C4_7  and  N2_8
REMARK    6  A    between atoms: N2_8  and  C5_10
REMARK    7  A    between atoms: N4_18  and  C10_20
REMARK    8  A    between atoms: C10_20  and  C11_21
ROOT
HETATM    1  C3  UNL     1     -18.321  -4.796 -16.024  1.00  0.00     0.124 C
ENDROOT
BRANCH   1   2
HETATM    2  C2  UNL     1     -18.731  -6.033 -16.751  1.00  0.00     0.258 C
BRANCH   2   3
HETATM    3  N1  UNL     1     -18.892  -7.205 -15.949  1.00  0.00    -0.077 N
HETATM    4  C1  UNL     1     -20.225  -7.728 -15.958  1.00  0.00     0.267 C
ATOM      5  H12 UNL     1     -18.578  -7.033 -14.994  1.00  0.00     0.276 HD
ATOM      6  H11 UNL     1     -18.221  -7.923 -16.223  1.00  0.00     0.276 HD
ENDBRANCH   2   3
ENDBRANCH   1   2
BRANCH   1   7
HETATM    7  C4  UNL     1     -18.001  -5.074 -14.581  1.00  0.00     0.146 C
BRANCH   7   8
HETATM    8  N2  UNL     1     -18.944  -4.368 -13.739  1.00  0.00    -0.388 N
ATOM      9  H2  UNL     1     -18.809  -3.373 -13.560  1.00  0.00     0.159 HD
BRANCH   8  10
HETATM   10  C5  UNL     1     -20.064  -5.044 -13.150  1.00  0.00     0.034 A
HETATM   11  C6  UNL     1     -21.316  -4.480 -13.166  1.00  0.00     0.046 A
HETATM   12  C7  UNL     1     -22.418  -5.100 -12.607  1.00  0.00     0.093 A
HETATM   13  N3  UNL     1     -22.257  -6.306 -12.022  1.00  0.00    -0.334 N
HETATM   14  C8  UNL     1     -21.034  -6.872 -11.998  1.00  0.00     0.247 A
ATOM     15  H3  UNL     1     -23.053  -6.785 -11.601  1.00  0.00     0.168 HD
HETATM   16  O1  UNL     1     -20.855  -8.001 -11.458  1.00  0.00    -0.268 OA
HETATM   17  C9  UNL     1     -19.914  -6.271 -12.552  1.00  0.00     0.103 A
ENDBRANCH   8  10
ENDBRANCH   7   8
ENDBRANCH   1   7
BRANCH   1  18
HETATM   18  N4  UNL     1     -19.172  -3.712 -16.286  1.00  0.00    -0.389 N
ATOM     19  H4  UNL     1     -18.887  -2.770 -16.018  1.00  0.00     0.159 HD
BRANCH  18  20
HETATM   20  C10 UNL     1     -20.415  -3.910 -16.916  1.00  0.00     0.114 C
BRANCH  20  21
HETATM   21  C11 UNL     1     -20.924  -2.568 -17.382  1.00  0.00     0.064 A
HETATM   22  C12 UNL     1     -21.314  -2.247 -18.658  1.00  0.00     0.122 A
HETATM   23  N5  UNL     1     -21.709  -0.950 -18.683  1.00  0.00    -0.355 N
HETATM   24  C13 UNL     1     -22.192  -0.247 -19.871  1.00  0.00     0.156 C
HETATM   25  C14 UNL     1     -21.561  -0.491 -17.437  1.00  0.00     0.182 A
HETATM   26  N6  UNL     1     -21.086  -1.463 -16.641  1.00  0.00    -0.350 N
ATOM     27  H6  UNL     1     -20.883  -1.376 -15.644  1.00  0.00     0.166 HD
ENDBRANCH  20  21
ENDBRANCH  18  20
ENDBRANCH   1  18
TORSDOF 8
ENDMDL