MODEL 1
REMARK VINA RESULT: -5.622162161      0.000      0.000
REMARK  8 active torsions:
REMARK  status: ('A' for Active; 'I' for Inactive)
REMARK    1  A    between atoms: N1_2  and  C2_5
REMARK    2  A    between atoms: C2_5  and  C4_7
REMARK    3  A    between atoms: C4_7  and  C5_8
REMARK    4  A    between atoms: C4_7  and  O3_23
REMARK    5  A    between atoms: C5_8  and  O1_9
REMARK    6  A    between atoms: O1_9  and  C6_10
REMARK    7  A    between atoms: C9_13  and  C10_14
REMARK    8  A    between atoms: N3_16  and  O2_18
ROOT
HETATM    1  C6  UNL     1     -19.392  -5.859 -15.799  1.00  0.00     0.093 A
HETATM    2  C7  UNL     1     -19.512  -4.811 -14.918  1.00  0.00     0.039 A
HETATM    3  C8  UNL     1     -20.109  -5.075 -13.680  1.00  0.00     0.018 A
HETATM    4  C9  UNL     1     -20.576  -6.302 -13.303  1.00  0.00     0.009 A
HETATM    5  C11 UNL     1     -20.438  -7.352 -14.230  1.00  0.00     0.044 A
HETATM    6  C12 UNL     1     -19.856  -7.117 -15.448  1.00  0.00     0.080 A
HETATM    7  N4  UNL     1     -19.732  -8.208 -16.365  1.00  0.00    -0.099 NA
ENDROOT
BRANCH   1   8
HETATM    8  O1  UNL     1     -18.810  -5.670 -17.043  1.00  0.00    -0.347 OA
BRANCH   8   9
HETATM    9  C5  UNL     1     -19.131  -4.590 -17.884  1.00  0.00     0.209 C
BRANCH   9  10
HETATM   10  C4  UNL     1     -20.496  -4.765 -18.489  1.00  0.00     0.175 C
BRANCH  10  11
HETATM   11  C2  UNL     1     -20.471  -5.670 -19.697  1.00  0.00     0.212 C
HETATM   12  C3  UNL     1     -21.655  -5.451 -20.613  1.00  0.00     0.043 C
BRANCH  11  13
HETATM   13  N1  UNL     1     -20.454  -7.068 -19.304  1.00  0.00    -0.073 N
HETATM   14  C1  UNL     1     -19.450  -7.814 -20.026  1.00  0.00     0.267 C
ATOM     15  H12 UNL     1     -21.376  -7.493 -19.402  1.00  0.00     0.277 HD
ATOM     16  H11 UNL     1     -20.338  -7.169 -18.296  1.00  0.00     0.277 HD
ENDBRANCH  11  13
ENDBRANCH  10  11
BRANCH  10  17
HETATM   17  O3  UNL     1     -21.006  -3.542 -18.899  1.00  0.00    -0.386 OA
HETATM   18  C13 UNL     1     -20.871  -2.627 -17.838  1.00  0.00     0.202 C
ENDBRANCH  10  17
ENDBRANCH   9  10
ENDBRANCH   8   9
ENDBRANCH   1   8
BRANCH   4  19
HETATM   19  C10 UNL     1     -21.187  -6.536 -12.019  1.00  0.00     0.146 C
HETATM   20  N2  UNL     1     -20.948  -7.817 -11.428  1.00  0.00    -0.080 NA
HETATM   21  N3  UNL     1     -21.888  -5.744 -11.383  1.00  0.00    -0.255 N
ATOM     22  H3  UNL     1     -22.207  -6.136 -10.497  1.00  0.00     0.195 HD
BRANCH  21  23
HETATM   23  O2  UNL     1     -22.328  -4.506 -11.572  1.00  0.00    -0.288 OA
ATOM     24  H2  UNL     1     -22.726  -4.032 -12.292  1.00  0.00     0.244 HD
ENDBRANCH  21  23
ENDBRANCH   4  19
TORSDOF 8
ENDMDL