MODEL 4
REMARK VINA RESULT: -5.262406374      1.580      2.203
REMARK  11 active torsions:
REMARK  status: ('A' for Active; 'I' for Inactive)
REMARK    1  A    between atoms: C2_2  and  C4_4
REMARK    2  A    between atoms: C4_4  and  C5_5
REMARK    3  A    between atoms: C5_5  and  O1_6
REMARK    4  A    between atoms: C5_5  and  C6_8
REMARK    5  A    between atoms: C6_8  and  N1_9
REMARK    6  A    between atoms: C6_8  and  C8_12
REMARK    7  A    between atoms: N1_9  and  C7_10
REMARK    8  A    between atoms: C8_12  and  O3_13
REMARK    9  A    between atoms: C8_12  and  C9_15
REMARK   10  A    between atoms: C9_15  and  O4_16
REMARK   11  A    between atoms: C9_15  and  C10_18
ROOT
HETATM    1  C8  UNL     1     -59.180  -2.245   3.195  1.00  0.00     0.191 C
ENDROOT
BRANCH   1   2
HETATM    2  C6  UNL     1     -58.158  -3.314   3.228  1.00  0.00     0.226 C
BRANCH   2   3
HETATM    3  C5  UNL     1     -58.750  -4.751   3.343  1.00  0.00     0.157 C
BRANCH   3   4
HETATM    4  C4  UNL     1     -57.917  -5.856   2.915  1.00  0.00     0.039 C
BRANCH   4   5
HETATM    5  C2  UNL     1     -58.345  -6.298   1.499  1.00  0.00    -0.020 C
HETATM    6  C1  UNL     1     -57.456  -7.336   0.929  1.00  0.00     0.009 C
HETATM    7  C3  UNL     1     -58.415  -5.091   0.589  1.00  0.00     0.009 C
ENDBRANCH   4   5
ENDBRANCH   3   4
BRANCH   3   8
HETATM    8  O1  UNL     1     -58.995  -4.832   4.737  1.00  0.00    -0.392 OA
ATOM      9  H1  UNL     1     -58.382  -5.432   5.144  1.00  0.00     0.210 HD
ENDBRANCH   3   8
ENDBRANCH   2   3
BRANCH   2  10
HETATM   10  N1  UNL     1     -57.165  -3.222   4.071  1.00  0.00    -0.412 NA
BRANCH  10  11
HETATM   11  C7  UNL     1     -56.088  -3.122   4.986  1.00  0.00     0.435 C
HETATM   12  O2  UNL     1     -55.169  -3.900   5.181  1.00  0.00    -0.269 OA
ENDBRANCH  10  11
ENDBRANCH   2  10
ENDBRANCH   1   2
BRANCH   1  13
HETATM   13  O3  UNL     1     -60.484  -2.791   3.435  1.00  0.00    -0.389 OA
ATOM     14  H3  UNL     1     -61.045  -2.143   3.842  1.00  0.00     0.210 HD
ENDBRANCH   1  13
BRANCH   1  15
HETATM   15  C9  UNL     1     -59.279  -1.643   1.788  1.00  0.00     0.201 C
BRANCH  15  16
HETATM   16  O4  UNL     1     -60.453  -0.808   1.818  1.00  0.00    -0.387 OA
ATOM     17  H4  UNL     1     -60.582  -0.530   0.919  1.00  0.00     0.210 HD
ENDBRANCH  15  16
BRANCH  15  18
HETATM   18  C10 UNL     1     -58.189  -0.743   1.408  1.00  0.00     0.056 A
HETATM   19  C11 UNL     1     -57.745   0.173   2.353  1.00  0.00     0.115 A
HETATM   20  N2  UNL     1     -56.786   1.029   1.962  1.00  0.00    -0.372 N
HETATM   21  C12 UNL     1     -56.263   1.026   0.733  1.00  0.00     0.104 A
ATOM     22  H2  UNL     1     -56.442   1.714   2.635  1.00  0.00     0.164 HD
HETATM   23  C13 UNL     1     -56.715   0.106  -0.205  1.00  0.00     0.105 A
HETATM   24  N3  UNL     1     -57.664  -0.742   0.183  1.00  0.00    -0.365 N
ATOM     25  H3  UNL     1     -58.008  -1.427  -0.491  1.00  0.00     0.165 HD
ENDBRANCH  15  18
ENDBRANCH   1  15
TORSDOF 11
ENDMDL