MODEL 4
REMARK VINA RESULT: -5.848541274      2.029      2.453
REMARK  8 active torsions:
REMARK  status: ('A' for Active; 'I' for Inactive)
REMARK    1  A    between atoms: N1_1  and  C1_5
REMARK    2  A    between atoms: C1_5  and  C2_6
REMARK    3  A    between atoms: C2_6  and  C3_7
REMARK    4  A    between atoms: C3_7  and  N2_8
REMARK    5  A    between atoms: C3_7  and  C12_22
REMARK    6  A    between atoms: C4_10  and  C5_11
REMARK    7  A    between atoms: C5_11  and  C6_12
REMARK    8  A    between atoms: C11_18  and  N4_19
ROOT
HETATM    1  N2  UNL     1     -59.226  -3.009   2.702  1.00  0.00    -0.388 N
ATOM      2  H2  UNL     1     -60.112  -3.482   2.526  1.00  0.00     0.159 HD
HETATM    3  C4  UNL     1     -59.032  -1.963   1.870  1.00  0.00     0.061 C
ENDROOT
BRANCH   1   4
HETATM    4  C3  UNL     1     -58.527  -3.592   3.724  1.00  0.00     0.183 C
BRANCH   4   5
HETATM    5  C2  UNL     1     -57.068  -3.306   3.747  1.00  0.00     0.063 C
BRANCH   5   6
HETATM    6  C1  UNL     1     -56.385  -2.938   5.006  1.00  0.00     0.232 C
BRANCH   6   7
HETATM    7  N1  UNL     1     -56.055  -4.086   5.793  1.00  0.00    -0.079 N
ATOM      8  H13 UNL     1     -56.583  -4.905   5.491  1.00  0.00     0.274 HD
ATOM      9  H12 UNL     1     -55.113  -4.417   5.587  1.00  0.00     0.274 HD
ATOM     10  H11 UNL     1     -56.178  -3.914   6.790  1.00  0.00     0.274 HD
ENDBRANCH   6   7
ENDBRANCH   5   6
ENDBRANCH   4   5
BRANCH   4  11
HETATM   11  C12 UNL     1     -58.624  -5.104   3.707  1.00  0.00     0.196 C
HETATM   12  O3  UNL     1     -59.732  -5.607   3.552  1.00  0.00    -0.646 OA
HETATM   13  O4  UNL     1     -57.492  -5.838   3.862  1.00  0.00    -0.646 OA
ENDBRANCH   4  11
ENDBRANCH   1   4
BRANCH   3  14
HETATM   14  C5  UNL     1     -59.196  -0.560   2.442  1.00  0.00     0.085 C
BRANCH  14  15
HETATM   15  C6  UNL     1     -58.157   0.306   1.809  1.00  0.00    -0.020 A
HETATM   16  C7  UNL     1     -57.165  -0.316   1.019  1.00  0.00     0.012 A
HETATM   17  C8  UNL     1     -56.127   0.384   0.472  1.00  0.00     0.027 A
HETATM   18  C9  UNL     1     -55.990   1.742   0.661  1.00  0.00     0.048 A
HETATM   19  N3  UNL     1     -54.910   2.492   0.099  1.00  0.00    -0.102 NA
HETATM   20  C10 UNL     1     -56.953   2.339   1.424  1.00  0.00     0.063 A
HETATM   21  C11 UNL     1     -58.033   1.648   2.001  1.00  0.00     0.111 A
BRANCH  21  22
HETATM   22  N4  UNL     1     -58.985   2.400   2.751  1.00  0.00    -0.115 N
HETATM   23  O1  UNL     1     -59.908   2.960   2.167  1.00  0.00    -0.532 OA
HETATM   24  O2  UNL     1     -58.848   2.552   4.100  1.00  0.00    -0.532 OA
ENDBRANCH  21  22
ENDBRANCH  14  15
ENDBRANCH   3  14
TORSDOF 8
ENDMDL