MODEL 5
REMARK VINA RESULT: -5.285304927      1.972      3.912
REMARK  9 active torsions:
REMARK  status: ('A' for Active; 'I' for Inactive)
REMARK    1  A    between atoms: N1_1  and  C1_5
REMARK    2  A    between atoms: C1_5  and  C2_6
REMARK    3  A    between atoms: C1_5  and  C12_26
REMARK    4  A    between atoms: C2_6  and  C3_7
REMARK    5  A    between atoms: C3_7  and  C4_8
REMARK    6  A    between atoms: C4_8  and  N2_9
REMARK    7  A    between atoms: C4_8  and  C9_20
REMARK    8  A    between atoms: N2_9  and  C5_12
REMARK    9  A    between atoms: C5_12  and  C6_13
ROOT
HETATM    1  C4  UNL     1     -57.384  -1.890   1.620  1.00  0.00     0.244 C
ENDROOT
BRANCH   1   2
HETATM    2  C3  UNL     1     -56.359  -2.687   2.376  1.00  0.00     0.042 C
BRANCH   2   3
HETATM    3  C2  UNL     1     -56.653  -2.641   3.864  1.00  0.00     0.046 C
BRANCH   3   4
HETATM    4  C1  UNL     1     -56.638  -4.036   4.450  1.00  0.00     0.283 C
BRANCH   4   5
HETATM    5  N1  UNL     1     -56.430  -4.041   5.865  1.00  0.00    -0.065 N
ATOM      6  H13 UNL     1     -56.033  -3.156   6.179  1.00  0.00     0.275 HD
ATOM      7  H12 UNL     1     -57.319  -4.011   6.365  1.00  0.00     0.275 HD
ATOM      8  H11 UNL     1     -55.861  -4.828   6.178  1.00  0.00     0.275 HD
ENDBRANCH   4   5
BRANCH   4   9
HETATM    9  C12 UNL     1     -57.875  -4.779   4.127  1.00  0.00     0.204 C
HETATM   10  O2  UNL     1     -58.980  -4.300   4.491  1.00  0.00    -0.646 OA
HETATM   11  O3  UNL     1     -57.830  -5.997   3.426  1.00  0.00    -0.646 OA
ENDBRANCH   4   9
ENDBRANCH   3   4
ENDBRANCH   2   3
ENDBRANCH   1   2
BRANCH   1  12
HETATM   12  N2  UNL     1     -58.717  -2.069   2.116  1.00  0.00    -0.060 N
ATOM     13  H22 UNL     1     -58.894  -3.052   2.326  1.00  0.00     0.278 HD
ATOM     14  H21 UNL     1     -58.808  -1.677   3.053  1.00  0.00     0.278 HD
BRANCH  12  15
HETATM   15  C5  UNL     1     -59.731  -1.547   1.249  1.00  0.00     0.291 C
BRANCH  15  16
HETATM   16  C6  UNL     1     -59.724  -2.249  -0.061  1.00  0.00     0.051 A
HETATM   17  C7  UNL     1     -59.646  -1.661  -1.304  1.00  0.00     0.115 A
HETATM   18  N3  UNL     1     -59.668  -2.630  -2.261  1.00  0.00    -0.360 N
HETATM   19  C8  UNL     1     -59.759  -3.796  -1.594  1.00  0.00     0.180 A
ATOM     20  H3  UNL     1     -59.625  -2.500  -3.271  1.00  0.00     0.166 HD
HETATM   21  N4  UNL     1     -59.793  -3.577  -0.267  1.00  0.00    -0.353 N
ATOM     22  H4  UNL     1     -59.859  -4.292   0.457  1.00  0.00     0.166 HD
ENDBRANCH  15  16
ENDBRANCH  12  15
ENDBRANCH   1  12
BRANCH   1  23
HETATM   23  C9  UNL     1     -56.998  -0.460   1.677  1.00  0.00     0.100 A
HETATM   24  C10 UNL     1     -56.471   0.356   0.692  1.00  0.00     0.124 A
HETATM   25  N5  UNL     1     -56.292   1.577   1.237  1.00  0.00    -0.354 N
HETATM   26  C11 UNL     1     -56.692   1.519   2.511  1.00  0.00     0.233 A
ATOM     27  H5  UNL     1     -55.917   2.398   0.761  1.00  0.00     0.166 HD
HETATM   28  O1  UNL     1     -57.103   0.311   2.743  1.00  0.00    -0.307 OA
ENDBRANCH   1  23
TORSDOF 9
ENDMDL