MODEL 5
REMARK VINA RESULT: -5.275316245      2.301      6.681
REMARK  9 active torsions:
REMARK  status: ('A' for Active; 'I' for Inactive)
REMARK       I    between atoms: C2_3  and  N2_5
REMARK    1  A    between atoms: N2_5  and  N3_7
REMARK    2  A    between atoms: N3_7  and  C3_9
REMARK    3  A    between atoms: C3_9  and  C4_10
REMARK    4  A    between atoms: C7_13  and  O2_14
REMARK    5  A    between atoms: O2_14  and  C8_15
REMARK    6  A    between atoms: C8_15  and  C9_16
REMARK    7  A    between atoms: C9_16  and  C10_18
REMARK    8  A    between atoms: C10_18  and  C11_19
REMARK    9  A    between atoms: C11_19  and  N4_20
ROOT
HETATM    1  N1  UNL     1     -55.342  -4.114   5.306  1.00  0.00    -0.186 NA
HETATM    2  C1  UNL     1     -56.327  -4.135   4.662  1.00  0.00     0.163 C
HETATM    3  C2  UNL     1     -57.543  -4.144   3.892  1.00  0.00     0.340 C
HETATM    4  O1  UNL     1     -58.618  -3.966   4.494  1.00  0.00    -0.254 OA
HETATM    5  N2  UNL     1     -57.494  -4.347   2.520  1.00  0.00    -0.262 N
ATOM      6  H2  UNL     1     -56.574  -4.486   2.101  1.00  0.00     0.190 HD
ENDROOT
BRANCH   5   7
HETATM    7  N3  UNL     1     -58.568  -4.376   1.690  1.00  0.00    -0.329 N
ATOM      8  H3  UNL     1     -59.331  -5.030   1.866  1.00  0.00     0.180 HD
BRANCH   7   9
HETATM    9  C3  UNL     1     -58.633  -3.500   0.581  1.00  0.00     0.178 C
BRANCH   9  10
HETATM   10  C4  UNL     1     -58.460  -2.111   1.093  1.00  0.00    -0.039 A
HETATM   11  C5  UNL     1     -59.474  -1.480   1.744  1.00  0.00     0.011 A
HETATM   12  C6  UNL     1     -59.289  -0.174   2.227  1.00  0.00     0.037 A
HETATM   13  C7  UNL     1     -58.093   0.471   2.045  1.00  0.00     0.069 A
HETATM   14  C12 UNL     1     -57.063  -0.177   1.380  1.00  0.00     0.037 A
HETATM   15  C13 UNL     1     -57.269  -1.450   0.920  1.00  0.00     0.011 A
BRANCH  13  16
HETATM   16  O2  UNL     1     -57.899   1.739   2.509  1.00  0.00    -0.344 OA
BRANCH  16  17
HETATM   17  C8  UNL     1     -56.753   2.107   3.239  1.00  0.00     0.253 C
BRANCH  17  18
HETATM   18  C9  UNL     1     -57.130   2.708   4.549  1.00  0.00     0.152 C
HETATM   19  O3  UNL     1     -56.271   3.028   5.333  1.00  0.00    -0.296 OA
BRANCH  18  20
HETATM   20  C10 UNL     1     -58.551   2.914   4.890  1.00  0.00     0.108 C
BRANCH  20  21
HETATM   21  C11 UNL     1     -58.952   4.369   4.603  1.00  0.00     0.237 C
BRANCH  21  22
HETATM   22  N4  UNL     1     -59.429   4.419   3.259  1.00  0.00    -0.079 N
ATOM     23  H43 UNL     1     -59.004   5.168   2.712  1.00  0.00     0.274 HD
ATOM     24  H42 UNL     1     -59.101   3.638   2.690  1.00  0.00     0.274 HD
ATOM     25  H41 UNL     1     -60.446   4.483   3.302  1.00  0.00     0.274 HD
ENDBRANCH  21  22
ENDBRANCH  20  21
ENDBRANCH  18  20
ENDBRANCH  17  18
ENDBRANCH  16  17
ENDBRANCH  13  16
ENDBRANCH   9  10
ENDBRANCH   7   9
ENDBRANCH   5   7
TORSDOF 9
ENDMDL