MODEL 2
REMARK VINA RESULT: -5.613324971      2.071      2.979
REMARK  8 active torsions:
REMARK  status: ('A' for Active; 'I' for Inactive)
REMARK    1  A    between atoms: C3_7  and  C4_8
REMARK    2  A    between atoms: C4_8  and  C7_11
REMARK    3  A    between atoms: C7_11  and  N3_12
REMARK    4  A    between atoms: N3_12  and  C8_15
REMARK    5  A    between atoms: C8_15  and  C9_16
REMARK    6  A    between atoms: C8_15  and  C10_21
REMARK    7  A    between atoms: C9_16  and  S1_17
REMARK    8  A    between atoms: S1_17  and  N4_18
ROOT
HETATM    1  C7  UNL     1     -58.060  -2.392   0.743  1.00  0.00     0.250 C
ENDROOT
BRANCH   1   2
HETATM    2  C4  UNL     1     -59.151  -1.464   0.180  1.00  0.00     0.036 C
HETATM    3  C5  UNL     1     -58.552  -0.348  -0.641  1.00  0.00     0.025 C
HETATM    4  C6  UNL     1     -59.992  -0.841   1.252  1.00  0.00     0.025 C
BRANCH   2   5
HETATM    5  C3  UNL     1     -59.960  -2.342  -0.708  1.00  0.00     0.107 A
HETATM    6  N2  UNL     1     -61.266  -2.619  -0.653  1.00  0.00    -0.287 N
HETATM    7  N1  UNL     1     -61.516  -3.485  -1.643  1.00  0.00    -0.288 N
ATOM      8  H2  UNL     1     -61.941  -2.245   0.015  1.00  0.00     0.188 HD
HETATM    9  C2  UNL     1     -60.393  -3.752  -2.313  1.00  0.00     0.093 A
ATOM     10  H1  UNL     1     -62.430  -3.882  -1.855  1.00  0.00     0.188 HD
HETATM   11  C1  UNL     1     -60.142  -4.643  -3.483  1.00  0.00     0.090 C
HETATM   12  N6  UNL     1     -59.439  -3.035  -1.718  1.00  0.00    -0.333 N
ATOM     13  H6  UNL     1     -58.458  -3.021  -1.994  1.00  0.00     0.168 HD
ENDBRANCH   2   5
ENDBRANCH   1   2
BRANCH   1  14
HETATM   14  N3  UNL     1     -58.661  -3.326   1.643  1.00  0.00    -0.061 N
ATOM     15  H32 UNL     1     -59.410  -2.889   2.178  1.00  0.00     0.278 HD
ATOM     16  H31 UNL     1     -59.205  -4.025   1.137  1.00  0.00     0.278 HD
BRANCH  14  17
HETATM   17  C8  UNL     1     -57.683  -3.959   2.527  1.00  0.00     0.285 C
BRANCH  17  18
HETATM   18  C9  UNL     1     -57.497  -2.860   3.597  1.00  0.00     0.139 C
BRANCH  18  19
HETATM   19  S1  UNL     1     -55.984  -3.347   4.480  1.00  0.00    -0.060 SA
BRANCH  19  20
HETATM   20  N4  UNL     1     -56.297  -4.080   6.026  1.00  0.00    -0.374 N
ATOM     21  H42 UNL     1     -56.473  -5.079   6.134  1.00  0.00     0.164 HD
ATOM     22  H41 UNL     1     -56.286  -3.413   6.797  1.00  0.00     0.164 HD
ENDBRANCH  19  20
ENDBRANCH  18  19
ENDBRANCH  17  18
BRANCH  17  23
HETATM   23  C10 UNL     1     -58.138  -5.221   3.075  1.00  0.00     0.262 C
HETATM   24  N5  UNL     1     -58.973  -5.209   4.250  1.00  0.00    -0.060 NA
HETATM   25  O1  UNL     1     -57.866  -6.361   2.612  1.00  0.00    -0.275 OA
ENDBRANCH  17  23
ENDBRANCH  14  17
ENDBRANCH   1  14
TORSDOF 8
ENDMDL