MODEL 3
REMARK VINA RESULT: -5.163499024      2.108      4.135
REMARK  11 active torsions:
REMARK  status: ('A' for Active; 'I' for Inactive)
REMARK    1  A    between atoms: C2_2  and  C3_3
REMARK    2  A    between atoms: C3_3  and  O1_4
REMARK    3  A    between atoms: C3_3  and  C4_6
REMARK    4  A    between atoms: C4_6  and  O2_7
REMARK    5  A    between atoms: C4_6  and  C5_9
REMARK    6  A    between atoms: C5_9  and  N1_10
REMARK    7  A    between atoms: C6_11  and  C7_12
REMARK    8  A    between atoms: C8_13  and  N2_14
REMARK    9  A    between atoms: C13_19  and  C14_20
REMARK   10  A    between atoms: C14_20  and  N3_21
REMARK   11  A    between atoms: C14_20  and  O3_25
ROOT
HETATM    1  N1  UNL     1     -57.220  -2.306   2.577  1.00  0.00    -0.344 N
HETATM    2  C6  UNL     1     -56.344  -2.272   1.523  1.00  0.00     0.036 A
HETATM    3  C11 UNL     1     -55.329  -3.152   1.802  1.00  0.00     0.032 A
HETATM    4  C12 UNL     1     -55.624  -3.705   3.038  1.00  0.00     0.032 A
HETATM    5  C13 UNL     1     -56.795  -3.168   3.497  1.00  0.00     0.068 A
ENDROOT
BRANCH   1   6
HETATM    6  C5  UNL     1     -58.392  -1.518   2.664  1.00  0.00     0.164 C
BRANCH   6   7
HETATM    7  C4  UNL     1     -59.608  -2.208   2.037  1.00  0.00     0.168 C
BRANCH   7   8
HETATM    8  C3  UNL     1     -60.129  -1.376   0.886  1.00  0.00     0.170 C
BRANCH   8   9
HETATM    9  C2  UNL     1     -60.295   0.035   1.227  1.00  0.00    -0.003 C
HETATM   10  C1  UNL     1     -60.004   0.965   0.343  1.00  0.00     0.009 C
ENDBRANCH   8   9
BRANCH   8  11
HETATM   11  O1  UNL     1     -61.272  -1.972   0.341  1.00  0.00    -0.389 OA
ATOM     12  H1  UNL     1     -61.250  -2.922   0.336  1.00  0.00     0.210 HD
ENDBRANCH   8  11
ENDBRANCH   7   8
BRANCH   7  13
HETATM   13  O2  UNL     1     -60.629  -2.386   2.955  1.00  0.00    -0.391 OA
ATOM     14  H2  UNL     1     -60.251  -2.653   3.785  1.00  0.00     0.210 HD
ENDBRANCH   7  13
ENDBRANCH   6   7
ENDBRANCH   1   6
BRANCH   2  15
HETATM   15  C7  UNL     1     -56.455  -1.476   0.323  1.00  0.00     0.046 C
HETATM   16  C8  UNL     1     -56.446  -0.219   0.146  1.00  0.00     0.088 C
BRANCH  16  17
HETATM   17  N2  UNL     1     -56.328   0.858   1.016  1.00  0.00    -0.387 N
HETATM   18  C9  UNL     1     -56.594   1.498   2.347  1.00  0.00     0.142 A
HETATM   19  C10 UNL     1     -55.897   2.259   1.322  1.00  0.00     0.142 A
ENDBRANCH  16  17
ENDBRANCH   2  15
BRANCH   5  20
HETATM   20  C14 UNL     1     -57.341  -3.583   4.807  1.00  0.00     0.367 C
BRANCH  20  21
HETATM   21  N3  UNL     1     -56.226  -4.205   5.543  1.00  0.00    -0.047 N
ATOM     22  H33 UNL     1     -56.530  -4.763   6.341  1.00  0.00     0.277 HD
ATOM     23  H32 UNL     1     -55.772  -4.960   5.028  1.00  0.00     0.277 HD
ATOM     24  H31 UNL     1     -55.590  -3.449   5.797  1.00  0.00     0.277 HD
ENDBRANCH  20  21
BRANCH  20  25
HETATM   25  O3  UNL     1     -58.363  -4.462   4.814  1.00  0.00    -0.365 OA
ATOM     26  H3  UNL     1     -58.162  -5.379   4.668  1.00  0.00     0.212 HD
ENDBRANCH  20  25
ENDBRANCH   5  20
TORSDOF 11
ENDMDL