MODEL 5
REMARK VINA RESULT: -5.196659866      1.552      5.998
REMARK  10 active torsions:
REMARK  status: ('A' for Active; 'I' for Inactive)
REMARK    1  A    between atoms: C2_2  and  C3_3
REMARK    2  A    between atoms: C3_3  and  N1_4
REMARK    3  A    between atoms: N1_4  and  C4_6
REMARK    4  A    between atoms: C5_9  and  C6_10
REMARK    5  A    between atoms: C6_10  and  O1_11
REMARK    6  A    between atoms: C6_10  and  C7_13
REMARK    7  A    between atoms: C7_13  and  N3_14
REMARK    8  A    between atoms: N3_14  and  C8_16
REMARK    9  A    between atoms: C8_16  and  C9_17
REMARK   10  A    between atoms: C9_17  and  C10_18
ROOT
HETATM    1  C6  UNL     1     -59.239  -2.213   0.780  1.00  0.00     0.224 C
ENDROOT
BRANCH   1   2
HETATM    2  C5  UNL     1     -58.860  -3.566   1.330  1.00  0.00     0.132 A
HETATM    3  N2  UNL     1     -58.724  -3.708   2.645  1.00  0.00    -0.178 N
HETATM    4  C4  UNL     1     -58.381  -4.869   3.217  1.00  0.00     0.680 A
ATOM      5  H2  UNL     1     -58.886  -2.898   3.244  1.00  0.00     0.185 HD
HETATM    6  N7  UNL     1     -58.170  -5.936   2.398  1.00  0.00    -0.188 N
HETATM    7  C13 UNL     1     -58.295  -5.838   1.084  1.00  0.00     0.199 A
ATOM      8  H7  UNL     1     -57.908  -6.833   2.807  1.00  0.00     0.185 HD
HETATM    9  N6  UNL     1     -58.645  -4.634   0.557  1.00  0.00    -0.339 N
ATOM     10  H6  UNL     1     -58.745  -4.544  -0.455  1.00  0.00     0.168 HD
BRANCH   4  11
HETATM   11  N1  UNL     1     -58.270  -4.971   4.492  1.00  0.00    -0.223 N
ATOM     12  H1  UNL     1     -58.586  -5.811   4.978  1.00  0.00     0.178 HD
BRANCH  11  13
HETATM   13  C3  UNL     1     -57.684  -3.865   5.227  1.00  0.00     0.164 C
BRANCH  13  14
HETATM   14  C2  UNL     1     -56.216  -3.919   5.307  1.00  0.00    -0.017 C
HETATM   15  C1  UNL     1     -55.494  -3.234   4.436  1.00  0.00     0.008 C
ENDBRANCH  13  14
ENDBRANCH  11  13
ENDBRANCH   4  11
ENDBRANCH   1   2
BRANCH   1  16
HETATM   16  O1  UNL     1     -60.594  -2.099   0.666  1.00  0.00    -0.383 OA
ATOM     17  H1  UNL     1     -60.830  -1.697  -0.161  1.00  0.00     0.211 HD
ENDBRANCH   1  16
BRANCH   1  18
HETATM   18  C7  UNL     1     -58.570  -1.191   1.648  1.00  0.00     0.099 C
BRANCH  18  19
HETATM   19  N3  UNL     1     -59.308  -0.028   1.947  1.00  0.00    -0.379 N
ATOM     20  H3  UNL     1     -60.299   0.020   1.713  1.00  0.00     0.164 HD
BRANCH  19  21
HETATM   21  C8  UNL     1     -58.680   1.065   2.567  1.00  0.00     0.066 C
BRANCH  21  22
HETATM   22  C9  UNL     1     -57.181   0.872   2.753  1.00  0.00     0.103 C
BRANCH  22  23
HETATM   23  C10 UNL     1     -56.608   2.050   3.495  1.00  0.00     0.030 A
HETATM   24  C11 UNL     1     -55.882   3.074   2.937  1.00  0.00     0.114 A
HETATM   25  N4  UNL     1     -55.555   3.927   3.931  1.00  0.00    -0.360 N
HETATM   26  C12 UNL     1     -56.063   3.450   5.079  1.00  0.00     0.180 A
ATOM     27  H4  UNL     1     -55.016   4.786   3.828  1.00  0.00     0.166 HD
HETATM   28  N5  UNL     1     -56.704   2.308   4.806  1.00  0.00    -0.354 N
ATOM     29  H5  UNL     1     -57.189   1.725   5.489  1.00  0.00     0.166 HD
ENDBRANCH  22  23
ENDBRANCH  21  22
ENDBRANCH  19  21
ENDBRANCH  18  19
ENDBRANCH   1  18
TORSDOF 10
ENDMDL