MODEL 4
REMARK VINA RESULT: -6.332139378      1.352      2.226
REMARK  7 active torsions:
REMARK  status: ('A' for Active; 'I' for Inactive)
REMARK    1  A    between atoms: N1_1  and  N2_4
REMARK       I    between atoms: N2_4  and  C1_5
REMARK       I    between atoms: C1_5  and  N3_6
REMARK       I    between atoms: C1_5  and  N4_10
REMARK       I    between atoms: N4_10  and  C2_12
REMARK    2  A    between atoms: C2_12  and  C3_14
REMARK    3  A    between atoms: C3_14  and  C4_15
REMARK    4  A    between atoms: C4_15  and  C5_16
REMARK    5  A    between atoms: C5_16  and  N5_17
REMARK    6  A    between atoms: N5_17  and  C6_19
REMARK    7  A    between atoms: C9_22  and  N6_23
ROOT
HETATM    1  C3  UNL     1     -58.533  -1.235   2.164  1.00  0.00     0.104 C
ENDROOT
BRANCH   1   2
HETATM    2  C2  UNL     1     -58.963  -2.518   2.746  1.00  0.00     0.220 C
HETATM    3  N4  UNL     1     -58.190  -3.694   2.491  1.00  0.00    -0.319 N
HETATM    4  C1  UNL     1     -58.548  -4.983   3.025  1.00  0.00     0.398 C
ATOM      5  H4  UNL     1     -57.356  -3.618   1.909  1.00  0.00     0.165 HD
HETATM    6  N2  UNL     1     -57.528  -5.511   3.911  1.00  0.00    -0.093 NA
HETATM    7  N3  UNL     1     -58.863  -5.914   1.964  1.00  0.00    -0.042 N
ATOM      8  H33 UNL     1     -58.027  -6.190   1.449  1.00  0.00     0.278 HD
ATOM      9  H32 UNL     1     -59.128  -6.826   2.335  1.00  0.00     0.278 HD
ATOM     10  H31 UNL     1     -59.580  -5.543   1.341  1.00  0.00     0.278 HD
HETATM   11  O1  UNL     1     -59.982  -2.642   3.464  1.00  0.00    -0.274 OA
BRANCH   6  12
HETATM   12  N1  UNL     1     -57.206  -4.648   4.936  1.00  0.00    -0.345 N
ATOM     13  H12 UNL     1     -57.875  -3.984   5.328  1.00  0.00     0.172 HD
ATOM     14  H11 UNL     1     -56.241  -4.746   5.252  1.00  0.00     0.172 HD
ENDBRANCH   6  12
ENDBRANCH   1   2
BRANCH   1  15
HETATM   15  C4  UNL     1     -57.082  -1.086   1.904  1.00  0.00     0.029 C
BRANCH  15  16
HETATM   16  C5  UNL     1     -56.676   0.151   1.145  1.00  0.00     0.120 C
BRANCH  16  17
HETATM   17  N5  UNL     1     -57.328   1.336   1.654  1.00  0.00    -0.390 N
ATOM     18  H5  UNL     1     -58.201   1.638   1.223  1.00  0.00     0.159 HD
BRANCH  17  19
HETATM   19  C6  UNL     1     -56.799   2.096   2.731  1.00  0.00     0.028 A
HETATM   20  C7  UNL     1     -57.113   1.829   4.047  1.00  0.00     0.031 A
HETATM   21  C8  UNL     1     -56.580   2.589   5.067  1.00  0.00     0.038 A
HETATM   22  C9  UNL     1     -55.713   3.645   4.831  1.00  0.00     0.103 A
HETATM   23  C10 UNL     1     -55.404   3.904   3.512  1.00  0.00     0.038 A
HETATM   24  C11 UNL     1     -55.937   3.145   2.489  1.00  0.00     0.031 A
BRANCH  22  25
HETATM   25  N6  UNL     1     -55.179   4.409   5.900  1.00  0.00    -0.116 N
HETATM   26  O2  UNL     1     -54.088   4.136   6.422  1.00  0.00    -0.532 OA
HETATM   27  O3  UNL     1     -55.879   5.484   6.380  1.00  0.00    -0.532 OA
ENDBRANCH  22  25
ENDBRANCH  17  19
ENDBRANCH  16  17
ENDBRANCH  15  16
ENDBRANCH   1  15
TORSDOF 7
ENDMDL