MODEL 4
REMARK VINA RESULT: -5.194126957      1.483      2.042
REMARK  9 active torsions:
REMARK  status: ('A' for Active; 'I' for Inactive)
REMARK    1  A    between atoms: C1_2  and  C2_4
REMARK    2  A    between atoms: C2_4  and  C3_5
REMARK    3  A    between atoms: C2_4  and  N3_13
REMARK    4  A    between atoms: C3_5  and  C4_6
REMARK    5  A    between atoms: C4_6  and  N1_7
REMARK    6  A    between atoms: N3_13  and  C8_15
REMARK    7  A    between atoms: C8_15  and  C9_16
REMARK    8  A    between atoms: C9_16  and  O3_17
REMARK    9  A    between atoms: C9_16  and  C10_19
ROOT
HETATM    1  N3  UNL     1     -58.086  -2.227   0.674  1.00  0.00    -0.405 N
ATOM      2  H3  UNL     1     -58.656  -2.637  -0.066  1.00  0.00     0.154 HD
ENDROOT
BRANCH   1   3
HETATM    3  C2  UNL     1     -58.443  -0.945   1.224  1.00  0.00     0.180 C
BRANCH   3   4
HETATM    4  C1  UNL     1     -59.795  -1.014   1.746  1.00  0.00     0.196 C
HETATM    5  O1  UNL     1     -60.096  -1.786   2.714  1.00  0.00    -0.646 OA
HETATM    6  O2  UNL     1     -60.828  -0.278   1.244  1.00  0.00    -0.646 OA
ENDBRANCH   3   4
BRANCH   3   7
HETATM    7  C3  UNL     1     -57.446  -0.468   2.212  1.00  0.00     0.056 C
BRANCH   7   8
HETATM    8  C4  UNL     1     -57.019   0.942   1.981  1.00  0.00     0.131 C
BRANCH   8   9
HETATM    9  N1  UNL     1     -57.442   1.792   3.108  1.00  0.00    -0.352 N
HETATM   10  C5  UNL     1     -58.685   2.241   3.327  1.00  0.00     0.108 A
HETATM   11  C6  UNL     1     -58.698   3.011   4.480  1.00  0.00     0.106 A
HETATM   12  N2  UNL     1     -57.437   3.011   4.943  1.00  0.00    -0.361 N
HETATM   13  C7  UNL     1     -56.683   2.263   4.093  1.00  0.00     0.182 A
ATOM     14  H2  UNL     1     -57.105   3.487   5.782  1.00  0.00     0.166 HD
ENDBRANCH   8   9
ENDBRANCH   7   8
ENDBRANCH   3   7
ENDBRANCH   1   3
BRANCH   1  15
HETATM   15  C8  UNL     1     -56.971  -2.910   1.141  1.00  0.00     0.152 C
BRANCH  15  16
HETATM   16  C9  UNL     1     -57.509  -4.099   1.977  1.00  0.00     0.186 C
BRANCH  16  17
HETATM   17  O3  UNL     1     -56.993  -5.235   1.357  1.00  0.00    -0.388 OA
ATOM     18  H3  UNL     1     -56.882  -5.867   2.057  1.00  0.00     0.210 HD
ENDBRANCH  16  17
BRANCH  16  19
HETATM   19  C10 UNL     1     -57.072  -3.966   3.383  1.00  0.00     0.056 A
HETATM   20  C11 UNL     1     -57.669  -4.451   4.528  1.00  0.00     0.116 A
HETATM   21  N4  UNL     1     -56.931  -4.096   5.604  1.00  0.00    -0.360 N
HETATM   22  C12 UNL     1     -55.891  -3.400   5.141  1.00  0.00     0.180 A
ATOM     23  H4  UNL     1     -57.130  -4.317   6.579  1.00  0.00     0.166 HD
HETATM   24  N5  UNL     1     -55.972  -3.321   3.815  1.00  0.00    -0.352 N
ATOM     25  H5  UNL     1     -55.301  -2.842   3.215  1.00  0.00     0.166 HD
ENDBRANCH  16  19
ENDBRANCH  15  16
ENDBRANCH   1  15
TORSDOF 9
ENDMDL