MODEL 2
REMARK VINA RESULT: -5.728929570      1.784      2.231
REMARK  9 active torsions:
REMARK  status: ('A' for Active; 'I' for Inactive)
REMARK    1  A    between atoms: O1_2  and  C2_3
REMARK    2  A    between atoms: C5_6  and  C6_7
REMARK    3  A    between atoms: C6_7  and  C7_8
REMARK    4  A    between atoms: C7_8  and  N1_9
REMARK       I    between atoms: C8_11  and  N3_13
REMARK    5  A    between atoms: N3_13  and  N4_15
REMARK    6  A    between atoms: N4_15  and  O2_16
REMARK    7  A    between atoms: N5_18  and  N6_20
REMARK    8  A    between atoms: C9_23  and  N7_24
REMARK    9  A    between atoms: N7_24  and  C10_26
ROOT
HETATM    1  C7  UNL     1     -56.394  -1.091   0.904  1.00  0.00     0.127 C
ENDROOT
BRANCH   1   2
HETATM    2  C6  UNL     1     -56.993   0.251   0.471  1.00  0.00     0.060 C
BRANCH   2   3
HETATM    3  C5  UNL     1     -57.384   1.069   1.646  1.00  0.00    -0.030 A
HETATM    4  C4  UNL     1     -56.404   1.536   2.522  1.00  0.00     0.012 A
HETATM    5  C3  UNL     1     -56.777   2.273   3.628  1.00  0.00     0.037 A
HETATM    6  C2  UNL     1     -58.095   2.553   3.879  1.00  0.00     0.070 A
HETATM    7  C11 UNL     1     -59.032   2.065   2.977  1.00  0.00     0.066 A
HETATM    8  C9  UNL     1     -58.750   1.331   1.862  1.00  0.00     0.043 A
BRANCH   6   9
HETATM    9  O1  UNL     1     -58.440   3.287   4.986  1.00  0.00    -0.356 OA
HETATM   10  C1  UNL     1     -59.044   4.549   4.802  1.00  0.00     0.210 C
ENDBRANCH   6   9
BRANCH   8  11
HETATM   11  N7  UNL     1     -59.694   0.860   0.930  1.00  0.00    -0.334 N
ATOM     12  H7  UNL     1     -59.780   1.367   0.049  1.00  0.00     0.168 HD
BRANCH  11  13
HETATM   13  C10 UNL     1     -60.525  -0.253   1.121  1.00  0.00     0.353 C
HETATM   14  O3  UNL     1     -60.328  -1.248   1.844  1.00  0.00    -0.283 OA
ENDBRANCH  11  13
ENDBRANCH   8  11
ENDBRANCH   2   3
ENDBRANCH   1   2
BRANCH   1  15
HETATM   15  N1  UNL     1     -57.419  -1.742   1.690  1.00  0.00    -0.363 N
HETATM   16  C8  UNL     1     -57.193  -2.921   2.140  1.00  0.00     0.206 C
HETATM   17  N2  UNL     1     -55.977  -3.626   1.904  1.00  0.00    -0.062 NA
HETATM   18  N3  UNL     1     -58.203  -3.550   2.910  1.00  0.00    -0.230 N
ATOM     19  H3  UNL     1     -59.156  -3.631   2.555  1.00  0.00     0.194 HD
ATOM     20  H1  UNL     1     -58.303  -1.272   1.882  1.00  0.00     0.162 HD
BRANCH  18  21
HETATM   21  N4  UNL     1     -57.867  -4.056   4.158  1.00  0.00    -0.078 N
HETATM   22  N5  UNL     1     -56.839  -3.606   4.735  1.00  0.00    -0.207 N
ATOM     23  H5  UNL     1     -56.275  -2.886   4.284  1.00  0.00     0.212 HD
BRANCH  21  24
HETATM   24  O2  UNL     1     -58.630  -5.022   4.755  1.00  0.00    -0.252 OA
ATOM     25  H2  UNL     1     -58.866  -5.815   4.288  1.00  0.00     0.248 HD
ENDBRANCH  21  24
BRANCH  22  26
HETATM   26  N6  UNL     1     -56.473  -4.091   5.988  1.00  0.00    -0.328 N
ATOM     27  H62 UNL     1     -56.920  -4.937   6.340  1.00  0.00     0.178 HD
ATOM     28  H61 UNL     1     -55.768  -3.602   6.539  1.00  0.00     0.178 HD
ENDBRANCH  22  26
ENDBRANCH  18  21
ENDBRANCH   1  15
TORSDOF 9
ENDMDL