MODEL 4
REMARK VINA RESULT: -5.770174736      3.347      8.242
REMARK  8 active torsions:
REMARK  status: ('A' for Active; 'I' for Inactive)
REMARK    1  A    between atoms: C1_2  and  C2_4
REMARK    2  A    between atoms: C2_4  and  N2_5
REMARK    3  A    between atoms: N2_5  and  C3_7
REMARK    4  A    between atoms: C3_7  and  C4_8
REMARK    5  A    between atoms: C4_8  and  C5_9
REMARK    6  A    between atoms: C8_12  and  N3_13
REMARK    7  A    between atoms: N3_13  and  C9_15
REMARK    8  A    between atoms: C9_15  and  C10_16
ROOT
HETATM    1  C5  UNL     1      -9.692 -59.439 -11.153  1.00  0.00    -0.057 A
HETATM    2  C6  UNL     1     -10.079 -59.631  -9.845  1.00  0.00     0.009 A
HETATM    3  C7  UNL     1      -9.416 -59.088  -8.770  1.00  0.00     0.029 A
HETATM    4  C8  UNL     1      -8.306 -58.312  -8.992  1.00  0.00     0.028 A
HETATM    5  C11 UNL     1      -7.893 -58.100 -10.294  1.00  0.00     0.029 A
HETATM    6  C12 UNL     1      -8.559 -58.644 -11.368  1.00  0.00     0.009 A
ENDROOT
BRANCH   4   7
HETATM    7  N3  UNL     1      -7.576 -57.744  -7.929  1.00  0.00    -0.383 N
ATOM      8  H3  UNL     1      -6.663 -58.150  -7.727  1.00  0.00     0.160 HD
BRANCH   7   9
HETATM    9  C9  UNL     1      -7.996 -56.652  -7.108  1.00  0.00     0.198 C
BRANCH   9  10
HETATM   10  C10 UNL     1      -8.457 -57.085  -5.764  1.00  0.00     0.124 A
HETATM   11  N4  UNL     1      -7.572 -57.329  -4.760  1.00  0.00    -0.272 N
HETATM   12  N5  UNL     1      -8.245 -57.701  -3.684  1.00  0.00    -0.007 NA
ATOM     13  H4  UNL     1      -6.559 -57.240  -4.826  1.00  0.00     0.185 HD
HETATM   14  N6  UNL     1      -9.531 -57.690  -4.000  1.00  0.00    -0.007 NA
HETATM   15  N7  UNL     1      -9.661 -57.318  -5.260  1.00  0.00    -0.272 N
ATOM     16  H7  UNL     1     -10.543 -57.225  -5.764  1.00  0.00     0.185 HD
ENDBRANCH   9  10
ENDBRANCH   7   9
ENDBRANCH   4   7
BRANCH   1  17
HETATM   17  C4  UNL     1     -10.420 -60.040 -12.288  1.00  0.00     0.057 C
BRANCH  17  18
HETATM   18  C3  UNL     1     -10.466 -61.545 -12.262  1.00  0.00     0.118 C
BRANCH  18  19
HETATM   19  N2  UNL     1     -11.853 -61.927 -12.199  1.00  0.00    -0.413 N
ATOM     20  H2  UNL     1     -12.153 -62.833 -11.839  1.00  0.00     0.153 HD
BRANCH  19  21
HETATM   21  C2  UNL     1     -12.781 -60.951 -12.675  1.00  0.00     0.213 C
BRANCH  21  22
HETATM   22  C1  UNL     1     -13.834 -60.563 -11.735  1.00  0.00     0.248 C
HETATM   23  N1  UNL     1     -13.564 -60.508 -10.344  1.00  0.00    -0.061 NA
HETATM   24  O1  UNL     1     -14.989 -60.270 -12.133  1.00  0.00    -0.275 OA
ENDBRANCH  21  22
ENDBRANCH  19  21
ENDBRANCH  18  19
ENDBRANCH  17  18
ENDBRANCH   1  17
TORSDOF 8
ENDMDL