MODEL 4
REMARK VINA RESULT: -5.590276804      2.107      6.818
REMARK  9 active torsions:
REMARK  status: ('A' for Active; 'I' for Inactive)
REMARK    1  A    between atoms: C2_2  and  C3_6
REMARK    2  A    between atoms: C3_6  and  N2_7
REMARK    3  A    between atoms: C3_6  and  C4_11
REMARK       I    between atoms: C4_11  and  N3_13
REMARK    4  A    between atoms: N3_13  and  C5_15
REMARK    5  A    between atoms: C5_15  and  C7_17
REMARK    6  A    between atoms: C7_17  and  C8_18
REMARK    7  A    between atoms: C8_18  and  C9_20
REMARK    8  A    between atoms: C9_20  and  C10_21
REMARK    9  A    between atoms: C10_21  and  C11_22
ROOT
HETATM    1  C4  UNL     1     -10.009 -60.506 -10.343  1.00  0.00     0.254 C
HETATM    2  O1  UNL     1      -9.508 -61.636 -10.565  1.00  0.00    -0.271 OA
HETATM    3  N3  UNL     1      -9.546 -59.736  -9.250  1.00  0.00    -0.354 N
ATOM      4  H3  UNL     1      -9.946 -58.816  -9.060  1.00  0.00     0.162 HD
ENDROOT
BRANCH   3   5
HETATM    5  C5  UNL     1      -8.505 -60.268  -8.409  1.00  0.00     0.087 C
HETATM    6  C6  UNL     1      -8.918 -60.209  -6.955  1.00  0.00     0.032 C
BRANCH   5   7
HETATM    7  C7  UNL     1      -7.223 -59.474  -8.543  1.00  0.00     0.103 C
BRANCH   7   8
HETATM    8  C8  UNL     1      -7.552 -58.064  -8.826  1.00  0.00     0.129 C
HETATM    9  O2  UNL     1      -7.735 -57.728  -9.981  1.00  0.00    -0.298 OA
BRANCH   8  10
HETATM   10  C9  UNL     1      -7.668 -57.042  -7.730  1.00  0.00     0.084 C
BRANCH  10  11
HETATM   11  C10 UNL     1      -8.946 -56.262  -7.928  1.00  0.00     0.066 C
BRANCH  11  12
HETATM   12  C11 UNL     1      -9.940 -56.585  -6.869  1.00  0.00     0.025 A
HETATM   13  C12 UNL     1      -9.698 -57.113  -5.623  1.00  0.00     0.114 A
HETATM   14  N4  UNL     1     -10.851 -57.264  -4.948  1.00  0.00    -0.360 N
HETATM   15  C13 UNL     1     -11.826 -56.825  -5.779  1.00  0.00     0.180 A
ATOM     16  H4  UNL     1     -10.968 -57.633  -4.004  1.00  0.00     0.166 HD
HETATM   17  N5  UNL     1     -11.285 -56.413  -6.939  1.00  0.00    -0.355 N
ATOM     18  H5  UNL     1     -11.798 -56.036  -7.736  1.00  0.00     0.166 HD
ENDBRANCH  11  12
ENDBRANCH  10  11
ENDBRANCH   8  10
ENDBRANCH   7   8
ENDBRANCH   5   7
ENDBRANCH   3   5
BRANCH   1  19
HETATM   19  C3  UNL     1     -11.084 -59.940 -11.198  1.00  0.00     0.319 C
BRANCH  19  20
HETATM   20  C2  UNL     1     -12.209 -60.904 -11.244  1.00  0.00     0.015 C
HETATM   21  C1  UNL     1     -13.425 -60.616 -10.435  1.00  0.00     0.065 C
HETATM   22  N1  UNL     1     -12.108 -61.947 -11.970  1.00  0.00    -0.404 N
ATOM     23  H12 UNL     1     -12.882 -62.611 -12.003  1.00  0.00     0.155 HD
ATOM     24  H11 UNL     1     -11.275 -62.145 -12.525  1.00  0.00     0.155 HD
ENDBRANCH  19  20
BRANCH  19  25
HETATM   25  N2  UNL     1     -10.598 -59.664 -12.539  1.00  0.00    -0.061 N
ATOM     26  H23 UNL     1     -11.351 -59.381 -13.165  1.00  0.00     0.275 HD
ATOM     27  H22 UNL     1     -10.043 -58.809 -12.573  1.00  0.00     0.275 HD
ATOM     28  H21 UNL     1     -10.082 -60.465 -12.903  1.00  0.00     0.275 HD
ENDBRANCH  19  25
ENDBRANCH   1  19
TORSDOF 9
ENDMDL