MODEL 4
REMARK VINA RESULT: -5.829483609      1.105      1.949
REMARK  10 active torsions:
REMARK  status: ('A' for Active; 'I' for Inactive)
REMARK    1  A    between atoms: N1_1  and  C1_5
REMARK    2  A    between atoms: C1_5  and  C2_6
REMARK    3  A    between atoms: C2_6  and  N2_7
REMARK    4  A    between atoms: C2_6  and  C3_11
REMARK    5  A    between atoms: C3_11  and  C4_12
REMARK    6  A    between atoms: C4_12  and  N3_13
REMARK       I    between atoms: N3_13  and  C5_15
REMARK    7  A    between atoms: C5_15  and  C6_17
REMARK    8  A    between atoms: C6_17  and  N4_18
REMARK    9  A    between atoms: N4_18  and  C7_20
REMARK   10  A    between atoms: C10_23  and  N5_24
ROOT
HETATM    1  N3  UNL     1      -9.367 -58.008  -8.407  1.00  0.00    -0.360 N
ATOM      2  H3  UNL     1      -9.587 -57.769  -9.374  1.00  0.00     0.162 HD
HETATM    3  C5  UNL     1      -9.147 -59.368  -8.110  1.00  0.00     0.235 C
HETATM    4  O1  UNL     1      -8.870 -59.713  -6.946  1.00  0.00    -0.272 OA
ENDROOT
BRANCH   1   5
HETATM    5  C4  UNL     1      -9.306 -56.936  -7.462  1.00  0.00     0.125 C
BRANCH   5   6
HETATM    6  C3  UNL     1     -10.573 -56.762  -6.662  1.00  0.00     0.054 C
BRANCH   6   7
HETATM    7  C2  UNL     1     -10.183 -56.925  -5.202  1.00  0.00     0.210 C
BRANCH   7   8
HETATM    8  C1  UNL     1      -8.684 -56.798  -5.012  1.00  0.00     0.262 C
BRANCH   8   9
HETATM    9  N1  UNL     1      -8.238 -58.001  -4.335  1.00  0.00    -0.077 N
ATOM     10  H13 UNL     1      -7.471 -57.833  -3.683  1.00  0.00     0.274 HD
ATOM     11  H12 UNL     1      -8.913 -58.351  -3.654  1.00  0.00     0.274 HD
ATOM     12  H11 UNL     1      -8.009 -58.683  -5.057  1.00  0.00     0.274 HD
ENDBRANCH   8   9
ENDBRANCH   7   8
BRANCH   7  13
HETATM   13  N2  UNL     1     -10.622 -58.224  -4.737  1.00  0.00    -0.073 N
ATOM     14  H23 UNL     1     -11.595 -58.409  -4.976  1.00  0.00     0.274 HD
ATOM     15  H22 UNL     1     -10.194 -58.986  -5.263  1.00  0.00     0.274 HD
ATOM     16  H21 UNL     1     -10.450 -58.304  -3.735  1.00  0.00     0.274 HD
ENDBRANCH   7  13
ENDBRANCH   6   7
ENDBRANCH   5   6
ENDBRANCH   1   5
BRANCH   3  17
HETATM   17  C6  UNL     1      -9.242 -60.379  -9.174  1.00  0.00     0.222 C
BRANCH  17  18
HETATM   18  N4  UNL     1      -9.729 -59.762 -10.388  1.00  0.00    -0.381 N
ATOM     19  H4  UNL     1      -9.120 -59.117 -10.890  1.00  0.00     0.160 HD
BRANCH  18  20
HETATM   20  C7  UNL     1     -11.027 -60.023 -10.908  1.00  0.00     0.028 A
HETATM   21  C8  UNL     1     -11.291 -59.972 -12.261  1.00  0.00     0.031 A
HETATM   22  C9  UNL     1     -12.550 -60.226 -12.762  1.00  0.00     0.038 A
HETATM   23  C10 UNL     1     -13.612 -60.543 -11.943  1.00  0.00     0.103 A
HETATM   24  C11 UNL     1     -13.347 -60.593 -10.583  1.00  0.00     0.038 A
HETATM   25  C12 UNL     1     -12.088 -60.340 -10.080  1.00  0.00     0.031 A
BRANCH  23  26
HETATM   26  N5  UNL     1     -14.908 -60.803 -12.464  1.00  0.00    -0.116 N
HETATM   27  O2  UNL     1     -15.365 -61.943 -12.644  1.00  0.00    -0.532 OA
HETATM   28  O3  UNL     1     -15.701 -59.734 -12.787  1.00  0.00    -0.532 OA
ENDBRANCH  23  26
ENDBRANCH  18  20
ENDBRANCH  17  18
ENDBRANCH   3  17
TORSDOF 10
ENDMDL