MODEL 4
REMARK VINA RESULT: -4.684959742      1.739      2.260
REMARK  9 active torsions:
REMARK  status: ('A' for Active; 'I' for Inactive)
REMARK    1  A    between atoms: C2_2  and  O1_5
REMARK    2  A    between atoms: O1_5  and  N1_6
REMARK    3  A    between atoms: C5_8  and  C6_9
REMARK    4  A    between atoms: C6_9  and  N2_10
REMARK    5  A    between atoms: C6_9  and  C12_21
REMARK    6  A    between atoms: N2_10  and  O2_11
REMARK    7  A    between atoms: O2_11  and  C7_12
REMARK    8  A    between atoms: C7_12  and  C8_13
REMARK    9  A    between atoms: C8_13  and  C9_14
ROOT
HETATM    1  C6  UNL     1     -10.075 -57.595  -7.400  1.00  0.00     0.235 C
ENDROOT
BRANCH   1   2
HETATM    2  C5  UNL     1      -9.148 -56.683  -8.067  1.00  0.00     0.119 C
HETATM    3  N1  UNL     1      -8.329 -56.048  -7.367  1.00  0.00    -0.279 N
ATOM      4  H1  UNL     1      -7.735 -55.450  -7.941  1.00  0.00     0.193 HD
BRANCH   3   5
HETATM    5  O1  UNL     1      -8.034 -55.944  -6.134  1.00  0.00    -0.271 OA
BRANCH   5   6
HETATM    6  C2  UNL     1      -7.240 -56.358  -5.110  1.00  0.00     0.078 C
HETATM    7  C1  UNL     1      -6.146 -57.257  -5.763  1.00  0.00     0.048 C
HETATM    8  C3  UNL     1      -7.887 -57.217  -4.085  1.00  0.00     0.048 C
HETATM    9  C4  UNL     1      -6.517 -55.228  -4.406  1.00  0.00     0.048 C
ENDBRANCH   5   6
ENDBRANCH   3   5
ENDBRANCH   1   2
BRANCH   1  10
HETATM   10  N2  UNL     1      -9.536 -58.753  -6.780  1.00  0.00    -0.082 NA
BRANCH  10  11
HETATM   11  O2  UNL     1      -8.386 -59.079  -7.317  1.00  0.00    -0.285 OA
BRANCH  11  12
HETATM   12  C7  UNL     1      -8.261 -60.473  -7.533  1.00  0.00     0.202 C
BRANCH  12  13
HETATM   13  C8  UNL     1      -8.024 -60.475  -9.063  1.00  0.00     0.086 C
BRANCH  13  14
HETATM   14  C9  UNL     1      -7.244 -59.337  -9.552  1.00  0.00     0.027 A
HETATM   15  C10 UNL     1      -7.657 -58.692 -10.786  1.00  0.00     0.114 A
HETATM   16  N3  UNL     1      -6.864 -57.646 -11.056  1.00  0.00    -0.360 N
HETATM   17  C11 UNL     1      -5.968 -57.581 -10.061  1.00  0.00     0.180 A
ATOM     18  H3  UNL     1      -6.930 -57.022 -11.861  1.00  0.00     0.166 HD
HETATM   19  N4  UNL     1      -6.194 -58.594  -9.172  1.00  0.00    -0.355 N
ATOM     20  H4  UNL     1      -5.640 -58.762  -8.332  1.00  0.00     0.166 HD
ENDBRANCH  13  14
ENDBRANCH  12  13
ENDBRANCH  11  12
ENDBRANCH  10  11
ENDBRANCH   1  10
BRANCH   1  21
HETATM   21  C12 UNL     1     -10.929 -56.969  -6.368  1.00  0.00     0.257 C
HETATM   22  N5  UNL     1     -11.611 -55.758  -6.458  1.00  0.00    -0.060 NA
HETATM   23  O3  UNL     1     -11.014 -57.666  -5.285  1.00  0.00    -0.275 OA
ENDBRANCH   1  21
TORSDOF 9
ENDMDL