MODEL 1
REMARK VINA RESULT: -5.516842893      0.000      0.000
REMARK  10 active torsions:
REMARK  status: ('A' for Active; 'I' for Inactive)
REMARK    1  A    between atoms: C2_2  and  C3_6
REMARK    2  A    between atoms: C3_6  and  C4_7
REMARK    3  A    between atoms: C3_6  and  N2_9
REMARK    4  A    between atoms: N2_9  and  C5_11
REMARK    5  A    between atoms: C5_11  and  C6_12
REMARK    6  A    between atoms: C5_11  and  C10_23
REMARK    7  A    between atoms: C6_12  and  C7_14
REMARK    8  A    between atoms: C7_14  and  N3_15
REMARK    9  A    between atoms: C7_14  and  C8_19
REMARK   10  A    between atoms: C8_19  and  O3_21
ROOT
HETATM    1  C5  UNL     1      -7.676 -59.323  -7.536  1.00  0.00     0.185 C
ENDROOT
BRANCH   1   2
HETATM    2  N2  UNL     1      -6.720 -60.344  -7.340  1.00  0.00    -0.392 N
ATOM      3  H2  UNL     1      -6.969 -61.028  -6.624  1.00  0.00     0.155 HD
BRANCH   2   4
HETATM    4  C3  UNL     1      -5.513 -60.570  -7.952  1.00  0.00     0.184 C
BRANCH   4   5
HETATM    5  C2  UNL     1      -4.438 -59.714  -7.387  1.00  0.00     0.005 C
HETATM    6  C1  UNL     1      -4.065 -58.487  -8.180  1.00  0.00     0.065 C
HETATM    7  N1  UNL     1      -3.940 -59.998  -6.287  1.00  0.00    -0.404 N
ATOM      8  H12 UNL     1      -3.201 -59.410  -5.899  1.00  0.00     0.155 HD
ATOM      9  H11 UNL     1      -4.192 -60.828  -5.751  1.00  0.00     0.155 HD
ENDBRANCH   4   5
BRANCH   4  10
HETATM   10  C4  UNL     1      -5.069 -61.973  -8.059  1.00  0.00     0.261 C
HETATM   11  O1  UNL     1      -5.063 -62.671  -7.043  1.00  0.00    -0.304 OA
ENDBRANCH   4  10
ENDBRANCH   2   4
ENDBRANCH   1   2
BRANCH   1  12
HETATM   12  C6  UNL     1      -8.541 -59.149  -6.334  1.00  0.00     0.186 C
HETATM   13  O2  UNL     1      -9.034 -60.138  -5.835  1.00  0.00    -0.293 OA
BRANCH  12  14
HETATM   14  C7  UNL     1      -8.805 -57.834  -5.742  1.00  0.00     0.283 C
BRANCH  14  15
HETATM   15  N3  UNL     1      -7.872 -57.345  -4.812  1.00  0.00    -0.066 N
ATOM     16  H33 UNL     1      -7.407 -58.128  -4.355  1.00  0.00     0.275 HD
ATOM     17  H32 UNL     1      -7.089 -56.923  -5.310  1.00  0.00     0.275 HD
ATOM     18  H31 UNL     1      -8.213 -56.694  -4.104  1.00  0.00     0.275 HD
ENDBRANCH  14  15
BRANCH  14  19
HETATM   19  C8  UNL     1     -10.219 -57.890  -5.137  1.00  0.00     0.152 C
HETATM   20  C9  UNL     1     -11.144 -56.895  -5.761  1.00  0.00     0.042 C
BRANCH  19  21
HETATM   21  O3  UNL     1     -10.150 -57.896  -3.768  1.00  0.00    -0.393 OA
ATOM     22  H3  UNL     1     -11.002 -58.089  -3.396  1.00  0.00     0.210 HD
ENDBRANCH  19  21
ENDBRANCH  14  19
ENDBRANCH  12  14
ENDBRANCH   1  12
BRANCH   1  23
HETATM   23  C10 UNL     1      -8.585 -59.833  -8.628  1.00  0.00    -0.004 A
HETATM   24  C11 UNL     1      -9.696 -59.095  -8.998  1.00  0.00     0.036 A
HETATM   25  C12 UNL     1     -10.344 -59.847  -9.953  1.00  0.00     0.142 A
HETATM   26  O4  UNL     1      -9.684 -60.928 -10.134  1.00  0.00    -0.334 OA
HETATM   27  C13 UNL     1      -8.587 -60.967  -9.338  1.00  0.00     0.150 A
ENDBRANCH   1  23
TORSDOF 10
ENDMDL