MODEL 1
REMARK VINA RESULT: -5.849499531      0.000      0.000
REMARK  9 active torsions:
REMARK  status: ('A' for Active; 'I' for Inactive)
REMARK    1  A    between atoms: C1_2  and  C2_4
REMARK    2  A    between atoms: C2_4  and  C3_5
REMARK    3  A    between atoms: C2_4  and  N3_12
REMARK    4  A    between atoms: C3_5  and  N1_6
REMARK    5  A    between atoms: N3_12  and  C7_14
REMARK    6  A    between atoms: C7_14  and  C8_15
REMARK    7  A    between atoms: C8_15  and  C9_16
REMARK    8  A    between atoms: C9_16  and  O3_17
REMARK    9  A    between atoms: C9_16  and  C10_19
ROOT
HETATM    1  N3  UNL     1      -6.475 -57.913  -6.555  1.00  0.00    -0.407 N
ATOM      2  H3  UNL     1      -5.578 -57.934  -6.068  1.00  0.00     0.154 HD
ENDROOT
BRANCH   1   3
HETATM    3  C2  UNL     1      -7.623 -57.297  -5.988  1.00  0.00     0.197 C
BRANCH   3   4
HETATM    4  C1  UNL     1      -7.392 -56.674  -4.680  1.00  0.00     0.198 C
HETATM    5  O1  UNL     1      -7.588 -57.251  -3.598  1.00  0.00    -0.646 OA
HETATM    6  O2  UNL     1      -6.927 -55.357  -4.675  1.00  0.00    -0.646 OA
ENDBRANCH   3   4
BRANCH   3   7
HETATM    7  C3  UNL     1      -8.791 -58.293  -5.933  1.00  0.00     0.165 C
BRANCH   7   8
HETATM    8  N1  UNL     1     -10.052 -57.581  -5.957  1.00  0.00    -0.349 N
HETATM    9  C4  UNL     1     -10.501 -56.762  -6.949  1.00  0.00     0.108 A
HETATM   10  C5  UNL     1     -11.741 -56.252  -6.637  1.00  0.00     0.106 A
HETATM   11  N2  UNL     1     -12.055 -56.775  -5.426  1.00  0.00    -0.361 N
HETATM   12  C6  UNL     1     -11.026 -57.577  -5.024  1.00  0.00     0.182 A
ATOM     13  H2  UNL     1     -12.913 -56.599  -4.905  1.00  0.00     0.166 HD
ENDBRANCH   7   8
ENDBRANCH   3   7
ENDBRANCH   1   3
BRANCH   1  14
HETATM   14  C7  UNL     1      -6.649 -58.508  -7.854  1.00  0.00     0.117 C
BRANCH  14  15
HETATM   15  C8  UNL     1      -5.357 -59.230  -8.187  1.00  0.00     0.057 C
BRANCH  15  16
HETATM   16  C9  UNL     1      -5.416 -60.687  -7.798  1.00  0.00     0.170 C
BRANCH  16  17
HETATM   17  O3  UNL     1      -6.566 -60.871  -7.044  1.00  0.00    -0.389 OA
ATOM     18  H3  UNL     1      -6.296 -61.032  -6.147  1.00  0.00     0.210 HD
ENDBRANCH  16  17
BRANCH  16  19
HETATM   19  C10 UNL     1      -4.186 -61.010  -7.049  1.00  0.00     0.054 A
HETATM   20  C11 UNL     1      -3.517 -62.209  -7.073  1.00  0.00     0.116 A
HETATM   21  N4  UNL     1      -2.434 -62.124  -6.255  1.00  0.00    -0.360 N
HETATM   22  C12 UNL     1      -2.431 -60.889  -5.728  1.00  0.00     0.180 A
ATOM     23  H4  UNL     1      -1.753 -62.861  -6.075  1.00  0.00     0.166 HD
HETATM   24  N5  UNL     1      -3.506 -60.211  -6.217  1.00  0.00    -0.352 N
ATOM     25  H5  UNL     1      -3.753 -59.248  -5.987  1.00  0.00     0.166 HD
ENDBRANCH  16  19
ENDBRANCH  15  16
ENDBRANCH  14  15
ENDBRANCH   1  14
TORSDOF 9
ENDMDL