MODEL 4
REMARK VINA RESULT: -6.096683710      1.054      1.557
REMARK  8 active torsions:
REMARK  status: ('A' for Active; 'I' for Inactive)
REMARK    1  A    between atoms: N1_1  and  C1_5
REMARK    2  A    between atoms: C1_5  and  C2_6
REMARK    3  A    between atoms: C2_6  and  N2_7
REMARK    4  A    between atoms: N2_7  and  C3_10
REMARK    5  A    between atoms: C3_10  and  C4_11
REMARK    6  A    between atoms: C3_10  and  C6_15
REMARK    7  A    between atoms: C4_11  and  C5_12
REMARK    8  A    between atoms: N3_17  and  C8_18
ROOT
HETATM    1  C3  UNL     1      -8.364 -58.370  -6.766  1.00  0.00     0.247 C
ENDROOT
BRANCH   1   2
HETATM    2  N2  UNL     1      -8.188 -56.992  -6.466  1.00  0.00    -0.063 N
ATOM      3  H22 UNL     1      -8.997 -56.598  -5.985  1.00  0.00     0.278 HD
ATOM      4  H21 UNL     1      -8.216 -56.411  -7.303  1.00  0.00     0.278 HD
BRANCH   2   5
HETATM    5  C2  UNL     1      -6.966 -56.806  -5.716  1.00  0.00     0.260 C
BRANCH   5   6
HETATM    6  C1  UNL     1      -7.231 -56.137  -4.375  1.00  0.00     0.257 C
BRANCH   6   7
HETATM    7  N1  UNL     1      -6.467 -54.940  -4.201  1.00  0.00    -0.078 N
ATOM      8  H13 UNL     1      -7.011 -54.223  -3.722  1.00  0.00     0.274 HD
ATOM      9  H12 UNL     1      -5.728 -55.072  -3.510  1.00  0.00     0.274 HD
ATOM     10  H11 UNL     1      -6.089 -54.588  -5.081  1.00  0.00     0.274 HD
ENDBRANCH   6   7
ENDBRANCH   5   6
ENDBRANCH   2   5
ENDBRANCH   1   2
BRANCH   1  11
HETATM   11  C4  UNL     1      -9.353 -58.996  -5.844  1.00  0.00     0.152 C
BRANCH  11  12
HETATM   12  C5  UNL     1     -10.212 -58.044  -5.112  1.00  0.00     0.174 C
HETATM   13  O1  UNL     1      -9.956 -57.916  -3.877  1.00  0.00    -0.648 OA
HETATM   14  O2  UNL     1     -11.235 -57.303  -5.628  1.00  0.00    -0.648 OA
ENDBRANCH  11  12
ENDBRANCH   1  11
BRANCH   1  15
HETATM   15  C6  UNL     1      -8.629 -58.647  -8.191  1.00  0.00     0.072 A
HETATM   16  C7  UNL     1      -9.809 -59.128  -8.710  1.00  0.00     0.142 A
HETATM   17  N3  UNL     1      -9.680 -59.260 -10.065  1.00  0.00    -0.249 N
HETATM   18  N4  UNL     1      -8.453 -58.867 -10.360  1.00  0.00    -0.015 NA
HETATM   19  N5  UNL     1      -7.821 -58.501  -9.250  1.00  0.00    -0.284 N
ATOM     20  H5  UNL     1      -6.861 -58.160  -9.210  1.00  0.00     0.184 HD
BRANCH  17  21
HETATM   21  C8  UNL     1     -10.693 -59.733 -10.950  1.00  0.00     0.054 A
HETATM   22  C9  UNL     1     -11.900 -60.233 -10.532  1.00  0.00     0.031 A
HETATM   23  C10 UNL     1     -12.849 -60.677 -11.440  1.00  0.00     0.002 A
HETATM   24  C11 UNL     1     -12.596 -60.626 -12.808  1.00  0.00     0.000 A
HETATM   25  C12 UNL     1     -11.395 -60.128 -13.231  1.00  0.00     0.002 A
HETATM   26  C13 UNL     1     -10.474 -59.695 -12.325  1.00  0.00     0.031 A
ENDBRANCH  17  21
ENDBRANCH   1  15
TORSDOF 8
ENDMDL