MODEL 4
REMARK VINA RESULT: -5.706421421      1.694      2.505
REMARK  10 active torsions:
REMARK  status: ('A' for Active; 'I' for Inactive)
REMARK    1  A    between atoms: C3_5  and  C4_6
REMARK    2  A    between atoms: N2_10  and  C8_11
REMARK    3  A    between atoms: C8_11  and  C9_12
REMARK    4  A    between atoms: C9_12  and  N3_13
REMARK    5  A    between atoms: N3_13  and  N4_14
REMARK       I    between atoms: N4_14  and  C10_16
REMARK    6  A    between atoms: C10_16  and  C11_18
REMARK    7  A    between atoms: C11_18  and  N5_19
REMARK    8  A    between atoms: C11_18  and  C12_23
REMARK    9  A    between atoms: C12_23  and  C13_24
REMARK   10  A    between atoms: C13_24  and  N6_25
ROOT
HETATM    1  N4  UNL     1      -8.138 -59.266  -6.878  1.00  0.00    -0.272 N
ATOM      2  H4  UNL     1      -7.747 -58.409  -7.268  1.00  0.00     0.185 HD
HETATM    3  C10 UNL     1      -9.160 -59.155  -5.923  1.00  0.00     0.263 C
HETATM    4  O1  UNL     1      -9.629 -60.243  -5.449  1.00  0.00    -0.270 OA
ENDROOT
BRANCH   1   5
HETATM    5  N3  UNL     1      -7.625 -60.491  -7.324  1.00  0.00    -0.137 NA
BRANCH   5   6
HETATM    6  C9  UNL     1      -7.743 -60.637  -8.748  1.00  0.00     0.155 C
BRANCH   6   7
HETATM    7  C8  UNL     1      -8.143 -59.420  -9.495  1.00  0.00     0.147 C
BRANCH   7   8
HETATM    8  N2  UNL     1      -9.188 -59.617 -10.477  1.00  0.00    -0.344 N
HETATM    9  C2  UNL     1      -9.209 -59.226 -11.774  1.00  0.00     0.079 A
HETATM   10  C1  UNL     1      -8.099 -58.462 -12.452  1.00  0.00     0.089 C
HETATM   11  N1  UNL     1     -10.364 -59.628 -12.296  1.00  0.00    -0.348 N
HETATM   12  C3  UNL     1     -11.106 -60.272 -11.382  1.00  0.00     0.029 A
ATOM     13  H1  UNL     1     -10.647 -59.469 -13.262  1.00  0.00     0.167 HD
HETATM   14  C7  UNL     1     -10.365 -60.269 -10.223  1.00  0.00     0.117 A
BRANCH  12  15
HETATM   15  C4  UNL     1     -12.472 -60.876 -11.577  1.00  0.00     0.029 C
HETATM   16  C5  UNL     1     -13.358 -60.550 -10.397  1.00  0.00     0.016 C
HETATM   17  C6  UNL     1     -13.046 -60.361 -12.862  1.00  0.00     0.016 C
ENDBRANCH  12  15
ENDBRANCH   7   8
ENDBRANCH   6   7
ENDBRANCH   5   6
ENDBRANCH   1   5
BRANCH   3  18
HETATM   18  C11 UNL     1      -9.674 -57.848  -5.482  1.00  0.00     0.277 C
BRANCH  18  19
HETATM   19  N5  UNL     1      -8.654 -57.207  -4.669  1.00  0.00    -0.066 N
ATOM     20  H53 UNL     1      -7.868 -56.866  -5.223  1.00  0.00     0.275 HD
ATOM     21  H52 UNL     1      -8.958 -56.309  -4.293  1.00  0.00     0.275 HD
ATOM     22  H51 UNL     1      -8.367 -57.861  -3.942  1.00  0.00     0.275 HD
ENDBRANCH  18  19
BRANCH  18  23
HETATM   23  C12 UNL     1     -10.034 -56.962  -6.674  1.00  0.00     0.069 C
BRANCH  23  24
HETATM   24  C13 UNL     1     -11.531 -56.760  -6.615  1.00  0.00     0.232 C
BRANCH  24  25
HETATM   25  N6  UNL     1     -11.966 -56.028  -5.466  1.00  0.00    -0.079 N
ATOM     26  H63 UNL     1     -11.662 -55.056  -5.521  1.00  0.00     0.274 HD
ATOM     27  H62 UNL     1     -12.977 -55.892  -5.487  1.00  0.00     0.274 HD
ATOM     28  H61 UNL     1     -11.677 -56.446  -4.581  1.00  0.00     0.274 HD
ENDBRANCH  24  25
ENDBRANCH  23  24
ENDBRANCH  18  23
ENDBRANCH   3  18
TORSDOF 10
ENDMDL