MODEL 2
REMARK VINA RESULT: -5.830542333      1.307      1.487
REMARK  11 active torsions:
REMARK  status: ('A' for Active; 'I' for Inactive)
REMARK    1  A    between atoms: C2_2  and  C3_3
REMARK    2  A    between atoms: C3_3  and  C4_4
REMARK    3  A    between atoms: C5_5  and  C6_6
REMARK    4  A    between atoms: C6_6  and  N1_7
REMARK    5  A    between atoms: C9_10  and  C10_11
REMARK       I    between atoms: C10_11  and  N2_13
REMARK    6  A    between atoms: N2_13  and  C11_15
REMARK    7  A    between atoms: C16_20  and  C17_21
REMARK    8  A    between atoms: C17_21  and  C18_22
REMARK    9  A    between atoms: C18_22  and  C19_23
REMARK   10  A    between atoms: C19_23  and  C20_24
REMARK   11  A    between atoms: C20_24  and  O2_25
ROOT
HETATM    1  N1  UNL     1      30.270   0.357  -4.203  1.00  0.00    -0.044 N
HETATM    2  C7  UNL     1      29.257  -0.647  -4.375  1.00  0.00     0.241 C
HETATM    3  C8  UNL     1      29.888  -1.994  -4.303  1.00  0.00     0.048 C
HETATM    4  C9  UNL     1      30.404  -2.222  -2.891  1.00  0.00     0.052 C
HETATM    5  C15 UNL     1      29.235  -2.787  -2.124  1.00  0.00     0.025 C
HETATM    6  C16 UNL     1      29.424  -2.930  -0.664  1.00  0.00    -0.013 C
HETATM    7  C21 UNL     1      29.773  -1.610  -0.049  1.00  0.00     0.005 C
HETATM    8  C22 UNL     1      29.902  -0.533  -1.100  1.00  0.00     0.013 C
HETATM    9  C23 UNL     1      30.865  -0.984  -2.213  1.00  0.00     0.007 C
HETATM   10  C24 UNL     1      32.162  -1.237  -1.436  1.00  0.00     0.019 C
HETATM   11  C25 UNL     1      31.110   0.205  -3.085  1.00  0.00     0.160 A
HETATM   12  C26 UNL     1      32.548   0.673  -3.271  1.00  0.00     0.049 C
HETATM   13  C27 UNL     1      30.117   1.336  -3.143  1.00  0.00     0.279 A
ENDROOT
BRANCH   4  14
HETATM   14  C10 UNL     1      31.446  -3.285  -3.036  1.00  0.00     0.228 C
HETATM   15  O1  UNL     1      31.167  -4.477  -2.790  1.00  0.00    -0.273 OA
HETATM   16  N2  UNL     1      32.780  -3.026  -3.452  1.00  0.00    -0.352 N
ATOM     17  H2  UNL     1      33.064  -2.070  -3.668  1.00  0.00     0.163 HD
BRANCH  16  18
HETATM   18  C11 UNL     1      33.735  -4.091  -3.573  1.00  0.00     0.022 C
HETATM   19  C12 UNL     1      33.243  -5.207  -4.472  1.00  0.00     0.037 C
HETATM   20  C13 UNL     1      34.156  -4.575  -2.224  1.00  0.00     0.037 C
HETATM   21  C14 UNL     1      34.965  -3.507  -4.254  1.00  0.00     0.037 C
ENDBRANCH  16  18
ENDBRANCH   4  14
BRANCH   6  22
HETATM   22  C17 UNL     1      28.175  -3.528  -0.059  1.00  0.00     0.005 C
BRANCH  22  23
HETATM   23  C18 UNL     1      28.235  -3.754   1.409  1.00  0.00     0.002 C
BRANCH  23  24
HETATM   24  C19 UNL     1      26.931  -3.322   2.039  1.00  0.00     0.026 C
BRANCH  24  25
HETATM   25  C20 UNL     1      27.078  -2.363   3.174  1.00  0.00     0.164 C
BRANCH  25  26
HETATM   26  O2  UNL     1      25.829  -2.367   3.843  1.00  0.00    -0.401 OA
ATOM     27  H2  UNL     1      25.514  -3.262   3.792  1.00  0.00     0.209 HD
ENDBRANCH  25  26
ENDBRANCH  24  25
ENDBRANCH  23  24
ENDBRANCH  22  23
ENDBRANCH   6  22
BRANCH   1  28
HETATM   28  C6  UNL     1      30.807   0.928  -5.436  1.00  0.00     0.332 C
BRANCH  28  29
HETATM   29  C5  UNL     1      29.745   1.418  -6.315  1.00  0.00    -0.079 C
HETATM   30  C4  UNL     1      28.855   1.821  -7.025  1.00  0.00    -0.105 C
BRANCH  30  31
HETATM   31  C3  UNL     1      27.762   2.290  -7.877  1.00  0.00     0.093 C
BRANCH  31  32
HETATM   32  C2  UNL     1      26.874   1.097  -8.161  1.00  0.00     0.007 C
HETATM   33  C1  UNL     1      25.707   1.143  -7.172  1.00  0.00     0.006 C
ENDBRANCH  31  32
ENDBRANCH  30  31
ENDBRANCH  28  29
ENDBRANCH   1  28
TORSDOF 11
ENDMDL