MODEL 1
REMARK VINA RESULT: -6.287590999      0.000      0.000
REMARK  7 active torsions:
REMARK  status: ('A' for Active; 'I' for Inactive)
REMARK    1  A    between atoms: C2_2  and  C3_3
REMARK    2  A    between atoms: C6_6  and  N1_7
REMARK       I    between atoms: N1_7  and  C7_9
REMARK       I    between atoms: C7_9  and  N2_11
REMARK    3  A    between atoms: N2_11  and  C8_13
REMARK       I    between atoms: N3_25  and  C20_26
REMARK    4  A    between atoms: C20_26  and  C21_28
REMARK    5  A    between atoms: C21_28  and  C22_29
REMARK    6  A    between atoms: C22_29  and  C23_30
REMARK    7  A    between atoms: C23_30  and  C24_31
ROOT
HETATM    1  C3  UNL     1      29.000  -2.606  -2.477  1.00  0.00     0.115 C
HETATM    2  C4  UNL     1      28.767  -1.172  -2.715  1.00  0.00     0.031 C
HETATM    3  C5  UNL     1      29.505  -0.307  -1.707  1.00  0.00     0.014 C
HETATM    4  C6  UNL     1      29.063  -0.744  -4.130  1.00  0.00     0.093 C
HETATM    5  C18 UNL     1      30.502  -1.208  -4.400  1.00  0.00     0.045 C
HETATM    6  C19 UNL     1      30.398  -2.695  -4.606  1.00  0.00     0.128 C
HETATM    7  N3  UNL     1      29.879  -3.288  -3.391  1.00  0.00    -0.344 N
HETATM    8  C20 UNL     1      30.255  -4.610  -3.091  1.00  0.00     0.220 C
HETATM    9  O2  UNL     1      29.833  -5.168  -2.062  1.00  0.00    -0.273 OA
ENDROOT
BRANCH   4  10
HETATM   10  N1  UNL     1      28.880   0.636  -4.389  1.00  0.00    -0.338 N
HETATM   11  C7  UNL     1      28.443   1.074  -5.662  1.00  0.00     0.317 C
HETATM   12  O1  UNL     1      28.215   0.242  -6.562  1.00  0.00    -0.247 OA
HETATM   13  N2  UNL     1      28.264   2.451  -5.907  1.00  0.00    -0.334 N
ATOM     14  H2  UNL     1      28.446   3.121  -5.160  1.00  0.00     0.165 HD
ATOM     15  H1  UNL     1      29.064   1.319  -3.654  1.00  0.00     0.164 HD
BRANCH  13  16
HETATM   16  C8  UNL     1      27.833   2.925  -7.187  1.00  0.00     0.035 C
HETATM   17  C9  UNL     1      28.890   2.751  -8.219  1.00  0.00     0.035 C
HETATM   18  C10 UNL     1      28.440   3.353  -9.559  1.00  0.00    -0.012 C
HETATM   19  C11 UNL     1      27.196   2.604  -9.958  1.00  0.00     0.009 C
HETATM   20  C15 UNL     1      28.223   4.814  -9.341  1.00  0.00     0.009 C
HETATM   21  C12 UNL     1      26.131   2.868  -8.945  1.00  0.00    -0.012 C
HETATM   22  C13 UNL     1      25.831   4.347  -8.791  1.00  0.00     0.009 C
HETATM   23  C17 UNL     1      26.496   2.339  -7.591  1.00  0.00     0.035 C
HETATM   24  C14 UNL     1      27.091   5.010  -8.329  1.00  0.00    -0.012 C
HETATM   25  C16 UNL     1      27.565   4.434  -7.042  1.00  0.00     0.035 C
ENDBRANCH  13  16
ENDBRANCH   4  10
BRANCH   1  26
HETATM   26  C2  UNL     1      29.514  -2.832  -1.096  1.00  0.00    -0.012 C
HETATM   27  C1  UNL     1      28.755  -3.132  -0.075  1.00  0.00     0.009 C
ENDBRANCH   1  26
BRANCH   8  28
HETATM   28  C21 UNL     1      31.155  -5.353  -3.993  1.00  0.00     0.103 C
BRANCH  28  29
HETATM   29  C22 UNL     1      32.481  -5.670  -3.365  1.00  0.00     0.010 C
BRANCH  29  30
HETATM   30  C23 UNL     1      33.389  -4.465  -3.603  1.00  0.00     0.004 C
BRANCH  30  31
HETATM   31  C24 UNL     1      33.785  -3.823  -2.292  1.00  0.00    -0.023 C
HETATM   32  C25 UNL     1      35.271  -3.882  -2.062  1.00  0.00     0.009 C
HETATM   33  C26 UNL     1      33.242  -2.434  -2.241  1.00  0.00     0.009 C
ENDBRANCH  30  31
ENDBRANCH  29  30
ENDBRANCH  28  29
ENDBRANCH   8  28
TORSDOF 7
ENDMDL