MODEL 5
REMARK VINA RESULT: -6.170892884      2.959      6.203
REMARK  11 active torsions:
REMARK  status: ('A' for Active; 'I' for Inactive)
REMARK    1  A    between atoms: C3_3  and  C4_4
REMARK    2  A    between atoms: C4_4  and  C5_5
REMARK    3  A    between atoms: C6_6  and  C7_7
REMARK    4  A    between atoms: C7_7  and  N1_8
REMARK    5  A    between atoms: N1_8  and  C9_10
REMARK    6  A    between atoms: C9_10  and  C11_12
REMARK    7  A    between atoms: C11_12  and  C12_13
REMARK       I    between atoms: C12_13  and  N2_15
REMARK    8  A    between atoms: N2_15  and  C13_17
REMARK    9  A    between atoms: C13_17  and  O2_18
REMARK   10  A    between atoms: C13_17  and  N3_20
REMARK   11  A    between atoms: N3_20  and  C14_22
ROOT
HETATM    1  C1  UNL     1      31.140  -5.140  -3.600  1.00  0.00     0.012 C
HETATM    2  C2  UNL     1      30.217  -5.233  -2.811  1.00  0.00    -0.117 C
HETATM    3  C3  UNL     1      29.131  -5.351  -1.848  1.00  0.00     0.105 C
ENDROOT
BRANCH   3   4
HETATM    4  C4  UNL     1      28.268  -4.104  -1.779  1.00  0.00     0.106 C
BRANCH   4   5
HETATM    5  C5  UNL     1      27.797  -3.875  -0.409  1.00  0.00    -0.100 C
HETATM    6  C6  UNL     1      27.386  -3.692   0.706  1.00  0.00    -0.062 C
BRANCH   6   7
HETATM    7  C7  UNL     1      26.881  -3.508   2.063  1.00  0.00     0.151 C
BRANCH   7   8
HETATM    8  N1  UNL     1      27.356  -2.385   2.744  1.00  0.00    -0.383 N
HETATM    9  C8  UNL     1      26.487  -1.641   3.555  1.00  0.00     0.150 C
BRANCH   8  10
HETATM   10  C9  UNL     1      28.708  -1.984   2.645  1.00  0.00     0.088 C
HETATM   11  C10 UNL     1      29.551  -2.785   3.610  1.00  0.00     0.033 C
BRANCH  10  12
HETATM   12  C11 UNL     1      28.800  -0.508   2.828  1.00  0.00     0.128 C
BRANCH  12  13
HETATM   13  C12 UNL     1      29.505   0.159   1.682  1.00  0.00     0.226 C
HETATM   14  O1  UNL     1      30.732  -0.040   1.533  1.00  0.00    -0.273 OA
HETATM   15  N2  UNL     1      28.806   0.993   0.799  1.00  0.00    -0.293 N
ATOM     16  H2  UNL     1      27.792   0.993   0.910  1.00  0.00     0.172 HD
BRANCH  15  17
HETATM   17  C13 UNL     1      29.297   1.816  -0.202  1.00  0.00     0.220 C
BRANCH  17  18
HETATM   18  O2  UNL     1      30.012   2.818   0.233  1.00  0.00    -0.332 OA
ATOM     19  H2  UNL     1      30.931   2.612   0.359  1.00  0.00     0.220 HD
ENDBRANCH  17  18
BRANCH  17  20
HETATM   20  N3  UNL     1      29.163   1.744  -1.575  1.00  0.00    -0.347 N
ATOM     21  H3  UNL     1      28.536   2.431  -1.993  1.00  0.00     0.163 HD
BRANCH  20  22
HETATM   22  C14 UNL     1      29.788   0.833  -2.499  1.00  0.00     0.035 C
HETATM   23  C15 UNL     1      28.940   0.895  -3.756  1.00  0.00     0.035 C
HETATM   24  C16 UNL     1      29.647   0.166  -4.848  1.00  0.00    -0.011 C
HETATM   25  C17 UNL     1      29.881  -1.261  -4.500  1.00  0.00     0.010 C
HETATM   26  C25 UNL     1      30.913   0.875  -5.155  1.00  0.00     0.014 C
HETATM   27  C18 UNL     1      30.391  -1.498  -3.111  1.00  0.00    -0.008 C
HETATM   28  C19 UNL     1      29.858  -0.576  -2.051  1.00  0.00     0.036 C
HETATM   29  C20 UNL     1      31.884  -1.605  -3.187  1.00  0.00    -0.014 C
HETATM   30  C21 UNL     1      32.546  -2.013  -1.890  1.00  0.00     0.010 C
HETATM   31  C22 UNL     1      32.571  -0.507  -3.897  1.00  0.00     0.014 C
HETATM   32  C23 UNL     1      31.870   0.808  -3.953  1.00  0.00    -0.041 C
HETATM   33  C24 UNL     1      32.956   1.845  -4.299  1.00  0.00     0.015 C
HETATM   34  C26 UNL     1      31.216   1.282  -2.720  1.00  0.00     0.040 C
ENDBRANCH  20  22
ENDBRANCH  17  20
ENDBRANCH  15  17
ENDBRANCH  12  13
ENDBRANCH  10  12
ENDBRANCH   8  10
ENDBRANCH   7   8
ENDBRANCH   6   7
ENDBRANCH   4   5
ENDBRANCH   3   4
TORSDOF 11
ENDMDL