MODEL 5
REMARK VINA RESULT: -6.446890333      2.624      5.934
REMARK  9 active torsions:
REMARK  status: ('A' for Active; 'I' for Inactive)
REMARK    1  A    between atoms: N1_2  and  C2_4
REMARK    2  A    between atoms: C2_4  and  O1_5
REMARK    3  A    between atoms: C2_4  and  C3_7
REMARK    4  A    between atoms: C3_7  and  C4_8
REMARK    5  A    between atoms: C3_7  and  N3_23
REMARK    6  A    between atoms: C4_8  and  C5_9
REMARK    7  A    between atoms: C5_9  and  C6_10
REMARK    8  A    between atoms: C6_10  and  N2_11
REMARK       I    between atoms: N3_23  and  C18_25
REMARK    9  A    between atoms: C18_25  and  C19_27
ROOT
HETATM    1  C3  UNL     1      29.799  -0.743  -2.704  1.00  0.00     0.159 C
ENDROOT
BRANCH   1   2
HETATM    2  C2  UNL     1      29.303  -0.656  -4.056  1.00  0.00     0.134 C
BRANCH   2   3
HETATM    3  N1  UNL     1      28.421   0.228  -4.675  1.00  0.00    -0.377 N
HETATM    4  C1  UNL     1      28.755   0.886  -5.953  1.00  0.00     0.148 C
ATOM      5  H1  UNL     1      27.522   0.426  -4.234  1.00  0.00     0.160 HD
ENDBRANCH   2   3
BRANCH   2   6
HETATM    6  O1  UNL     1      29.763  -1.585  -4.852  1.00  0.00    -0.348 OA
ATOM      7  H1  UNL     1      30.531  -2.031  -4.517  1.00  0.00     0.219 HD
ENDBRANCH   2   6
ENDBRANCH   1   2
BRANCH   1   8
HETATM    8  C4  UNL     1      30.096   0.426  -1.886  1.00  0.00     0.035 C
BRANCH   8   9
HETATM    9  C5  UNL     1      31.478   0.622  -1.352  1.00  0.00     0.030 C
BRANCH   9  10
HETATM   10  C6  UNL     1      32.290   1.354  -2.393  1.00  0.00     0.237 C
BRANCH  10  11
HETATM   11  N2  UNL     1      33.522   0.682  -2.770  1.00  0.00    -0.067 N
HETATM   12  C7  UNL     1      34.590   1.616  -2.518  1.00  0.00     0.273 C
HETATM   13  C8  UNL     1      33.609  -0.404  -1.812  1.00  0.00     0.238 C
HETATM   14  C9  UNL     1      34.820  -1.225  -1.764  1.00  0.00     0.037 C
HETATM   15  C10 UNL     1      34.788  -2.462  -2.622  1.00  0.00    -0.039 A
HETATM   16  C11 UNL     1      35.112  -2.280  -4.046  1.00  0.00     0.010 C
HETATM   17  C16 UNL     1      33.716  -3.472  -2.297  1.00  0.00     0.010 A
HETATM   18  C17 UNL     1      35.105  -3.825  -1.969  1.00  0.00     0.010 A
HETATM   19  C12 UNL     1      35.753  -1.005  -4.448  1.00  0.00     0.003 C
HETATM   20  C13 UNL     1      34.851   0.116  -4.782  1.00  0.00     0.033 C
HETATM   21  C14 UNL     1      33.512   0.130  -4.081  1.00  0.00     0.186 C
HETATM   22  C15 UNL     1      32.575   0.808  -5.079  1.00  0.00     0.040 C
ENDBRANCH  10  11
ENDBRANCH   9  10
ENDBRANCH   8   9
ENDBRANCH   1   8
BRANCH   1  23
HETATM   23  N3  UNL     1      28.921  -1.650  -1.965  1.00  0.00    -0.348 N
HETATM   24  C18 UNL     1      29.216  -3.014  -1.805  1.00  0.00     0.226 C
HETATM   25  O2  UNL     1      30.263  -3.503  -2.302  1.00  0.00    -0.273 OA
ATOM     26  H3  UNL     1      28.066  -1.279  -1.552  1.00  0.00     0.163 HD
BRANCH  24  27
HETATM   27  C19 UNL     1      28.291  -3.895  -1.045  1.00  0.00     0.037 C
HETATM   28  C20 UNL     1      26.890  -3.619  -1.503  1.00  0.00     0.025 C
HETATM   29  C21 UNL     1      28.441  -3.564   0.426  1.00  0.00     0.019 C
HETATM   30  C22 UNL     1      27.423  -4.302   1.267  1.00  0.00     0.001 C
HETATM   31  C23 UNL     1      27.458  -5.760   0.941  1.00  0.00     0.000 C
HETATM   32  C24 UNL     1      28.603  -6.136   0.024  1.00  0.00     0.001 C
HETATM   33  C25 UNL     1      28.590  -5.349  -1.258  1.00  0.00     0.019 C
ENDBRANCH  24  27
ENDBRANCH   1  23
TORSDOF 9
ENDMDL