MODEL 3
REMARK VINA RESULT: -4.916189635      0.937      1.272
REMARK  9 active torsions:
REMARK  status: ('A' for Active; 'I' for Inactive)
REMARK    1  A    between atoms: C2_2  and  C4_4
REMARK    2  A    between atoms: C4_4  and  C5_5
REMARK    3  A    between atoms: C5_5  and  C7_7
REMARK       I    between atoms: N1_10  and  C10_11
REMARK       I    between atoms: C10_11  and  N2_13
REMARK       I    between atoms: C11_15  and  N4_17
REMARK    4  A    between atoms: N4_17  and  C12_19
REMARK    5  A    between atoms: C12_19  and  C13_20
REMARK    6  A    between atoms: C13_20  and  C14_21
REMARK    7  A    between atoms: C14_21  and  N5_22
REMARK    8  A    between atoms: N5_22  and  C15_23
REMARK    9  A    between atoms: N5_22  and  C17_25
ROOT
HETATM    1  C7  UNL     1      30.109  -2.788  -3.094  1.00  0.00     0.011 C
HETATM    2  C8  UNL     1      28.870  -1.898  -2.859  1.00  0.00     0.033 C
HETATM    3  C9  UNL     1      29.325  -0.607  -2.348  1.00  0.00     0.098 C
HETATM    4  N1  UNL     1      29.762   0.349  -3.355  1.00  0.00    -0.328 N
HETATM    5  C10 UNL     1      29.249   1.657  -3.284  1.00  0.00     0.325 C
HETATM    6  O1  UNL     1      28.343   1.962  -2.517  1.00  0.00    -0.247 OA
HETATM    7  N2  UNL     1      29.824   2.648  -4.148  1.00  0.00    -0.283 N
ATOM      8  H2  UNL     1      29.980   2.444  -5.135  1.00  0.00     0.173 HD
HETATM    9  C11 UNL     1      30.147   3.826  -3.649  1.00  0.00     0.192 C
HETATM   10  N3  UNL     1      30.743   4.752  -4.613  1.00  0.00    -0.063 NA
HETATM   11  N4  UNL     1      29.953   4.293  -2.340  1.00  0.00    -0.364 N
ATOM     12  H4  UNL     1      29.134   3.981  -1.820  1.00  0.00     0.162 HD
HETATM   13  C19 UNL     1      30.667  -0.163  -4.358  1.00  0.00     0.129 C
HETATM   14  C20 UNL     1      31.678  -1.065  -3.817  1.00  0.00     0.030 C
HETATM   15  C21 UNL     1      31.194  -1.910  -2.590  1.00  0.00    -0.029 C
HETATM   16  C22 UNL     1      32.479  -2.604  -2.178  1.00  0.00     0.016 C
HETATM   17  C23 UNL     1      30.660  -0.925  -1.639  1.00  0.00    -0.019 C
HETATM   18  C24 UNL     1      30.276  -1.403  -0.301  1.00  0.00     0.018 C
HETATM   19  C25 UNL     1      31.461   0.337  -1.461  1.00  0.00     0.018 C
ENDROOT
BRANCH   1  20
HETATM   20  C5  UNL     1      29.944  -4.146  -2.624  1.00  0.00     0.058 C
HETATM   21  C6  UNL     1      30.723  -5.314  -3.217  1.00  0.00     0.023 C
BRANCH  20  22
HETATM   22  C4  UNL     1      29.188  -4.411  -1.644  1.00  0.00    -0.145 C
BRANCH  22  23
HETATM   23  C2  UNL     1      28.388  -4.740  -0.554  1.00  0.00    -0.030 C
HETATM   24  C1  UNL     1      27.605  -3.836  -0.037  1.00  0.00     0.027 C
HETATM   25  C3  UNL     1      28.409  -6.129   0.052  1.00  0.00     0.056 C
ENDBRANCH  22  23
ENDBRANCH  20  22
ENDBRANCH   1  20
BRANCH  11  26
HETATM   26  C12 UNL     1      30.896   5.220  -1.695  1.00  0.00     0.124 C
BRANCH  26  27
HETATM   27  C13 UNL     1      31.638   4.388  -0.599  1.00  0.00     0.050 C
BRANCH  27  28
HETATM   28  C14 UNL     1      30.484   3.650   0.096  1.00  0.00     0.274 C
BRANCH  28  29
HETATM   29  N5  UNL     1      30.947   3.001   1.317  1.00  0.00     0.087 N
BRANCH  29  30
HETATM   30  C15 UNL     1      30.213   1.906   1.770  1.00  0.00     0.268 C
HETATM   31  C16 UNL     1      28.882   1.794   1.046  1.00  0.00     0.037 C
ENDBRANCH  29  30
BRANCH  29  32
HETATM   32  C17 UNL     1      32.379   2.835   1.239  1.00  0.00     0.268 C
HETATM   33  C18 UNL     1      32.885   1.556   1.792  1.00  0.00     0.037 C
ENDBRANCH  29  32
ENDBRANCH  28  29
ENDBRANCH  27  28
ENDBRANCH  26  27
ENDBRANCH  11  26
TORSDOF 9
ENDMDL