MODEL 2
REMARK VINA RESULT: -7.744658470      1.443      1.974
REMARK  7 active torsions:
REMARK  status: ('A' for Active; 'I' for Inactive)
REMARK       I    between atoms: C3_3  and  N1_5
REMARK    1  A    between atoms: N1_5  and  C4_7
REMARK    2  A    between atoms: C4_7  and  C5_8
REMARK    3  A    between atoms: C5_8  and  C6_9
REMARK    4  A    between atoms: C6_9  and  N2_10
REMARK       I    between atoms: N2_10  and  C7_11
REMARK    5  A    between atoms: N2_10  and  C21_28
REMARK       I    between atoms: C7_11  and  N3_13
REMARK    6  A    between atoms: N3_13  and  C8_15
REMARK    7  A    between atoms: C8_15  and  C11_18
ROOT
HETATM    1  C1  UNL     1      27.433  -5.031   1.319  1.00  0.00     0.022 C
HETATM    2  C2  UNL     1      28.048  -3.997   1.215  1.00  0.00    -0.017 C
HETATM    3  C3  UNL     1      28.799  -2.759   1.100  1.00  0.00     0.295 C
HETATM    4  O1  UNL     1      29.090  -2.189   2.183  1.00  0.00    -0.258 OA
HETATM    5  N1  UNL     1      29.165  -2.255  -0.170  1.00  0.00    -0.350 N
ATOM      6  H1  UNL     1      28.909  -2.747  -1.027  1.00  0.00     0.163 HD
ENDROOT
BRANCH   5   7
HETATM    7  C4  UNL     1      29.910  -1.021  -0.215  1.00  0.00     0.125 C
BRANCH   7   8
HETATM    8  C5  UNL     1      29.743  -0.301  -1.537  1.00  0.00     0.040 C
BRANCH   8   9
HETATM    9  C6  UNL     1      30.969  -0.580  -2.353  1.00  0.00     0.129 C
BRANCH   9  10
HETATM   10  N2  UNL     1      30.665  -1.222  -3.627  1.00  0.00    -0.329 N
HETATM   11  C7  UNL     1      30.168  -0.462  -4.725  1.00  0.00     0.319 C
HETATM   12  O2  UNL     1      29.927  -1.103  -5.766  1.00  0.00    -0.247 OA
HETATM   13  N3  UNL     1      29.945   0.928  -4.687  1.00  0.00    -0.334 N
ATOM     14  H3  UNL     1      30.186   1.386  -3.808  1.00  0.00     0.165 HD
BRANCH  13  15
HETATM   15  C8  UNL     1      29.438   1.772  -5.690  1.00  0.00     0.031 C
HETATM   16  C9  UNL     1      29.624   3.271  -5.198  1.00  0.00     0.038 C
HETATM   17  C10 UNL     1      30.247   1.681  -6.943  1.00  0.00     0.038 C
BRANCH  15  18
HETATM   18  C11 UNL     1      27.994   1.752  -6.040  1.00  0.00     0.021 C
HETATM   19  C12 UNL     1      27.657   1.813  -7.504  1.00  0.00    -0.007 C
HETATM   20  C13 UNL     1      26.428   0.884  -7.661  1.00  0.00     0.010 C
HETATM   21  C17 UNL     1      27.176   3.119  -8.026  1.00  0.00     0.010 C
HETATM   22  C14 UNL     1      25.348   1.399  -6.760  1.00  0.00    -0.013 C
HETATM   23  C15 UNL     1      24.895   2.756  -7.257  1.00  0.00     0.009 C
HETATM   24  C20 UNL     1      25.723   1.529  -5.313  1.00  0.00     0.010 C
HETATM   25  C16 UNL     1      26.098   3.691  -7.170  1.00  0.00    -0.013 C
HETATM   26  C18 UNL     1      26.453   3.759  -5.716  1.00  0.00     0.010 C
HETATM   27  C19 UNL     1      26.992   2.442  -5.213  1.00  0.00    -0.007 C
ENDBRANCH  15  18
ENDBRANCH  13  15
BRANCH  10  28
HETATM   28  C21 UNL     1      30.902  -2.639  -3.692  1.00  0.00     0.088 C
HETATM   29  C22 UNL     1      29.601  -3.358  -3.316  1.00  0.00     0.025 C
HETATM   30  C23 UNL     1      29.876  -4.667  -2.639  1.00  0.00     0.002 C
HETATM   31  C24 UNL     1      30.979  -5.354  -3.422  1.00  0.00     0.000 C
HETATM   32  C25 UNL     1      32.282  -4.596  -3.337  1.00  0.00     0.002 C
HETATM   33  C26 UNL     1      32.036  -3.149  -2.875  1.00  0.00     0.025 C
ENDBRANCH  10  28
ENDBRANCH   9  10
ENDBRANCH   8   9
ENDBRANCH   7   8
ENDBRANCH   5   7
TORSDOF 7
ENDMDL