MODEL 2
REMARK VINA RESULT: -5.947738442      1.878      3.097
REMARK  8 active torsions:
REMARK  status: ('A' for Active; 'I' for Inactive)
REMARK    1  A    between atoms: C2_2  and  C3_3
REMARK    2  A    between atoms: C3_3  and  C4_4
REMARK    3  A    between atoms: C3_3  and  N3_22
REMARK    4  A    between atoms: C4_4  and  N1_5
REMARK       I    between atoms: N1_5  and  C5_7
REMARK    5  A    between atoms: C5_7  and  C6_9
REMARK    6  A    between atoms: C9_12  and  N2_13
REMARK    7  A    between atoms: N2_13  and  C10_14
REMARK    8  A    between atoms: N3_22  and  C18_25
ROOT
HETATM    1  C4  UNL     1      27.291  -3.539   1.838  1.00  0.00     0.159 C
ENDROOT
BRANCH   1   2
HETATM    2  C3  UNL     1      28.272  -3.927   0.747  1.00  0.00     0.226 C
BRANCH   2   3
HETATM    3  C2  UNL     1      27.850  -5.207   0.097  1.00  0.00    -0.003 C
HETATM    4  C1  UNL     1      28.565  -6.300   0.234  1.00  0.00     0.009 C
ENDBRANCH   2   3
BRANCH   2   5
HETATM    5  N3  UNL     1      28.298  -2.939  -0.306  1.00  0.00    -0.061 N
ATOM      6  H32 UNL     1      27.673  -3.193  -1.072  1.00  0.00     0.278 HD
ATOM      7  H31 UNL     1      27.847  -2.072  -0.015  1.00  0.00     0.278 HD
BRANCH   5   8
HETATM    8  C18 UNL     1      29.644  -2.705  -0.778  1.00  0.00     0.196 C
HETATM    9  C19 UNL     1      30.138  -1.323  -0.403  1.00  0.00     0.039 C
HETATM   10  C20 UNL     1      30.473  -0.660  -1.723  1.00  0.00    -0.004 C
HETATM   11  C21 UNL     1      29.171  -0.399  -2.429  1.00  0.00     0.006 C
HETATM   12  C25 UNL     1      30.973  -1.880  -2.516  1.00  0.00    -0.035 C
HETATM   13  C22 UNL     1      28.668  -1.789  -2.794  1.00  0.00     0.012 C
HETATM   14  C23 UNL     1      29.735  -2.733  -2.279  1.00  0.00    -0.008 C
HETATM   15  C24 UNL     1      29.759  -4.054  -2.907  1.00  0.00     0.018 C
HETATM   16  C26 UNL     1      31.143  -1.550  -3.980  1.00  0.00     0.016 C
HETATM   17  C27 UNL     1      32.191  -2.491  -1.918  1.00  0.00     0.016 C
ENDBRANCH   5   8
ENDBRANCH   2   5
ENDBRANCH   1   2
BRANCH   1  18
HETATM   18  N1  UNL     1      27.277  -2.132   2.125  1.00  0.00    -0.358 N
HETATM   19  C5  UNL     1      26.674  -1.529   3.250  1.00  0.00     0.221 C
HETATM   20  O1  UNL     1      26.095  -2.245   4.092  1.00  0.00    -0.273 OA
ATOM     21  H1  UNL     1      27.743  -1.516   1.458  1.00  0.00     0.162 HD
BRANCH  19  22
HETATM   22  C6  UNL     1      26.714  -0.034   3.459  1.00  0.00     0.078 C
HETATM   23  C7  UNL     1      28.076   0.477   3.181  1.00  0.00     0.016 C
HETATM   24  C8  UNL     1      28.798   0.944   4.423  1.00  0.00     0.034 C
HETATM   25  C9  UNL     1      27.887   1.983   5.071  1.00  0.00     0.190 C
HETATM   26  C16 UNL     1      26.760   1.225   5.680  1.00  0.00     0.034 C
HETATM   27  C17 UNL     1      26.045   0.370   4.707  1.00  0.00     0.016 C
BRANCH  25  28
HETATM   28  N2  UNL     1      28.615   2.858   5.958  1.00  0.00    -0.063 N
HETATM   29  C12 UNL     1      27.908   3.291   7.116  1.00  0.00     0.238 C
HETATM   30  C13 UNL     1      28.908   3.556   8.220  1.00  0.00     0.029 C
HETATM   31  C14 UNL     1      30.058   2.686   7.858  1.00  0.00     0.029 C
HETATM   32  C15 UNL     1      29.861   2.284   6.420  1.00  0.00     0.238 C
BRANCH  28  33
HETATM   33  C10 UNL     1      28.993   3.986   5.103  1.00  0.00     0.233 C
HETATM   34  C11 UNL     1      27.893   4.594   4.326  1.00  0.00     0.035 C
ENDBRANCH  28  33
ENDBRANCH  25  28
ENDBRANCH  19  22
ENDBRANCH   1  18
TORSDOF 8
ENDMDL