MODEL 5
REMARK VINA RESULT: -6.048195947      2.618      5.365
REMARK  8 active torsions:
REMARK  status: ('A' for Active; 'I' for Inactive)
REMARK    1  A    between atoms: C2_2  and  C3_3
REMARK    2  A    between atoms: C3_3  and  N1_4
REMARK    3  A    between atoms: N1_4  and  C4_6
REMARK    4  A    between atoms: C4_6  and  O1_7
REMARK    5  A    between atoms: C4_6  and  C5_9
REMARK    6  A    between atoms: C5_9  and  N2_21
REMARK    7  A    between atoms: C6_10  and  C7_11
REMARK       I    between atoms: N2_21  and  C17_23
REMARK    8  A    between atoms: C17_23  and  C18_25
ROOT
HETATM    1  C5  UNL     1      29.064   0.583  -4.916  1.00  0.00     0.082 C
HETATM    2  C6  UNL     1      28.591  -0.583  -4.207  1.00  0.00     0.017 C
ENDROOT
BRANCH   1   3
HETATM    3  C4  UNL     1      30.019   0.523  -6.003  1.00  0.00     0.163 C
BRANCH   3   4
HETATM    4  N1  UNL     1      31.111   1.337  -6.320  1.00  0.00    -0.366 N
ATOM      5  H1  UNL     1      32.054   0.987  -6.153  1.00  0.00     0.162 HD
BRANCH   4   6
HETATM    6  C3  UNL     1      30.938   2.687  -6.888  1.00  0.00     0.148 C
BRANCH   6   7
HETATM    7  C2  UNL     1      30.358   2.636  -8.248  1.00  0.00    -0.018 C
HETATM    8  C1  UNL     1      29.260   3.277  -8.601  1.00  0.00     0.008 C
ENDBRANCH   6   7
ENDBRANCH   4   6
ENDBRANCH   3   4
BRANCH   3   9
HETATM    9  O1  UNL     1      29.837  -0.476  -6.839  1.00  0.00    -0.345 OA
ATOM     10  H1  UNL     1      28.939  -0.782  -6.886  1.00  0.00     0.219 HD
ENDBRANCH   3   9
ENDBRANCH   1   3
BRANCH   1  11
HETATM   11  N2  UNL     1      28.128   1.670  -5.152  1.00  0.00    -0.323 N
HETATM   12  C17 UNL     1      27.127   1.694  -6.143  1.00  0.00     0.227 C
HETATM   13  O2  UNL     1      27.011   0.690  -6.910  1.00  0.00    -0.273 OA
ATOM     14  H2  UNL     1      28.202   2.487  -4.547  1.00  0.00     0.169 HD
BRANCH  12  15
HETATM   15  C18 UNL     1      26.199   2.810  -6.358  1.00  0.00     0.086 C
HETATM   16  C19 UNL     1      24.782   2.282  -6.424  1.00  0.00    -0.000 C
HETATM   17  C20 UNL     1      24.303   1.823  -5.063  1.00  0.00     0.010 C
HETATM   18  C24 UNL     1      23.898   3.400  -6.932  1.00  0.00     0.010 C
HETATM   19  C21 UNL     1      24.288   2.984  -4.116  1.00  0.00    -0.013 C
HETATM   20  C22 UNL     1      23.417   4.110  -4.653  1.00  0.00     0.009 C
HETATM   21  C27 UNL     1      25.725   3.494  -3.984  1.00  0.00     0.010 C
HETATM   22  C23 UNL     1      24.007   4.550  -5.956  1.00  0.00    -0.013 C
HETATM   23  C25 UNL     1      25.426   5.050  -5.827  1.00  0.00     0.010 C
HETATM   24  C26 UNL     1      26.287   3.881  -5.328  1.00  0.00    -0.000 C
ENDBRANCH  12  15
ENDBRANCH   1  11
BRANCH   2  25
HETATM   25  C7  UNL     1      29.475  -1.412  -3.351  1.00  0.00    -0.019 C
HETATM   26  C8  UNL     1      28.478  -2.121  -2.400  1.00  0.00     0.018 C
HETATM   27  C9  UNL     1      29.137  -2.929  -1.349  1.00  0.00    -0.013 C
HETATM   28  C10 UNL     1      29.980  -4.003  -2.010  1.00  0.00     0.009 C
HETATM   29  C14 UNL     1      29.961  -2.014  -0.471  1.00  0.00     0.009 C
HETATM   30  C11 UNL     1      30.996  -3.296  -2.845  1.00  0.00    -0.013 C
HETATM   31  C12 UNL     1      31.830  -2.408  -1.977  1.00  0.00     0.009 C
HETATM   32  C16 UNL     1      30.349  -2.435  -3.926  1.00  0.00     0.018 C
HETATM   33  C13 UNL     1      30.956  -1.328  -1.368  1.00  0.00    -0.013 C
HETATM   34  C15 UNL     1      30.315  -0.516  -2.428  1.00  0.00     0.018 C
ENDBRANCH   2  25
TORSDOF 8
ENDMDL