MODEL 3
REMARK VINA RESULT: -5.699071572      4.419      6.583
REMARK  6 active torsions:
REMARK  status: ('A' for Active; 'I' for Inactive)
REMARK    1  A    between atoms: C2_2  and  N1_3
REMARK    2  A    between atoms: N1_3  and  C3_4
REMARK       I    between atoms: N1_3  and  C5_6
REMARK    3  A    between atoms: C5_6  and  C6_8
REMARK    4  A    between atoms: C7_9  and  C8_10
REMARK    5  A    between atoms: C16_18  and  N2_19
REMARK    6  A    between atoms: N2_19  and  C17_21
ROOT
HETATM    1  C8  UNL     1      30.166   0.446  -2.419  1.00  0.00    -0.053 C
HETATM    2  C9  UNL     1      29.510   1.386  -1.698  1.00  0.00    -0.018 C
HETATM    3  C10 UNL     1      29.076   2.522  -2.466  1.00  0.00     0.033 C
HETATM    4  C11 UNL     1      29.711   2.381  -3.781  1.00  0.00     0.006 C
HETATM    5  C12 UNL     1      28.871   2.770  -4.944  1.00  0.00    -0.004 C
HETATM    6  C13 UNL     1      29.701   2.946  -6.155  1.00  0.00     0.006 C
HETATM    7  C14 UNL     1      28.927   2.577  -7.435  1.00  0.00     0.008 C
HETATM    8  C15 UNL     1      27.561   3.138  -7.243  1.00  0.00     0.017 C
HETATM    9  C16 UNL     1      26.751   3.325  -8.477  1.00  0.00     0.088 C
HETATM   10  C18 UNL     1      26.655   1.994  -9.181  1.00  0.00     0.026 C
HETATM   11  C19 UNL     1      26.367   0.856  -8.271  1.00  0.00     0.003 C
HETATM   12  C20 UNL     1      25.973   1.225  -6.884  1.00  0.00     0.010 C
HETATM   13  C21 UNL     1      26.791   2.282  -6.224  1.00  0.00    -0.035 C
HETATM   14  C22 UNL     1      25.794   3.310  -5.637  1.00  0.00     0.016 C
HETATM   15  C23 UNL     1      27.681   1.822  -5.126  1.00  0.00    -0.001 C
HETATM   16  C24 UNL     1      28.093   0.404  -5.104  1.00  0.00     0.007 C
HETATM   17  C25 UNL     1      29.505   0.095  -4.758  1.00  0.00     0.015 C
HETATM   18  C26 UNL     1      30.210   0.953  -3.787  1.00  0.00    -0.013 C
HETATM   19  C27 UNL     1      31.700   1.036  -4.197  1.00  0.00     0.021 C
ENDROOT
BRANCH   1  20
HETATM   20  C7  UNL     1      30.689  -0.777  -1.854  1.00  0.00     0.013 C
HETATM   21  C6  UNL     1      30.539  -1.633  -0.955  1.00  0.00     0.075 C
BRANCH  21  22
HETATM   22  C5  UNL     1      29.735  -1.989   0.141  1.00  0.00     0.243 C
HETATM   23  N1  UNL     1      28.706  -3.026  -0.018  1.00  0.00    -0.349 N
HETATM   24  O1  UNL     1      29.796  -1.500   1.292  1.00  0.00    -0.268 OA
BRANCH  23  25
HETATM   25  C2  UNL     1      27.874  -3.324   1.104  1.00  0.00     0.121 C
HETATM   26  C1  UNL     1      27.961  -4.827   1.377  1.00  0.00     0.026 C
ENDBRANCH  23  25
BRANCH  23  27
HETATM   27  C3  UNL     1      28.550  -3.750  -1.235  1.00  0.00     0.121 C
HETATM   28  C4  UNL     1      27.279  -3.395  -1.964  1.00  0.00     0.026 C
ENDBRANCH  23  27
ENDBRANCH  21  22
ENDBRANCH   1  20
BRANCH   9  29
HETATM   29  N2  UNL     1      27.418   4.264  -9.346  1.00  0.00    -0.363 N
ATOM     30  H2  UNL     1      28.286   4.692  -9.024  1.00  0.00     0.162 HD
BRANCH  29  31
HETATM   31  C17 UNL     1      26.923   4.621 -10.627  1.00  0.00     0.348 C
HETATM   32  O2  UNL     1      25.724   5.049 -10.679  1.00  0.00    -0.284 OA
ENDBRANCH  29  31
ENDBRANCH   9  29
TORSDOF 6
ENDMDL