MODEL 2
REMARK VINA RESULT: -6.200993793      1.250      1.381
REMARK  9 active torsions:
REMARK  status: ('A' for Active; 'I' for Inactive)
REMARK    1  A    between atoms: C2_2  and  C4_4
REMARK    2  A    between atoms: C12_12  and  N1_13
REMARK       I    between atoms: N1_13  and  C13_15
REMARK    3  A    between atoms: C13_15  and  C14_17
REMARK    4  A    between atoms: C14_17  and  N2_20
REMARK    5  A    between atoms: N2_20  and  C17_21
REMARK    6  A    between atoms: C17_21  and  C18_22
REMARK    7  A    between atoms: C18_22  and  C19_23
REMARK    8  A    between atoms: C19_23  and  C20_24
REMARK    9  A    between atoms: C20_24  and  O2_25
ROOT
HETATM    1  N1  UNL     1      28.869   0.167  -4.353  1.00  0.00    -0.354 N
ATOM      2  H1  UNL     1      28.427   0.762  -3.653  1.00  0.00     0.162 HD
HETATM    3  C13 UNL     1      28.893   0.613  -5.702  1.00  0.00     0.254 C
HETATM    4  O1  UNL     1      29.447  -0.149  -6.530  1.00  0.00    -0.271 OA
ENDROOT
BRANCH   3   5
HETATM    5  C14 UNL     1      28.310   1.890  -6.134  1.00  0.00     0.202 C
HETATM    6  C15 UNL     1      29.184   2.508  -7.153  1.00  0.00     0.057 C
HETATM    7  C16 UNL     1      28.249   2.800  -4.923  1.00  0.00     0.057 C
BRANCH   5   8
HETATM    8  N2  UNL     1      26.901   1.743  -6.595  1.00  0.00    -0.044 N
HETATM    9  C21 UNL     1      26.835   0.803  -7.655  1.00  0.00     0.266 A
HETATM   10  C22 UNL     1      26.483   1.535  -8.892  1.00  0.00    -0.002 A
HETATM   11  C23 UNL     1      26.340   2.805  -8.599  1.00  0.00    -0.002 A
HETATM   12  C24 UNL     1      26.584   3.014  -7.165  1.00  0.00     0.266 A
BRANCH   8  13
HETATM   13  C17 UNL     1      26.064   1.498  -5.475  1.00  0.00     0.240 C
BRANCH  13  14
HETATM   14  C18 UNL     1      24.636   1.774  -5.465  1.00  0.00     0.035 C
BRANCH  14  15
HETATM   15  C19 UNL     1      23.966   2.346  -4.262  1.00  0.00     0.078 C
BRANCH  15  16
HETATM   16  C20 UNL     1      24.731   3.494  -3.664  1.00  0.00     0.110 C
HETATM   17  S1  UNL     1      24.817   4.964  -4.346  1.00  0.00    -0.058 SA
BRANCH  16  18
HETATM   18  O2  UNL     1      25.391   3.275  -2.466  1.00  0.00    -0.354 OA
ATOM     19  H2  UNL     1      26.312   3.501  -2.421  1.00  0.00     0.218 HD
ENDBRANCH  16  18
ENDBRANCH  15  16
ENDBRANCH  14  15
ENDBRANCH  13  14
ENDBRANCH   8  13
ENDBRANCH   5   8
ENDBRANCH   3   5
BRANCH   1  20
HETATM   20  C12 UNL     1      29.442  -1.091  -3.924  1.00  0.00     0.089 C
HETATM   21  C10 UNL     1      30.872  -0.927  -3.508  1.00  0.00     0.013 C
HETATM   22  C8  UNL     1      31.497  -2.270  -3.253  1.00  0.00    -0.007 C
HETATM   23  C11 UNL     1      30.951  -0.131  -2.247  1.00  0.00     0.011 C
HETATM   24  C7  UNL     1      32.256  -2.059  -1.950  1.00  0.00     0.010 C
HETATM   25  C9  UNL     1      30.436  -3.331  -2.944  1.00  0.00     0.015 C
HETATM   26  C6  UNL     1      31.261  -1.170  -1.198  1.00  0.00    -0.013 C
HETATM   27  C5  UNL     1      30.063  -1.998  -0.847  1.00  0.00     0.014 C
HETATM   28  C4  UNL     1      29.450  -2.707  -2.011  1.00  0.00    -0.035 C
HETATM   29  C25 UNL     1      28.639  -1.695  -2.802  1.00  0.00     0.035 C
BRANCH  28  30
HETATM   30  C2  UNL     1      28.495  -3.755  -1.436  1.00  0.00    -0.014 C
HETATM   31  C1  UNL     1      27.067  -3.463  -1.755  1.00  0.00     0.010 C
HETATM   32  C3  UNL     1      28.858  -5.127  -1.921  1.00  0.00     0.010 C
ENDBRANCH  28  30
ENDBRANCH   1  20
TORSDOF 9
ENDMDL