MODEL 4
REMARK VINA RESULT: -7.303829298      2.637      4.175
REMARK  3 active torsions:
REMARK  status: ('A' for Active; 'I' for Inactive)
REMARK    1  A    between atoms: C4_5  and  C5_6
REMARK    2  A    between atoms: C9_15  and  C10_16
REMARK       I    between atoms: C10_16  and  N2_18
REMARK    3  A    between atoms: N2_18  and  C11_20
ROOT
HETATM    1  C1  UNL     1      -7.540 -24.673 -67.750  1.00  0.00     0.059 C
HETATM    2  C2  UNL     1      -7.015 -25.843 -68.544  1.00  0.00     0.014 A
HETATM    3  S1  UNL     1      -5.402 -26.215 -68.937  1.00  0.00    -0.073 SA
HETATM    4  C3  UNL     1      -5.678 -27.660 -69.791  1.00  0.00     0.103 A
HETATM    5  C4  UNL     1      -4.807 -28.549 -70.440  1.00  0.00     0.097 A
HETATM    6  C6  UNL     1      -5.298 -29.658 -71.085  1.00  0.00     0.059 A
HETATM    7 CL1  UNL     1      -4.253 -30.788 -71.901  1.00  0.00    -0.083 Cl
HETATM    8  C7  UNL     1      -6.664 -29.806 -71.038  1.00  0.00     0.100 A
HETATM    9  C8  UNL     1      -7.463 -28.921 -70.399  1.00  0.00     0.255 A
HETATM   10  O3  UNL     1      -8.707 -29.209 -70.458  1.00  0.00    -0.268 OA
HETATM   11  N1  UNL     1      -6.996 -27.810 -69.748  1.00  0.00    -0.265 N
HETATM   12  C9  UNL     1      -7.711 -26.893 -69.112  1.00  0.00     0.123 A
ENDROOT
BRANCH  12  13
HETATM   13  C10 UNL     1      -9.196 -26.830 -68.966  1.00  0.00     0.270 C
HETATM   14  O4  UNL     1      -9.688 -27.072 -67.855  1.00  0.00    -0.266 OA
HETATM   15  N2  UNL     1     -10.033 -26.505 -70.068  1.00  0.00    -0.348 N
ATOM     16  H2  UNL     1      -9.610 -26.314 -70.976  1.00  0.00     0.163 HD
BRANCH  15  17
HETATM   17  C11 UNL     1     -11.468 -26.439 -69.928  1.00  0.00     0.022 C
HETATM   18  C12 UNL     1     -11.920 -25.527 -68.828  1.00  0.00     0.037 C
HETATM   19  C13 UNL     1     -12.070 -25.961 -71.224  1.00  0.00     0.037 C
HETATM   20  C14 UNL     1     -12.045 -27.818 -69.634  1.00  0.00     0.037 C
ENDBRANCH  15  17
ENDBRANCH  12  13
BRANCH   5  21
HETATM   21  C5  UNL     1      -3.391 -28.264 -70.406  1.00  0.00     0.214 C
HETATM   22  O1  UNL     1      -2.741 -27.923 -71.430  1.00  0.00    -0.644 OA
HETATM   23  O2  UNL     1      -2.691 -28.363 -69.191  1.00  0.00    -0.644 OA
ENDBRANCH   5  21
TORSDOF 3
ENDMDL