MODEL 3
REMARK VINA RESULT: -7.451302798      3.668      7.414
REMARK  4 active torsions:
REMARK  status: ('A' for Active; 'I' for Inactive)
REMARK    1  A    between atoms: C3_5  and  C4_6
REMARK       I    between atoms: C4_6  and  N2_8
REMARK    2  A    between atoms: N2_8  and  C5_10
REMARK    3  A    between atoms: C8_15  and  C9_16
REMARK    4  A    between atoms: C9_16  and  O2_17
ROOT
HETATM    1  C5  UNL     1      -7.717 -26.511 -69.324  1.00  0.00     0.152 A
HETATM    2  N3  UNL     1      -8.842 -25.949 -68.871  1.00  0.00    -0.339 N
ATOM      3  H3  UNL     1      -9.675 -25.900 -69.457  1.00  0.00     0.168 HD
HETATM    4  C6  UNL     1      -8.846 -25.463 -67.660  1.00  0.00     0.026 A
HETATM    5  C7  UNL     1     -10.077 -24.803 -67.055  1.00  0.00     0.069 C
HETATM    6  C8  UNL     1      -7.697 -25.558 -66.923  1.00  0.00     0.074 A
HETATM    7  S1  UNL     1      -6.647 -26.350 -68.013  1.00  0.00    -0.051 SA
ENDROOT
BRANCH   1   8
HETATM    8  N2  UNL     1      -7.517 -27.047 -70.495  1.00  0.00    -0.302 N
HETATM    9  C4  UNL     1      -8.337 -28.054 -71.019  1.00  0.00     0.274 C
HETATM   10  O1  UNL     1      -9.532 -27.779 -71.236  1.00  0.00    -0.266 OA
ATOM     11  H2  UNL     1      -6.729 -26.718 -71.055  1.00  0.00     0.171 HD
BRANCH   9  12
HETATM   12  C3  UNL     1      -7.760 -29.404 -71.296  1.00  0.00     0.108 A
HETATM   13  N1  UNL     1      -8.394 -30.521 -71.101  1.00  0.00    -0.349 N
HETATM   14  C2  UNL     1      -7.807 -31.671 -71.372  1.00  0.00     0.047 A
ATOM     15  H1  UNL     1      -9.347 -30.509 -70.737  1.00  0.00     0.166 HD
HETATM   16  C1  UNL     1      -8.375 -33.066 -71.212  1.00  0.00     0.076 C
HETATM   17  S2  UNL     1      -6.272 -31.183 -71.936  1.00  0.00    -0.087 SA
HETATM   18  C10 UNL     1      -6.478 -29.493 -71.788  1.00  0.00     0.086 A
ENDBRANCH   9  12
ENDBRANCH   1   8
BRANCH   6  19
HETATM   19  C9  UNL     1      -7.450 -25.079 -65.516  1.00  0.00     0.251 C
HETATM   20 CL1  UNL     1      -8.784 -25.576 -64.448  1.00  0.00    -0.065 Cl
HETATM   21 CL2  UNL     1      -7.364 -23.304 -65.575  1.00  0.00    -0.065 Cl
BRANCH  19  22
HETATM   22  O2  UNL     1      -6.224 -25.543 -65.045  1.00  0.00    -0.358 OA
ATOM     23  H2  UNL     1      -6.156 -25.420 -64.106  1.00  0.00     0.213 HD
ENDBRANCH  19  22
ENDBRANCH   6  19
TORSDOF 4
ENDMDL