MODEL 3
REMARK VINA RESULT: -7.796986956      2.289      2.832
REMARK  3 active torsions:
REMARK  status: ('A' for Active; 'I' for Inactive)
REMARK    1  A    between atoms: C2_2  and  C3_3
REMARK    2  A    between atoms: C2_2  and  C6_7
REMARK    3  A    between atoms: C14_21  and  N3_22
ROOT
HETATM    1  C3  UNL     1      -5.806 -28.373 -69.760  1.00  0.00    -0.049 C
HETATM    2  C4  UNL     1      -5.678 -29.172 -70.636  1.00  0.00     0.018 C
HETATM    3  C5  UNL     1      -5.560 -30.084 -71.665  1.00  0.00     0.152 C
HETATM    4  N1  UNL     1      -5.482 -30.821 -72.532  1.00  0.00    -0.182 NA
ENDROOT
BRANCH   1   5
HETATM    5  C2  UNL     1      -6.040 -27.185 -68.490  1.00  0.00     0.044 C
HETATM    6  C1  UNL     1      -4.795 -27.030 -68.476  1.00  0.00     0.036 C
BRANCH   5   7
HETATM    7  C6  UNL     1      -7.337 -27.348 -68.507  1.00  0.00     0.113 C
HETATM    8  C7  UNL     1      -8.226 -26.584 -69.014  1.00  0.00     0.071 C
HETATM    9  C8  UNL     1      -7.281 -25.591 -69.303  1.00  0.00     0.052 C
HETATM   10  C14 UNL     1      -9.704 -26.794 -69.141  1.00  0.00     0.189 C
HETATM   11 CL1  UNL     1      -6.318 -25.078 -70.396  1.00  0.00    -0.083 Cl
HETATM   12  C9  UNL     1      -7.225 -24.748 -68.082  1.00  0.00     0.044 C
HETATM   13  C10 UNL     1      -7.739 -24.613 -66.815  1.00  0.00     0.019 C
HETATM   14 CL2  UNL     1      -7.446 -23.429 -65.699  1.00  0.00    -0.089 Cl
HETATM   15  C11 UNL     1      -8.914 -25.595 -65.946  1.00  0.00     0.114 C
HETATM   16  C12 UNL     1      -9.201 -26.532 -66.900  1.00  0.00     0.092 C
HETATM   17  C13 UNL     1      -8.260 -27.354 -66.538  1.00  0.00     0.311 C
HETATM   18  N2  UNL     1     -10.270 -26.757 -67.898  1.00  0.00    -0.335 N
HETATM   19  O1  UNL     1      -7.460 -27.340 -65.564  1.00  0.00    -0.258 OA
HETATM   20  O2  UNL     1      -8.046 -28.521 -67.672  1.00  0.00    -0.272 OA
ATOM     21  H2  UNL     1     -11.263 -26.865 -67.692  1.00  0.00     0.167 HD
BRANCH  10  22
HETATM   22  N3  UNL     1     -10.417 -27.009 -70.263  1.00  0.00    -0.097 N
HETATM   23  O3  UNL     1     -11.629 -26.640 -70.321  1.00  0.00    -0.530 OA
HETATM   24  O4  UNL     1      -9.918 -27.626 -71.385  1.00  0.00    -0.530 OA
ENDBRANCH  10  22
ENDBRANCH   5   7
ENDBRANCH   1   5
TORSDOF 3
ENDMDL