MODEL 2
REMARK VINA RESULT: -8.742794928      1.439      5.449
REMARK  3 active torsions:
REMARK  status: ('A' for Active; 'I' for Inactive)
REMARK       I    between atoms: C2_2  and  N1_4
REMARK    1  A    between atoms: N1_4  and  C3_6
REMARK    2  A    between atoms: C5_8  and  C6_9
REMARK    3  A    between atoms: C9_15  and  C10_16
REMARK       I    between atoms: C10_16  and  N3_18
ROOT
HETATM    1  C10 UNL     1      -5.382 -26.952 -69.042  1.00  0.00     0.269 C
HETATM    2  O3  UNL     1      -5.109 -26.305 -70.132  1.00  0.00    -0.266 OA
HETATM    3  N3  UNL     1      -5.226 -28.336 -69.152  1.00  0.00    -0.259 N
ATOM      4  H3  UNL     1      -5.417 -28.922 -68.340  1.00  0.00     0.181 HD
HETATM    5  C11 UNL     1      -4.809 -28.953 -70.366  1.00  0.00     0.184 C
HETATM    6  N4  UNL     1      -4.486 -29.448 -71.363  1.00  0.00    -0.172 NA
ENDROOT
BRANCH   1   7
HETATM    7  C9  UNL     1      -5.790 -26.179 -67.904  1.00  0.00     0.093 A
HETATM    8  C6  UNL     1      -7.110 -26.059 -67.463  1.00  0.00     0.085 A
HETATM    9  N2  UNL     1      -7.057 -25.204 -66.425  1.00  0.00    -0.259 N
HETATM   10  O2  UNL     1      -5.844 -24.822 -66.224  1.00  0.00    -0.241 OA
ATOM     11  H2  UNL     1      -7.862 -24.903 -65.876  1.00  0.00     0.195 HD
HETATM   12  C7  UNL     1      -5.013 -25.382 -67.094  1.00  0.00     0.090 A
HETATM   13  C8  UNL     1      -3.530 -25.149 -67.131  1.00  0.00     0.080 C
BRANCH   8  14
HETATM   14  C5  UNL     1      -8.312 -26.680 -67.990  1.00  0.00     0.018 A
HETATM   15  C4  UNL     1      -8.635 -26.552 -69.365  1.00  0.00     0.046 A
HETATM   16  C3  UNL     1      -9.699 -27.145 -69.952  1.00  0.00     0.057 A
HETATM   17  C14 UNL     1     -10.508 -27.931 -69.109  1.00  0.00     0.062 A
HETATM   18  C13 UNL     1     -10.211 -28.067 -67.778  1.00  0.00     0.051 A
HETATM   19 CL2  UNL     1     -11.894 -28.722 -69.809  1.00  0.00    -0.082 Cl
HETATM   20  C12 UNL     1      -9.124 -27.453 -67.204  1.00  0.00     0.048 A
HETATM   21 CL1  UNL     1      -8.814 -27.670 -65.498  1.00  0.00    -0.083 Cl
BRANCH  16  22
HETATM   22  N1  UNL     1     -10.029 -27.026 -71.310  1.00  0.00    -0.326 N
HETATM   23  C2  UNL     1      -9.525 -27.774 -72.375  1.00  0.00     0.218 C
HETATM   24  C1  UNL     1     -10.040 -27.463 -73.785  1.00  0.00     0.117 C
HETATM   25  O1  UNL     1      -8.688 -28.677 -72.279  1.00  0.00    -0.274 OA
ATOM     26  H1  UNL     1     -10.714 -26.309 -71.547  1.00  0.00     0.169 HD
ENDBRANCH  16  22
ENDBRANCH   8  14
ENDBRANCH   1   7
TORSDOF 3
ENDMDL