MODEL 5
REMARK VINA RESULT: -7.821336753      2.841      4.761
REMARK  4 active torsions:
REMARK  status: ('A' for Active; 'I' for Inactive)
REMARK    1  A    between atoms: C2_2  and  C3_3
REMARK    2  A    between atoms: C6_8  and  O1_9
REMARK    3  A    between atoms: C10_17  and  O5_18
REMARK    4  A    between atoms: C10_17  and  C11_20
ROOT
HETATM    1  C3  UNL     1      -4.661 -28.128 -69.866  1.00  0.00    -0.004 A
HETATM    2  C4  UNL     1      -5.650 -28.788 -70.558  1.00  0.00     0.044 A
HETATM    3 BR1  UNL     1      -5.301 -30.179 -71.811  1.00  0.00    -0.049 Br
HETATM    4  C5  UNL     1      -6.964 -28.436 -70.346  1.00  0.00     0.086 A
HETATM    5 CL1  UNL     1      -8.285 -29.245 -71.207  1.00  0.00    -0.080 Cl
HETATM    6  C6  UNL     1      -7.230 -27.428 -69.440  1.00  0.00     0.103 A
HETATM    7  C7  UNL     1      -6.267 -26.748 -68.729  1.00  0.00     0.073 A
HETATM    8  C8  UNL     1      -4.956 -27.115 -68.957  1.00  0.00     0.103 A
HETATM    9  O2  UNL     1      -3.959 -26.443 -68.264  1.00  0.00    -0.254 OA
HETATM   10  C9  UNL     1      -4.202 -25.423 -67.359  1.00  0.00     0.414 A
HETATM   11  O3  UNL     1      -3.300 -24.835 -66.745  1.00  0.00    -0.229 OA
HETATM   12  O4  UNL     1      -5.524 -25.075 -67.159  1.00  0.00    -0.255 OA
HETATM   13  C10 UNL     1      -6.641 -25.692 -67.736  1.00  0.00     0.207 A
ENDROOT
BRANCH  13  14
HETATM   14  O5  UNL     1      -7.405 -24.718 -68.368  1.00  0.00    -0.361 OA
ATOM     15  H5  UNL     1      -8.304 -24.783 -68.069  1.00  0.00     0.213 HD
ENDBRANCH  13  14
BRANCH  13  16
HETATM   16  C11 UNL     1      -7.459 -26.284 -66.590  1.00  0.00     0.070 C
HETATM   17  C12 UNL     1      -7.230 -25.507 -65.315  1.00  0.00     0.011 C
ENDBRANCH  13  16
BRANCH   6  18
HETATM   18  O1  UNL     1      -8.568 -27.109 -69.263  1.00  0.00    -0.358 OA
ATOM     19  H1  UNL     1      -8.747 -26.370 -68.693  1.00  0.00     0.217 HD
ENDBRANCH   6  18
BRANCH   1  20
HETATM   20  C2  UNL     1      -3.242 -28.491 -70.075  1.00  0.00     0.038 C
HETATM   21  C1  UNL     1      -2.609 -27.718 -71.204  1.00  0.00     0.010 C
ENDBRANCH   1  20
TORSDOF 4
ENDMDL