MODEL 2
REMARK VINA RESULT: -7.588331952      2.387      6.218
REMARK  4 active torsions:
REMARK  status: ('A' for Active; 'I' for Inactive)
REMARK    1  A    between atoms: N1_2  and  C3_4
REMARK    2  A    between atoms: C4_5  and  C5_6
REMARK    3  A    between atoms: C10_15  and  O4_16
REMARK    4  A    between atoms: N2_20  and  C13_21
ROOT
HETATM    1  C3  UNL     1      -5.711 -27.869 -69.613  1.00  0.00     0.128 A
HETATM    2  C4  UNL     1      -6.011 -26.672 -68.927  1.00  0.00     0.135 A
HETATM    3  C6  UNL     1      -7.303 -26.251 -68.732  1.00  0.00     0.205 A
HETATM    4  O3  UNL     1      -7.562 -25.179 -68.116  1.00  0.00    -0.286 OA
HETATM    5  C7  UNL     1      -8.291 -27.035 -69.226  1.00  0.00     0.044 A
HETATM    6  C8  UNL     1      -9.616 -26.587 -69.055  1.00  0.00     0.044 A
HETATM    7  C9  UNL     1     -10.661 -27.312 -69.558  1.00  0.00     0.068 A
HETATM    8 CL1  UNL     1     -12.318 -26.777 -69.361  1.00  0.00    -0.081 Cl
HETATM    9  C10 UNL     1     -10.394 -28.456 -70.218  1.00  0.00     0.089 A
HETATM   10  C11 UNL     1      -9.055 -28.885 -70.375  1.00  0.00     0.069 A
HETATM   11  C12 UNL     1      -7.987 -28.201 -69.889  1.00  0.00     0.055 A
HETATM   12  N2  UNL     1      -6.696 -28.652 -70.097  1.00  0.00    -0.308 N
ENDROOT
BRANCH  12  13
HETATM   13  C13 UNL     1      -6.486 -29.916 -70.715  1.00  0.00     0.109 C
HETATM   14  C14 UNL     1      -6.025 -29.797 -72.198  1.00  0.00     0.056 C
HETATM   15  C15 UNL     1      -5.577 -30.844 -69.927  1.00  0.00     0.056 C
HETATM   16 CL2  UNL     1      -7.931 -30.912 -70.948  1.00  0.00    -0.096 Cl
ENDBRANCH  12  13
BRANCH   1  17
HETATM   17  N1  UNL     1      -4.332 -28.031 -69.810  1.00  0.00    -0.375 N
HETATM   18  C1  UNL     1      -3.325 -28.517 -68.907  1.00  0.00     0.150 C
HETATM   19  C2  UNL     1      -3.775 -27.560 -71.094  1.00  0.00     0.150 C
ENDBRANCH   1  17
BRANCH   2  20
HETATM   20  C5  UNL     1      -4.961 -25.870 -68.363  1.00  0.00     0.217 C
HETATM   21  O1  UNL     1      -4.309 -25.080 -69.051  1.00  0.00    -0.644 OA
HETATM   22  O2  UNL     1      -4.679 -25.993 -67.019  1.00  0.00    -0.644 OA
ENDBRANCH   2  20
BRANCH   9  23
HETATM   23  O4  UNL     1     -11.412 -29.222 -70.746  1.00  0.00    -0.359 OA
ATOM     24  H4  UNL     1     -12.311 -29.099 -70.465  1.00  0.00     0.217 HD
ENDBRANCH   9  23
TORSDOF 4
ENDMDL