MODEL 2
REMARK VINA RESULT: -8.649731918      3.190      4.346
REMARK  2 active torsions:
REMARK  status: ('A' for Active; 'I' for Inactive)
REMARK    1  A    between atoms: C6_10  and  S1_11
REMARK    2  A    between atoms: S1_11  and  C7_12
ROOT
HETATM    1  C1  UNL     1      -4.102 -25.006 -67.520  1.00  0.00     0.070 C
HETATM    2  C2  UNL     1      -4.439 -26.120 -68.447  1.00  0.00     0.029 A
HETATM    3  N1  UNL     1      -3.560 -26.515 -69.371  1.00  0.00    -0.348 N
ATOM      4  H1  UNL     1      -2.661 -26.038 -69.423  1.00  0.00     0.166 HD
HETATM    5  C3  UNL     1      -3.806 -27.515 -70.236  1.00  0.00     0.126 A
HETATM    6 CL1  UNL     1      -2.588 -27.972 -71.425  1.00  0.00    -0.063 Cl
HETATM    7  C4  UNL     1      -5.012 -28.135 -70.146  1.00  0.00     0.102 A
HETATM    8  C5  UNL     1      -5.275 -29.215 -71.083  1.00  0.00     0.104 C
HETATM    9  N2  UNL     1      -5.477 -30.066 -71.844  1.00  0.00    -0.191 NA
HETATM   10  C6  UNL     1      -5.982 -27.789 -69.218  1.00  0.00     0.053 A
HETATM   11  C12 UNL     1      -5.685 -26.770 -68.363  1.00  0.00     0.074 A
HETATM   12 CL2  UNL     1      -6.778 -26.196 -67.145  1.00  0.00    -0.081 Cl
ENDROOT
BRANCH  10  13
HETATM   13  S1  UNL     1      -7.481 -28.655 -69.211  1.00  0.00    -0.080 SA
BRANCH  13  14
HETATM   14  C7  UNL     1      -8.952 -27.787 -69.575  1.00  0.00     0.096 A
HETATM   15  C8  UNL     1      -9.876 -27.540 -68.587  1.00  0.00     0.032 A
HETATM   16  C9  UNL     1      -9.603 -28.030 -67.204  1.00  0.00     0.070 C
HETATM   17  N3  UNL     1     -11.006 -26.880 -68.868  1.00  0.00    -0.311 N
HETATM   18  C10 UNL     1     -11.305 -26.427 -70.100  1.00  0.00     0.327 A
ATOM     19  H3  UNL     1     -11.671 -26.712 -68.112  1.00  0.00     0.170 HD
HETATM   20  O1  UNL     1     -12.383 -25.804 -70.338  1.00  0.00    -0.247 OA
HETATM   21  N4  UNL     1     -10.408 -26.664 -71.073  1.00  0.00    -0.274 N
HETATM   22  C11 UNL     1      -9.256 -27.322 -70.847  1.00  0.00     0.268 A
ATOM     23  H4  UNL     1     -10.608 -26.333 -72.017  1.00  0.00     0.173 HD
HETATM   24  O2  UNL     1      -8.466 -27.504 -71.819  1.00  0.00    -0.267 OA
ENDBRANCH  13  14
ENDBRANCH  10  13
TORSDOF 2
ENDMDL