MODEL 4
REMARK VINA RESULT: -8.413742843      2.090      2.903
REMARK  4 active torsions:
REMARK  status: ('A' for Active; 'I' for Inactive)
REMARK    1  A    between atoms: C4_4  and  N1_5
REMARK       I    between atoms: N1_5  and  C5_7
REMARK    2  A    between atoms: C5_7  and  C6_9
REMARK    3  A    between atoms: C10_17  and  N2_18
REMARK    4  A    between atoms: N2_18  and  N3_20
ROOT
HETATM    1  C6  UNL     1      -6.355 -26.544 -68.916  1.00  0.00     0.106 A
HETATM    2  S1  UNL     1      -4.788 -26.132 -69.435  1.00  0.00    -0.038 SA
HETATM    3  C7  UNL     1      -4.064 -27.354 -70.371  1.00  0.00     0.237 A
HETATM    4  O2  UNL     1      -2.891 -27.234 -70.853  1.00  0.00    -0.278 OA
HETATM    5  C8  UNL     1      -4.839 -28.475 -70.568  1.00  0.00     0.115 A
HETATM    6 CL1  UNL     1      -4.056 -29.735 -71.551  1.00  0.00    -0.077 Cl
HETATM    7  C9  UNL     1      -6.107 -28.662 -70.076  1.00  0.00     0.089 A
HETATM    8 CL2  UNL     1      -6.883 -30.197 -70.475  1.00  0.00    -0.080 Cl
HETATM    9  C10 UNL     1      -6.832 -27.792 -69.313  1.00  0.00     0.095 A
ENDROOT
BRANCH   1  10
HETATM   10  C5  UNL     1      -7.164 -25.629 -68.092  1.00  0.00     0.266 C
HETATM   11  N1  UNL     1      -6.594 -25.167 -66.891  1.00  0.00    -0.307 N
ATOM     12  H1  UNL     1      -5.580 -25.062 -66.859  1.00  0.00     0.170 HD
HETATM   13  O1  UNL     1      -8.300 -25.311 -68.491  1.00  0.00    -0.267 OA
BRANCH  11  14
HETATM   14  C4  UNL     1      -7.252 -24.868 -65.838  1.00  0.00     0.124 A
HETATM   15  C3  UNL     1      -7.723 -23.582 -65.593  1.00  0.00     0.076 A
HETATM   16  C2  UNL     1      -8.392 -23.573 -64.383  1.00  0.00     0.025 A
HETATM   17  C1  UNL     1      -9.067 -22.420 -63.705  1.00  0.00     0.070 C
HETATM   18  N6  UNL     1      -8.318 -24.832 -63.919  1.00  0.00    -0.304 N
HETATM   19  N5  UNL     1      -7.641 -25.594 -64.786  1.00  0.00    -0.285 N
ATOM     20  H6  UNL     1      -8.717 -25.158 -63.039  1.00  0.00     0.186 HD
ATOM     21  H5  UNL     1      -7.449 -26.588 -64.661  1.00  0.00     0.188 HD
ENDBRANCH  11  14
ENDBRANCH   1  10
BRANCH   9  22
HETATM   22  N2  UNL     1      -8.153 -28.085 -68.849  1.00  0.00    -0.284 N
ATOM     23  H2  UNL     1      -8.965 -27.886 -69.433  1.00  0.00     0.188 HD
BRANCH  22  24
HETATM   24  N3  UNL     1      -8.292 -28.582 -67.731  1.00  0.00    -0.249 N
HETATM   25  N4  UNL     1      -8.446 -28.528 -66.514  1.00  0.00    -0.331 N
ATOM     26  H42 UNL     1      -8.470 -27.519 -66.370  1.00  0.00     0.178 HD
ATOM     27  H41 UNL     1      -8.562 -28.939 -65.588  1.00  0.00     0.178 HD
ATOM     28  H3  UNL     1      -8.262 -29.585 -67.916  1.00  0.00     0.207 HD
ENDBRANCH  22  24
ENDBRANCH   9  22
TORSDOF 4
ENDMDL