MODEL 1
REMARK VINA RESULT: -8.417003626      0.000      0.000
REMARK  4 active torsions:
REMARK  status: ('A' for Active; 'I' for Inactive)
REMARK    1  A    between atoms: C2_2  and  C5_5
REMARK    2  A    between atoms: C7_8  and  N1_9
REMARK    3  A    between atoms: N1_9  and  C8_11
REMARK    4  A    between atoms: C10_16  and  C11_17
ROOT
HETATM    1  C8  UNL     1      -9.143 -29.534 -71.638  1.00  0.00     0.232 C
HETATM    2  C9  UNL     1      -9.099 -30.933 -71.306  1.00  0.00     0.117 C
HETATM    3  N2  UNL     1      -9.080 -32.055 -71.016  1.00  0.00    -0.192 NA
HETATM    4  N3  UNL     1      -9.277 -28.694 -70.446  1.00  0.00    -0.337 N
ATOM      5  H3  UNL     1      -8.516 -28.304 -69.891  1.00  0.00     0.164 HD
HETATM    6  C10 UNL     1     -10.661 -28.525 -70.208  1.00  0.00     0.110 C
HETATM    7  N4  UNL     1     -11.322 -28.819 -71.277  1.00  0.00    -0.356 N
ATOM      8  H4  UNL     1     -12.339 -28.774 -71.350  1.00  0.00     0.162 HD
HETATM    9  C12 UNL     1     -10.456 -29.216 -72.353  1.00  0.00     0.255 C
HETATM   10  C13 UNL     1     -10.180 -28.032 -73.184  1.00  0.00     0.090 C
HETATM   11  N5  UNL     1      -9.938 -27.086 -73.836  1.00  0.00    -0.195 NA
ENDROOT
BRANCH   1  12
HETATM   12  N1  UNL     1      -8.021 -29.056 -72.362  1.00  0.00    -0.330 N
ATOM     13  H1  UNL     1      -8.195 -28.500 -73.200  1.00  0.00     0.165 HD
BRANCH  12  14
HETATM   14  C7  UNL     1      -6.771 -29.283 -72.021  1.00  0.00     0.147 A
HETATM   15  S1  UNL     1      -5.798 -30.644 -72.328  1.00  0.00    -0.064 SA
HETATM   16  C6  UNL     1      -4.364 -30.100 -71.589  1.00  0.00     0.079 A
HETATM   17  C5  UNL     1      -4.728 -28.865 -71.135  1.00  0.00     0.025 A
HETATM   18  N6  UNL     1      -5.962 -28.462 -71.363  1.00  0.00    -0.339 N
ATOM     19  H6  UNL     1      -6.285 -27.548 -71.045  1.00  0.00     0.168 HD
BRANCH  17  20
HETATM   20  C2  UNL     1      -3.763 -27.932 -70.393  1.00  0.00    -0.008 C
HETATM   21  C1  UNL     1      -4.432 -26.590 -70.198  1.00  0.00     0.021 C
HETATM   22  C3  UNL     1      -2.512 -27.767 -71.156  1.00  0.00     0.021 C
HETATM   23  C4  UNL     1      -3.423 -28.498 -69.036  1.00  0.00     0.021 C
ENDBRANCH  17  20
ENDBRANCH  12  14
ENDBRANCH   1  12
BRANCH   6  24
HETATM   24  C11 UNL     1     -11.234 -28.070 -68.911  1.00  0.00     0.244 C
HETATM   25 CL1  UNL     1     -11.978 -26.459 -69.077  1.00  0.00    -0.100 Cl
HETATM   26 CL2  UNL     1      -9.993 -27.958 -67.647  1.00  0.00    -0.100 Cl
ENDBRANCH   6  24
TORSDOF 4
ENDMDL