MODEL 3
REMARK VINA RESULT: -8.679770018      3.078      5.061
REMARK  2 active torsions:
REMARK  status: ('A' for Active; 'I' for Inactive)
REMARK    1  A    between atoms: C2_2  and  N1_3
REMARK       I    between atoms: N1_3  and  C3_5
REMARK    2  A    between atoms: C3_5  and  C4_7
ROOT
HETATM    1  C4  UNL     1      -5.449 -27.352 -69.973  1.00  0.00     0.086 A
HETATM    2  C5  UNL     1      -4.506 -28.056 -70.747  1.00  0.00     0.069 A
HETATM    3 CL1  UNL     1      -2.777 -27.749 -70.852  1.00  0.00    -0.082 Cl
HETATM    4  C6  UNL     1      -5.215 -29.043 -71.373  1.00  0.00     0.141 A
HETATM    5  N2  UNL     1      -6.529 -28.953 -71.004  1.00  0.00    -0.263 N
HETATM    6  N3  UNL     1      -7.563 -29.680 -71.358  1.00  0.00    -0.298 N
ATOM      7  H3  UNL     1      -7.377 -30.445 -72.006  1.00  0.00     0.187 HD
HETATM    8  C7  UNL     1      -8.839 -29.533 -70.964  1.00  0.00     0.038 A
HETATM    9  C8  UNL     1      -9.920 -30.426 -71.440  1.00  0.00     0.071 C
HETATM   10  C9  UNL     1      -9.017 -28.477 -70.087  1.00  0.00     0.055 A
HETATM   11  C10 UNL     1     -10.254 -28.170 -69.590  1.00  0.00     0.116 A
HETATM   12  S1  UNL     1     -11.501 -29.091 -70.052  1.00  0.00    -0.059 SA
HETATM   13  N4  UNL     1     -10.466 -27.124 -68.726  1.00  0.00    -0.336 N
ATOM     14  H4  UNL     1     -11.403 -26.926 -68.376  1.00  0.00     0.168 HD
HETATM   15  C11 UNL     1      -9.428 -26.368 -68.350  1.00  0.00     0.078 A
HETATM   16  C12 UNL     1      -9.644 -25.225 -67.410  1.00  0.00     0.089 C
HETATM   17  N5  UNL     1      -8.232 -26.678 -68.840  1.00  0.00    -0.343 N
ATOM     18  H5  UNL     1      -7.450 -26.094 -68.545  1.00  0.00     0.167 HD
HETATM   19  C13 UNL     1      -7.953 -27.678 -69.680  1.00  0.00     0.079 A
HETATM   20  C14 UNL     1      -6.684 -27.926 -70.150  1.00  0.00     0.101 A
ENDROOT
BRANCH   1  21
HETATM   21  C3  UNL     1      -5.145 -26.186 -69.174  1.00  0.00     0.255 C
HETATM   22  N1  UNL     1      -4.260 -26.310 -68.070  1.00  0.00    -0.357 N
ATOM     23  H1  UNL     1      -3.850 -27.220 -67.860  1.00  0.00     0.162 HD
HETATM   24  O1  UNL     1      -5.651 -25.080 -69.456  1.00  0.00    -0.268 OA
BRANCH  22  25
HETATM   25  C2  UNL     1      -3.926 -25.165 -67.228  1.00  0.00     0.118 C
HETATM   26  C1  UNL     1      -2.711 -25.397 -66.392  1.00  0.00     0.026 C
ENDBRANCH  22  25
ENDBRANCH   1  21
TORSDOF 2
ENDMDL