MODEL 3
REMARK VINA RESULT: -3.151865542      2.955      7.523
REMARK  4 active torsions:
REMARK  status: ('A' for Active; 'I' for Inactive)
REMARK    1  A    between atoms: C3_3  and  O1_4
REMARK    2  A    between atoms: O1_4  and  C4_5
REMARK    3  A    between atoms: C9_11  and  O3_12
REMARK    4  A    between atoms: C10_14  and  C11_15
ROOT
HETATM    1  C1  UNL     1       9.587  -1.455  29.302  1.00  0.00     0.022 C
HETATM    2  C2  UNL     1       9.951  -0.425  28.583  1.00  0.00    -0.029 C
HETATM    3  C3  UNL     1       9.086   0.690  28.207  1.00  0.00     0.081 C
HETATM    4  C6  UNL     1       9.844   1.767  27.985  1.00  0.00     0.016 C
HETATM    5  C7  UNL     1      11.237   1.431  28.201  1.00  0.00     0.022 C
HETATM    6  C8  UNL     1      12.219   1.919  27.198  1.00  0.00     0.041 C
HETATM    7  C9  UNL     1      13.561   1.324  27.377  1.00  0.00     0.123 C
HETATM    8  C10 UNL     1      13.681  -0.017  27.973  1.00  0.00     0.025 C
HETATM    9  C20 UNL     1      12.458  -0.556  28.684  1.00  0.00     0.018 C
HETATM   10  C21 UNL     1      11.237  -0.096  27.981  1.00  0.00     0.029 C
ENDROOT
BRANCH   8  11
HETATM   11  C11 UNL     1      14.893  -0.146  28.926  1.00  0.00    -0.008 C
HETATM   12  C12 UNL     1      16.119   0.385  28.272  1.00  0.00     0.018 C
HETATM   13  C13 UNL     1      15.152  -1.598  29.315  1.00  0.00     0.142 C
HETATM   14 CL1  UNL     1      16.466  -2.402  28.470  1.00  0.00    -0.120 Cl
HETATM   15  C14 UNL     1      15.479  -1.121  30.714  1.00  0.00     0.169 C
HETATM   16 CL2  UNL     1      14.810  -2.083  32.020  1.00  0.00    -0.085 Cl
HETATM   17  O4  UNL     1      16.772  -0.600  30.902  1.00  0.00    -0.291 OA
HETATM   18  C19 UNL     1      14.615   0.114  30.344  1.00  0.00     0.066 C
HETATM   19  C15 UNL     1      16.735   0.742  31.236  1.00  0.00     0.269 C
HETATM   20  O5  UNL     1      17.670   1.496  31.535  1.00  0.00    -0.264 OA
HETATM   21  C16 UNL     1      15.280   1.131  31.160  1.00  0.00     0.049 C
HETATM   22  C17 UNL     1      15.057   2.563  30.857  1.00  0.00     0.026 C
HETATM   23  C18 UNL     1      14.783   0.916  32.606  1.00  0.00     0.026 C
ENDBRANCH   8  11
BRANCH   7  24
HETATM   24  O3  UNL     1      14.120   1.277  26.066  1.00  0.00    -0.395 OA
ATOM     25  H3  UNL     1      14.576   0.444  26.024  1.00  0.00     0.210 HD
ENDBRANCH   7  24
BRANCH   3  26
HETATM   26  O1  UNL     1       7.696   0.719  28.076  1.00  0.00    -0.279 OA
BRANCH  26  27
HETATM   27  C4  UNL     1       6.865   1.108  29.116  1.00  0.00     0.260 C
HETATM   28  C5  UNL     1       6.430   2.507  29.358  1.00  0.00     0.126 C
HETATM   29  O2  UNL     1       6.458   0.214  29.898  1.00  0.00    -0.265 OA
ENDBRANCH  26  27
ENDBRANCH   3  26
TORSDOF 4
ENDMDL