MODEL 1
REMARK VINA RESULT: -4.382876238      0.000      0.000
REMARK  4 active torsions:
REMARK  status: ('A' for Active; 'I' for Inactive)
REMARK    1  A    between atoms: C7_8  and  C8_9
REMARK    2  A    between atoms: N1_10  and  O2_12
REMARK    3  A    between atoms: O2_12  and  C9_13
REMARK    4  A    between atoms: C19_28  and  O4_29
ROOT
HETATM    1  C1  UNL     1      10.096   1.147  30.086  1.00  0.00     0.018 C
HETATM    2  C2  UNL     1      10.073   0.922  28.619  1.00  0.00    -0.011 C
HETATM    3  C3  UNL     1      10.404   2.092  27.778  1.00  0.00     0.012 C
HETATM    4  C4  UNL     1      11.791   2.000  27.124  1.00  0.00     0.009 C
HETATM    5  C5  UNL     1      12.703   1.393  28.142  1.00  0.00     0.029 C
HETATM    6  C6  UNL     1      12.344  -0.097  28.213  1.00  0.00     0.132 C
HETATM    7  O1  UNL     1      13.052  -0.601  29.265  1.00  0.00    -0.373 OA
HETATM    8  C7  UNL     1      14.355  -0.821  28.853  1.00  0.00     0.176 C
HETATM    9  C10 UNL     1      14.975   0.296  28.075  1.00  0.00     0.031 C
HETATM   10  C11 UNL     1      16.307   0.619  28.775  1.00  0.00     0.025 C
HETATM   11  C12 UNL     1      15.354  -0.116  26.708  1.00  0.00     0.073 C
HETATM   12  N2  UNL     1      15.081   0.771  25.878  1.00  0.00    -0.381 N
ATOM     13  H2  UNL     1      15.263   0.684  24.878  1.00  0.00     0.164 HD
HETATM   14  C13 UNL     1      14.492   1.908  26.467  1.00  0.00     0.071 C
HETATM   15  C14 UNL     1      14.151   1.500  27.874  1.00  0.00     0.009 C
HETATM   16  C15 UNL     1      14.730   2.606  28.777  1.00  0.00     0.023 C
HETATM   17  C16 UNL     1      10.909  -0.281  28.184  1.00  0.00     0.027 C
HETATM   18  C17 UNL     1      10.312  -1.334  29.058  1.00  0.00     0.026 C
HETATM   19  C18 UNL     1       8.823  -1.080  28.850  1.00  0.00     0.087 C
HETATM   20 BR1  UNL     1       8.228  -2.323  27.484  1.00  0.00    -0.088 Br
HETATM   21  C19 UNL     1       8.696   0.321  28.284  1.00  0.00     0.141 C
ENDROOT
BRANCH   8  22
HETATM   22  C8  UNL     1      15.192  -1.249  30.015  1.00  0.00     0.120 C
HETATM   23  N1  UNL     1      14.800  -1.103  31.234  1.00  0.00    -0.268 N
ATOM     24  H1  UNL     1      13.887  -0.682  31.406  1.00  0.00     0.193 HD
BRANCH  23  25
HETATM   25  O2  UNL     1      15.545  -1.485  32.295  1.00  0.00    -0.172 OA
BRANCH  25  26
HETATM   26  C9  UNL     1      16.861  -1.112  32.511  1.00  0.00     0.467 C
HETATM   27  O3  UNL     1      17.090  -0.038  33.103  1.00  0.00    -0.222 OA
HETATM   28  F1  UNL     1      17.882  -1.887  32.096  1.00  0.00    -0.134 F
ENDBRANCH  25  26
ENDBRANCH  23  25
ENDBRANCH   8  22
BRANCH  21  29
HETATM   29  O4  UNL     1       8.582   0.342  26.916  1.00  0.00    -0.394 OA
ATOM     30  H4  UNL     1       7.781  -0.122  26.704  1.00  0.00     0.210 HD
ENDBRANCH  21  29
TORSDOF 4
ENDMDL