MODEL 1
REMARK VINA RESULT: 0.196221768      0.000      0.000
REMARK  4 active torsions:
REMARK  status: ('A' for Active; 'I' for Inactive)
REMARK    1  A    between atoms: C2_2  and  O2_4
REMARK    2  A    between atoms: O2_4  and  C3_5
REMARK    3  A    between atoms: C7_11  and  O3_12
REMARK    4  A    between atoms: C14_21  and  C15_22
ROOT
HETATM    1  C3  UNL     1       9.628  -0.774  27.811  1.00  0.00     0.147 C
HETATM    2  C4  UNL     1       8.693   0.391  27.723  1.00  0.00     0.093 C
HETATM    3  C5  UNL     1       9.469   1.535  27.108  1.00  0.00     0.184 C
HETATM    4  F1  UNL     1       9.487   1.306  25.725  1.00  0.00    -0.225 F
HETATM    5 CL1  UNL     1       8.509   3.041  27.316  1.00  0.00    -0.082 Cl
HETATM    6  C6  UNL     1      10.853   1.676  27.559  1.00  0.00     0.099 C
HETATM    7  C7  UNL     1      11.214   0.883  28.815  1.00  0.00     0.076 C
HETATM    8  C8  UNL     1      12.598   1.167  29.230  1.00  0.00     0.030 C
HETATM    9  C9  UNL     1      12.651   1.868  30.602  1.00  0.00     0.011 C
HETATM   10  C10 UNL     1      13.963   2.557  30.717  1.00  0.00     0.039 C
HETATM   11  C11 UNL     1      15.054   1.516  30.656  1.00  0.00     0.068 C
HETATM   12  C12 UNL     1      16.124   1.982  29.715  1.00  0.00     0.047 C
HETATM   13  O4  UNL     1      15.619   1.456  31.947  1.00  0.00    -0.351 OA
HETATM   14  C13 UNL     1      16.283   0.332  32.390  1.00  0.00     0.146 C
HETATM   15  C14 UNL     1      16.304  -0.774  31.671  1.00  0.00     0.002 C
HETATM   16  C16 UNL     1      15.610  -0.863  30.344  1.00  0.00     0.052 C
HETATM   17  C17 UNL     1      14.519   0.155  30.347  1.00  0.00     0.033 C
HETATM   18  C18 UNL     1      13.611   0.082  29.138  1.00  0.00    -0.031 C
HETATM   19  C19 UNL     1      14.408   0.192  27.835  1.00  0.00     0.016 C
HETATM   20  C20 UNL     1      13.051  -1.316  29.140  1.00  0.00     0.011 C
HETATM   21  C21 UNL     1      11.929  -1.443  28.180  1.00  0.00     0.016 C
HETATM   22  C22 UNL     1      10.817  -0.552  28.694  1.00  0.00     0.015 C
HETATM   23  C23 UNL     1      10.445  -1.104  30.075  1.00  0.00     0.021 C
ENDROOT
BRANCH   1  24
HETATM   24  O2  UNL     1       9.022  -1.981  28.183  1.00  0.00    -0.315 OA
BRANCH  24  25
HETATM   25  C2  UNL     1       7.750  -2.364  27.919  1.00  0.00     0.255 C
HETATM   26  C1  UNL     1       6.652  -2.001  28.839  1.00  0.00     0.126 C
HETATM   27  O1  UNL     1       7.507  -3.017  26.904  1.00  0.00    -0.266 OA
ENDBRANCH  24  25
ENDBRANCH   1  24
BRANCH   7  28
HETATM   28  O3  UNL     1      10.353   1.414  29.814  1.00  0.00    -0.388 OA
ATOM     29  H3  UNL     1      10.851   2.131  30.188  1.00  0.00     0.210 HD
ENDBRANCH   7  28
BRANCH  15  30
HETATM   30  C15 UNL     1      17.028  -1.953  32.185  1.00  0.00     0.267 C
HETATM   31  O5  UNL     1      16.440  -2.807  32.854  1.00  0.00    -0.302 OA
ENDBRANCH  15  30
TORSDOF 4
ENDMDL