MODEL 5
REMARK VINA RESULT: 4.894086557      1.701      4.650
REMARK  4 active torsions:
REMARK  status: ('A' for Active; 'I' for Inactive)
REMARK    1  A    between atoms: C2_2  and  O1_3
REMARK    2  A    between atoms: O1_3  and  C3_4
REMARK    3  A    between atoms: C3_4  and  C4_6
REMARK    4  A    between atoms: C19_25  and  O5_27
ROOT
HETATM    1  C4  UNL     1      13.930   1.464  28.732  1.00  0.00     0.062 C
HETATM    2  C5  UNL     1      13.988   2.695  29.686  1.00  0.00     0.021 C
HETATM    3  C6  UNL     1      14.581   2.236  30.968  1.00  0.00     0.009 C
HETATM    4  C7  UNL     1      15.396   1.138  30.513  1.00  0.00     0.029 C
HETATM    5  C8  UNL     1      14.882   0.552  29.220  1.00  0.00     0.050 C
HETATM    6  C9  UNL     1      16.130  -0.085  28.882  1.00  0.00     0.121 C
HETATM    7 CL1  UNL     1      16.112  -1.336  27.624  1.00  0.00    -0.101 Cl
HETATM    8 CL2  UNL     1      17.597   0.826  28.734  1.00  0.00    -0.101 Cl
HETATM    9  C10 UNL     1      16.228  -0.927  30.215  1.00  0.00     0.081 C
HETATM   10  C11 UNL     1      15.429  -0.152  31.250  1.00  0.00     0.074 C
HETATM   11  C12 UNL     1      16.225   0.043  32.525  1.00  0.00     0.047 C
HETATM   12  O3  UNL     1      14.121  -0.523  31.470  1.00  0.00    -0.310 OA
HETATM   13  C13 UNL     1      12.809  -0.222  31.149  1.00  0.00     0.264 C
HETATM   14  O4  UNL     1      12.091  -0.194  32.163  1.00  0.00    -0.265 OA
HETATM   15  C14 UNL     1      12.155   0.049  29.916  1.00  0.00     0.094 C
HETATM   16  C15 UNL     1      10.670   0.274  30.249  1.00  0.00     0.015 C
HETATM   17  C16 UNL     1       9.804  -0.860  29.747  1.00  0.00     0.001 C
HETATM   18  C17 UNL     1       9.663  -0.526  28.254  1.00  0.00     0.003 C
HETATM   19  C18 UNL     1      10.974  -0.688  27.594  1.00  0.00     0.038 C
HETATM   20  C19 UNL     1      11.897   0.487  27.548  1.00  0.00     0.060 C
HETATM   21  C20 UNL     1      11.135   1.559  26.781  1.00  0.00     0.046 C
HETATM   22  C21 UNL     1      12.496   0.976  28.842  1.00  0.00     0.052 C
ENDROOT
BRANCH   1  23
HETATM   23  C3  UNL     1      14.298   2.068  27.430  1.00  0.00     0.268 C
HETATM   24  O2  UNL     1      13.703   3.110  27.047  1.00  0.00    -0.264 OA
BRANCH  23  25
HETATM   25  O1  UNL     1      15.250   1.608  26.548  1.00  0.00    -0.321 OA
BRANCH  25  26
HETATM   26  C2  UNL     1      15.212   1.912  25.146  1.00  0.00     0.174 C
HETATM   27  C1  UNL     1      16.483   2.566  24.723  1.00  0.00     0.034 C
ENDBRANCH  25  26
ENDBRANCH  23  25
ENDBRANCH   1  23
BRANCH  20  28
HETATM   28  O5  UNL     1      12.876   0.025  26.642  1.00  0.00    -0.390 OA
ATOM     29  H5  UNL     1      12.892   0.738  26.014  1.00  0.00     0.210 HD
ENDBRANCH  20  28
TORSDOF 4
ENDMDL