MODEL 1
REMARK VINA RESULT: 5.944260045      0.000      0.000
REMARK  3 active torsions:
REMARK  status: ('A' for Active; 'I' for Inactive)
REMARK    1  A    between atoms: C6_10  and  C7_11
REMARK       I    between atoms: C7_11  and  N3_13
REMARK    2  A    between atoms: C12_18  and  O2_19
REMARK    3  A    between atoms: C14_23  and  C15_24
ROOT
HETATM    1  C7  UNL     1      12.534   1.724  28.198  1.00  0.00     0.272 C
HETATM    2  O1  UNL     1      12.933   2.602  27.361  1.00  0.00    -0.266 OA
HETATM    3  N3  UNL     1      13.497   1.241  29.093  1.00  0.00    -0.342 N
HETATM    4  C8  UNL     1      14.846   1.767  29.037  1.00  0.00     0.131 C
HETATM    5  C9  UNL     1      15.391   1.960  30.451  1.00  0.00     0.061 C
HETATM    6  C10 UNL     1      15.410   0.612  31.059  1.00  0.00    -0.021 A
HETATM    7  C11 UNL     1      14.348  -0.218  30.864  1.00  0.00     0.019 A
HETATM    8  C12 UNL     1      14.656  -1.384  31.537  1.00  0.00     0.150 A
HETATM    9  N4  UNL     1      15.885  -1.245  32.122  1.00  0.00    -0.335 N
HETATM   10  C13 UNL     1      16.449  -2.330  32.882  1.00  0.00     0.158 C
HETATM   11  C14 UNL     1      16.354  -0.049  31.845  1.00  0.00     0.024 A
HETATM   12  C18 UNL     1      13.184   0.231  30.058  1.00  0.00     0.169 C
ENDROOT
BRANCH   1  13
HETATM   13  C6  UNL     1      11.139   1.282  28.186  1.00  0.00     0.124 A
HETATM   14  N2  UNL     1      10.034   2.040  28.299  1.00  0.00    -0.288 N
HETATM   15  N1  UNL     1       8.954   1.325  28.244  1.00  0.00    -0.255 N
ATOM     16  H2  UNL     1      10.044   3.053  28.413  1.00  0.00     0.188 HD
HETATM   17  C4  UNL     1       7.644   1.676  28.315  1.00  0.00     0.070 A
HETATM   18  C21 UNL     1       9.260   0.025  28.089  1.00  0.00     0.087 A
HETATM   19  C3  UNL     1       6.622   0.763  28.233  1.00  0.00     0.148 A
HETATM   20  C5  UNL     1       7.309   3.117  28.490  1.00  0.00     0.074 C
HETATM   21  C2  UNL     1       6.916  -0.569  28.075  1.00  0.00     0.003 A
HETATM   22  F1  UNL     1       5.318   1.146  28.307  1.00  0.00    -0.203 F
HETATM   23  C1  UNL     1       5.839  -1.609  27.981  1.00  0.00     0.053 C
HETATM   24  C22 UNL     1       8.257  -0.917  28.004  1.00  0.00     0.072 A
HETATM   25 CL1  UNL     1       8.652  -2.586  27.800  1.00  0.00    -0.081 Cl
HETATM   26  C19 UNL     1      10.668  -0.005  28.052  1.00  0.00     0.002 A
HETATM   27  C20 UNL     1      11.394  -1.269  27.897  1.00  0.00     0.053 C
ENDBRANCH   1  13
BRANCH   8  28
HETATM   28  O2  UNL     1      13.820  -2.480  31.576  1.00  0.00    -0.345 OA
ATOM     29  H2  UNL     1      14.115  -3.368  31.416  1.00  0.00     0.219 HD
ENDBRANCH   8  28
BRANCH  11  30
HETATM   30  C15 UNL     1      17.607   0.586  32.221  1.00  0.00     0.028 C
HETATM   31  C16 UNL     1      18.573  -0.208  33.040  1.00  0.00     0.016 C
HETATM   32  C17 UNL     1      18.350   1.066  30.964  1.00  0.00     0.016 C
ENDBRANCH  11  30
TORSDOF 3
ENDMDL