MODEL 3
REMARK VINA RESULT: 3.334229985      2.212      4.243
REMARK  4 active torsions:
REMARK  status: ('A' for Active; 'I' for Inactive)
REMARK    1  A    between atoms: O1_2  and  C2_3
REMARK    2  A    between atoms: C2_3  and  C3_5
REMARK    3  A    between atoms: C10_13  and  C11_14
REMARK    4  A    between atoms: C17_21  and  O4_22
ROOT
HETATM    1  C3  UNL     1       9.593   0.510  27.741  1.00  0.00     0.019 C
HETATM    2  C4  UNL     1       8.727  -0.455  28.123  1.00  0.00    -0.013 C
HETATM    3  C5  UNL     1       9.089  -1.624  28.933  1.00  0.00     0.029 C
HETATM    4  C6  UNL     1      10.590  -1.842  28.760  1.00  0.00     0.021 C
HETATM    5  C7  UNL     1      11.343  -0.590  29.096  1.00  0.00     0.026 C
HETATM    6  C8  UNL     1      11.039  -0.251  30.516  1.00  0.00     0.024 C
HETATM    7  C9  UNL     1      12.804  -0.840  28.865  1.00  0.00     0.155 C
HETATM    8  O3  UNL     1      12.882  -1.604  27.891  1.00  0.00    -0.295 OA
HETATM    9  C10 UNL     1      14.071  -0.443  29.448  1.00  0.00     0.103 C
HETATM   10  C15 UNL     1      14.121   1.042  29.806  1.00  0.00     0.060 C
HETATM   11  C16 UNL     1      14.208   1.721  28.505  1.00  0.00     0.092 C
HETATM   12 CL1  UNL     1      15.012   3.322  28.812  1.00  0.00    -0.114 Cl
HETATM   13  C17 UNL     1      12.957   1.988  27.754  1.00  0.00     0.144 C
HETATM   14  C18 UNL     1      11.659   1.783  28.475  1.00  0.00     0.044 C
HETATM   15  C19 UNL     1      10.987   0.490  28.094  1.00  0.00     0.042 C
HETATM   16  C20 UNL     1      15.211   0.893  27.760  1.00  0.00     0.119 C
HETATM   17  C21 UNL     1      14.978   0.869  26.270  1.00  0.00     0.043 C
HETATM   18 CL2  UNL     1      16.830   1.570  28.038  1.00  0.00    -0.109 Cl
HETATM   19  C22 UNL     1      15.134  -0.438  28.376  1.00  0.00     0.171 C
HETATM   20  O5  UNL     1      15.831  -1.372  28.053  1.00  0.00    -0.294 OA
ENDROOT
BRANCH   1  21
HETATM   21  C2  UNL     1       8.942   1.557  26.930  1.00  0.00     0.289 C
HETATM   22  O2  UNL     1       8.071   2.270  27.444  1.00  0.00    -0.260 OA
BRANCH  21  23
HETATM   23  O1  UNL     1       9.244   1.805  25.602  1.00  0.00    -0.323 OA
HETATM   24  C1  UNL     1      10.510   2.270  25.173  1.00  0.00     0.213 C
ENDBRANCH  21  23
ENDBRANCH   1  21
BRANCH  13  25
HETATM   25  O4  UNL     1      13.049   3.256  27.184  1.00  0.00    -0.394 OA
ATOM     26  H4  UNL     1      12.208   3.474  26.801  1.00  0.00     0.210 HD
ENDBRANCH  13  25
BRANCH   9  27
HETATM   27  C11 UNL     1      14.488  -1.268  30.573  1.00  0.00     0.000 C
HETATM   28  C12 UNL     1      15.430  -1.145  31.462  1.00  0.00    -0.090 C
HETATM   29  C13 UNL     1      16.427  -0.081  31.626  1.00  0.00     0.042 C
HETATM   30  C14 UNL     1      15.530  -2.267  32.498  1.00  0.00     0.042 C
ENDBRANCH   9  27
TORSDOF 4
ENDMDL