MODEL 2
REMARK VINA RESULT: 4.443443596      2.582      3.687
REMARK  4 active torsions:
REMARK  status: ('A' for Active; 'I' for Inactive)
REMARK    1  A    between atoms: C2_2  and  O2_4
REMARK    2  A    between atoms: O2_4  and  C3_5
REMARK    3  A    between atoms: C3_5  and  C4_6
REMARK    4  A    between atoms: C4_6  and  O3_7
ROOT
HETATM    1  C4  UNL     1       8.415   2.102  27.370  1.00  0.00     0.197 C
HETATM    2  O4  UNL     1       9.393   2.235  28.359  1.00  0.00    -0.307 OA
HETATM    3  C5  UNL     1      10.244   1.497  27.527  1.00  0.00     0.245 C
HETATM    4  F1  UNL     1      10.842   2.294  26.537  1.00  0.00    -0.205 F
HETATM    5  C6  UNL     1      11.227   0.624  28.201  1.00  0.00     0.016 A
HETATM    6  C7  UNL     1      12.427   1.142  28.618  1.00  0.00     0.023 A
HETATM    7  C8  UNL     1      13.417   0.416  29.252  1.00  0.00    -0.022 A
HETATM    8  C9  UNL     1      13.171  -0.930  29.480  1.00  0.00     0.081 A
HETATM    9  C10 UNL     1      11.943  -1.454  29.051  1.00  0.00    -0.021 A
HETATM   10  C11 UNL     1      11.599  -2.917  29.231  1.00  0.00     0.052 C
HETATM   11  C12 UNL     1      10.975  -0.702  28.421  1.00  0.00    -0.037 A
HETATM   12  C13 UNL     1       9.693  -1.351  28.004  1.00  0.00     0.040 C
HETATM   13  C14 UNL     1       8.619  -0.272  28.053  1.00  0.00     0.021 C
HETATM   14  C15 UNL     1       9.014   0.768  27.062  1.00  0.00     0.123 C
HETATM   15  O5  UNL     1      14.083  -1.757  30.109  1.00  0.00    -0.350 OA
HETATM   16  C16 UNL     1      14.592  -1.703  31.429  1.00  0.00     0.175 C
HETATM   17  C17 UNL     1      16.087  -1.898  31.377  1.00  0.00     0.027 C
HETATM   18  C18 UNL     1      16.787  -1.155  32.497  1.00  0.00     0.002 C
HETATM   19  C19 UNL     1      17.352   0.174  32.045  1.00  0.00     0.000 C
HETATM   20  C20 UNL     1      16.390   1.248  32.504  1.00  0.00     0.001 C
HETATM   21  C21 UNL     1      16.035   2.150  31.346  1.00  0.00     0.020 C
HETATM   22  C22 UNL     1      14.623   1.949  30.847  1.00  0.00     0.086 C
HETATM   23 CL1  UNL     1      13.932   3.571  30.543  1.00  0.00    -0.125 Cl
HETATM   24  C23 UNL     1      14.681   1.128  29.610  1.00  0.00     0.061 C
ENDROOT
BRANCH   1  25
HETATM   25  C3  UNL     1       6.994   2.160  27.804  1.00  0.00     0.247 C
BRANCH  25  26
HETATM   26  O2  UNL     1       6.699   2.993  28.872  1.00  0.00    -0.316 OA
BRANCH  26  27
HETATM   27  C2  UNL     1       6.434   2.454  30.110  1.00  0.00     0.254 C
HETATM   28  C1  UNL     1       6.571   0.975  30.362  1.00  0.00     0.126 C
HETATM   29  O1  UNL     1       6.073   3.220  31.037  1.00  0.00    -0.266 OA
ENDBRANCH  26  27
ENDBRANCH  25  26
ENDBRANCH   1  25
BRANCH   1  30
HETATM   30  O3  UNL     1       8.588   2.973  26.276  1.00  0.00    -0.363 OA
ATOM     31  H3  UNL     1       9.036   2.504  25.583  1.00  0.00     0.213 HD
ENDBRANCH   1  30
TORSDOF 4
ENDMDL