MODEL 4
REMARK VINA RESULT: 3.030296437      2.401      6.369
REMARK  3 active torsions:
REMARK  status: ('A' for Active; 'I' for Inactive)
REMARK    1  A    between atoms: C2_2  and  C4_4
REMARK    2  A    between atoms: C17_21  and  O4_22
REMARK    3  A    between atoms: C18_24  and  C19_25
ROOT
HETATM    1  C4  UNL     1       8.809  -0.332  27.987  1.00  0.00     0.264 C
HETATM    2  O1  UNL     1       9.533  -0.314  29.178  1.00  0.00    -0.352 OA
HETATM    3  C5  UNL     1      10.764   0.081  28.761  1.00  0.00     0.164 C
HETATM    4  C6  UNL     1      11.695   0.654  29.773  1.00  0.00     0.026 C
HETATM    5  C7  UNL     1      11.762  -0.198  30.947  1.00  0.00     0.012 C
HETATM    6  C8  UNL     1      13.049  -0.486  31.577  1.00  0.00     0.038 C
HETATM    7  C9  UNL     1      14.245   0.071  30.901  1.00  0.00    -0.038 C
HETATM    8  C10 UNL     1      15.410  -0.347  31.362  1.00  0.00     0.083 C
HETATM    9 CL1  UNL     1      15.460  -1.509  32.711  1.00  0.00    -0.080 Cl
HETATM   10  C11 UNL     1      16.708   0.070  30.852  1.00  0.00     0.178 C
HETATM   11  O2  UNL     1      17.766  -0.036  31.521  1.00  0.00    -0.291 OA
HETATM   12  C12 UNL     1      16.754   0.637  29.494  1.00  0.00     0.164 C
HETATM   13  C13 UNL     1      15.384   0.823  28.924  1.00  0.00     0.147 C
HETATM   14  O3  UNL     1      15.342   0.784  27.706  1.00  0.00    -0.296 OA
HETATM   15  C14 UNL     1      14.186   1.036  29.786  1.00  0.00     0.049 C
HETATM   16  C15 UNL     1      14.380   2.410  30.407  1.00  0.00     0.029 C
HETATM   17  C16 UNL     1      12.952   0.890  28.968  1.00  0.00     0.041 C
HETATM   18  C17 UNL     1      12.667   2.075  28.083  1.00  0.00     0.131 C
HETATM   19  C18 UNL     1      11.438   1.968  27.216  1.00  0.00     0.055 C
HETATM   20  C22 UNL     1      10.336   1.229  27.848  1.00  0.00     0.093 C
HETATM   21  C23 UNL     1       9.489   2.151  28.743  1.00  0.00     0.049 C
HETATM   22  O5  UNL     1       9.453   0.526  27.094  1.00  0.00    -0.347 OA
ENDROOT
BRANCH   1  23
HETATM   23  C2  UNL     1       8.763  -1.697  27.351  1.00  0.00     0.033 C
HETATM   24  C1  UNL     1       9.905  -2.576  27.798  1.00  0.00     0.014 C
HETATM   25  C3  UNL     1       7.435  -2.324  27.779  1.00  0.00     0.014 C
ENDBRANCH   1  23
BRANCH  19  26
HETATM   26  C19 UNL     1      11.741   1.681  25.784  1.00  0.00    -0.013 C
HETATM   27  C20 UNL     1      13.162   2.112  25.472  1.00  0.00     0.010 C
HETATM   28  C21 UNL     1      10.828   2.280  24.764  1.00  0.00     0.010 C
ENDBRANCH  19  26
BRANCH  18  29
HETATM   29  O4  UNL     1      12.388   3.130  28.995  1.00  0.00    -0.395 OA
ATOM     30  H4  UNL     1      12.359   3.908  28.449  1.00  0.00     0.210 HD
ENDBRANCH  18  29
TORSDOF 3
ENDMDL