MODEL 4
REMARK VINA RESULT: -7.274370655      2.764      8.260
REMARK  16 active torsions:
REMARK  status: ('A' for Active; 'I' for Inactive)
REMARK    1  A    between atoms: C4_4  and  C5_5
REMARK    2  A    between atoms: C6_6  and  C7_7
REMARK    3  A    between atoms: C7_7  and  O2_9
REMARK    4  A    between atoms: O2_9  and  C8_10
REMARK    5  A    between atoms: C9_11  and  O3_12
REMARK    6  A    between atoms: C10_14  and  C11_15
REMARK    7  A    between atoms: C11_15  and  O4_16
REMARK    8  A    between atoms: C12_19  and  S1_20
REMARK    9  A    between atoms: S1_20  and  C13_21
REMARK   10  A    between atoms: C16_24  and  O6_25
REMARK   11  A    between atoms: C16_24  and  C17_27
REMARK   12  A    between atoms: C19_31  and  C20_32
REMARK   13  A    between atoms: C20_32  and  C21_33
REMARK   14  A    between atoms: C21_33  and  O9_34
REMARK   15  A    between atoms: C21_33  and  C22_36
REMARK   16  A    between atoms: C25_39  and  O10_40
ROOT
HETATM    1  C1  UNL     1      -4.004  -7.945  12.930  1.00  0.00     0.027 C
HETATM    2  C2  UNL     1      -4.061  -7.709  11.748  1.00  0.00    -0.026 C
HETATM    3  C3  UNL     1      -4.117  -7.431  10.365  1.00  0.00    -0.011 C
HETATM    4  C4  UNL     1      -4.184  -7.181   9.166  1.00  0.00    -0.064 C
ENDROOT
BRANCH   4   5
HETATM    5  C5  UNL     1      -4.287  -6.879   7.774  1.00  0.00     0.071 C
HETATM    6  C6  UNL     1      -4.140  -5.678   7.311  1.00  0.00     0.091 C
BRANCH   6   7
HETATM    7  C7  UNL     1      -3.857  -4.507   8.146  1.00  0.00     0.284 C
HETATM    8  O1  UNL     1      -3.012  -4.505   9.077  1.00  0.00    -0.260 OA
BRANCH   7   9
HETATM    9  O2  UNL     1      -4.522  -3.298   7.953  1.00  0.00    -0.307 OA
BRANCH   9  10
HETATM   10  C8  UNL     1      -4.043  -2.247   7.141  1.00  0.00     0.195 C
HETATM   11  C9  UNL     1      -2.821  -1.589   7.711  1.00  0.00     0.181 C
HETATM   12  C10 UNL     1      -2.540  -0.280   7.058  1.00  0.00     0.178 C
HETATM   13  O5  UNL     1      -3.652   0.560   7.002  1.00  0.00    -0.363 OA
HETATM   14  C12 UNL     1      -4.608  -0.072   6.248  1.00  0.00     0.215 C
HETATM   15  C25 UNL     1      -5.151  -1.195   7.129  1.00  0.00     0.192 C
BRANCH  11  16
HETATM   16  O3  UNL     1      -2.921  -1.514   9.090  1.00  0.00    -0.390 OA
ATOM     17  H3  UNL     1      -2.069  -1.647   9.487  1.00  0.00     0.210 HD
ENDBRANCH  11  16
BRANCH  12  18
HETATM   18  C11 UNL     1      -1.391   0.450   7.674  1.00  0.00     0.198 C
BRANCH  18  19
HETATM   19  O4  UNL     1      -0.511  -0.480   8.253  1.00  0.00    -0.398 OA
ATOM     20  H4  UNL     1      -0.049  -0.065   8.973  1.00  0.00     0.209 HD
ENDBRANCH  18  19
ENDBRANCH  12  18
BRANCH  14  21
HETATM   21  S1  UNL     1      -5.895   0.948   5.569  1.00  0.00    -0.126 SA
BRANCH  21  22
HETATM   22  C13 UNL     1      -6.654   0.158   4.125  1.00  0.00     0.076 C
HETATM   23  C14 UNL     1      -7.833  -0.576   4.582  1.00  0.00    -0.012 C
HETATM   24  C15 UNL     1      -8.306  -1.577   3.897  1.00  0.00     0.019 C
HETATM   25  C16 UNL     1      -7.675  -2.000   2.648  1.00  0.00     0.163 C
HETATM   26  C18 UNL     1      -6.203  -1.732   2.524  1.00  0.00     0.059 C
HETATM   27  C19 UNL     1      -5.666  -0.674   3.367  1.00  0.00     0.009 C
BRANCH  25  28
HETATM   28  O6  UNL     1      -8.390  -1.354   1.612  1.00  0.00    -0.375 OA
ATOM     29  H6  UNL     1      -7.789  -1.292   0.879  1.00  0.00     0.211 HD
ENDBRANCH  25  28
BRANCH  25  30
HETATM   30  C17 UNL     1      -7.949  -3.471   2.450  1.00  0.00     0.213 C
HETATM   31  O7  UNL     1      -7.501  -4.303   3.282  1.00  0.00    -0.645 OA
HETATM   32  O8  UNL     1      -8.678  -3.956   1.382  1.00  0.00    -0.645 OA
ENDBRANCH  25  30
BRANCH  27  33
HETATM   33  C20 UNL     1      -4.671   0.224   2.702  1.00  0.00     0.042 C
BRANCH  33  34
HETATM   34  C21 UNL     1      -4.369  -0.058   1.274  1.00  0.00     0.141 C
BRANCH  34  35
HETATM   35  O9  UNL     1      -3.026  -0.099   0.944  1.00  0.00    -0.392 OA
ATOM     36  H9  UNL     1      -2.497   0.610   1.290  1.00  0.00     0.210 HD
ENDBRANCH  34  35
BRANCH  34  37
HETATM   37  C22 UNL     1      -4.937   1.098   0.482  1.00  0.00     0.000 C
HETATM   38  C23 UNL     1      -6.132   1.052  -0.056  1.00  0.00    -0.033 C
HETATM   39  C24 UNL     1      -6.684   2.186  -0.830  1.00  0.00     0.036 C
ENDBRANCH  34  37
ENDBRANCH  33  34
ENDBRANCH  27  33
ENDBRANCH  21  22
ENDBRANCH  14  21
BRANCH  15  40
HETATM   40  O10 UNL     1      -5.240  -0.694   8.408  1.00  0.00    -0.385 OA
HETATM   41  C26 UNL     1      -6.534  -0.472   8.833  1.00  0.00     0.202 C
ENDBRANCH  15  40
ENDBRANCH   9  10
ENDBRANCH   7   9
ENDBRANCH   6   7
ENDBRANCH   4   5
TORSDOF 16
ENDMDL