MODEL 2
REMARK VINA RESULT: -8.660454958      2.856      5.479
REMARK  14 active torsions:
REMARK  status: ('A' for Active; 'I' for Inactive)
REMARK    1  A    between atoms: C2_2  and  C19_41
REMARK    2  A    between atoms: N1_3  and  N2_5
REMARK    3  A    between atoms: C3_7  and  C4_9
REMARK       I    between atoms: C4_9  and  N4_11
REMARK    4  A    between atoms: N4_11  and  N5_13
REMARK    5  A    between atoms: C5_15  and  C6_16
REMARK    6  A    between atoms: C5_15  and  N6_21
REMARK    7  A    between atoms: C6_16  and  O2_17
REMARK    8  A    between atoms: C6_16  and  O3_19
REMARK    9  A    between atoms: N6_21  and  O4_22
REMARK   10  A    between atoms: N6_21  and  C7_24
REMARK   11  A    between atoms: C11_28  and  C12_29
REMARK       I    between atoms: C12_29  and  N7_31
REMARK   12  A    between atoms: N7_31  and  C13_33
REMARK   13  A    between atoms: C13_33  and  C14_34
REMARK   14  A    between atoms: C13_33  and  C15_37
ROOT
HETATM    1  N5  UNL     1      -7.620  -1.170   4.352  1.00  0.00    -0.284 N
ATOM      2  H5  UNL     1      -8.128  -0.288   4.421  1.00  0.00     0.188 HD
HETATM    3  C5  UNL     1      -7.819  -1.894   3.309  1.00  0.00     0.158 C
ENDROOT
BRANCH   3   4
HETATM    4  C6  UNL     1      -7.083  -3.180   3.204  1.00  0.00     0.321 C
BRANCH   4   5
HETATM    5  O2  UNL     1      -5.695  -2.986   3.076  1.00  0.00    -0.365 OA
ATOM      6  H2  UNL     1      -5.282  -3.680   2.576  1.00  0.00     0.213 HD
ENDBRANCH   4   5
BRANCH   4   7
HETATM    7  O3  UNL     1      -7.254  -3.960   4.347  1.00  0.00    -0.365 OA
ATOM      8  H3  UNL     1      -6.752  -4.765   4.296  1.00  0.00     0.213 HD
ENDBRANCH   4   7
ENDBRANCH   3   4
BRANCH   3   9
HETATM    9  N6  UNL     1      -8.689  -1.546   2.258  1.00  0.00    -0.111 NA
BRANCH   9  10
HETATM   10  O4  UNL     1      -8.351  -2.361   1.205  1.00  0.00    -0.302 OA
ATOM     11  H4  UNL     1      -9.125  -2.879   1.018  1.00  0.00     0.238 HD
ENDBRANCH   9  10
BRANCH   9  12
HETATM   12  C7  UNL     1      -8.588  -0.213   1.844  1.00  0.00     0.044 A
HETATM   13  C8  UNL     1      -9.625   0.664   1.974  1.00  0.00     0.026 A
HETATM   14  C9  UNL     1      -9.452   1.962   1.540  1.00  0.00     0.003 A
HETATM   15  C10 UNL     1      -8.270   2.408   0.980  1.00  0.00     0.017 A
HETATM   16  C11 UNL     1      -7.206   1.530   0.840  1.00  0.00     0.033 A
HETATM   17  C18 UNL     1      -7.404   0.217   1.287  1.00  0.00     0.043 A
BRANCH  16  18
HETATM   18  C12 UNL     1      -5.940   1.925   0.260  1.00  0.00     0.252 C
HETATM   19  O5  UNL     1      -5.932   2.503  -0.847  1.00  0.00    -0.268 OA
HETATM   20  N7  UNL     1      -4.715   1.673   0.914  1.00  0.00    -0.342 N
ATOM     21  H7  UNL     1      -4.716   1.201   1.818  1.00  0.00     0.163 HD
BRANCH  20  22
HETATM   22  C13 UNL     1      -3.440   2.080   0.313  1.00  0.00     0.189 C
BRANCH  22  23
HETATM   23  C14 UNL     1      -2.497   0.957   0.320  1.00  0.00     0.197 C
HETATM   24  O6  UNL     1      -2.421   0.161   1.290  1.00  0.00    -0.646 OA
HETATM   25  O7  UNL     1      -1.652   0.734  -0.749  1.00  0.00    -0.646 OA
ENDBRANCH  22  23
BRANCH  22  26
HETATM   26  C15 UNL     1      -2.857   3.262   1.060  1.00  0.00     0.011 C
HETATM   27  C16 UNL     1      -3.136   4.565   0.388  1.00  0.00     0.012 C
HETATM   28  C17 UNL     1      -3.287   3.316   2.485  1.00  0.00     0.012 C
ENDBRANCH  22  26
ENDBRANCH  20  22
ENDBRANCH  16  18
ENDBRANCH   9  12
ENDBRANCH   3   9
BRANCH   1  29
HETATM   29  N4  UNL     1      -6.771  -1.502   5.384  1.00  0.00    -0.262 N
HETATM   30  C4  UNL     1      -6.265  -0.532   6.294  1.00  0.00     0.302 C
HETATM   31  O1  UNL     1      -6.622   0.672   6.130  1.00  0.00    -0.263 OA
ATOM     32  H4  UNL     1      -6.494  -2.478   5.500  1.00  0.00     0.190 HD
BRANCH  30  33
HETATM   33  C3  UNL     1      -5.376  -0.895   7.373  1.00  0.00     0.200 C
HETATM   34  N2  UNL     1      -4.889  -0.008   8.146  1.00  0.00    -0.283 N
ATOM     35  H2  UNL     1      -5.179   0.947   7.936  1.00  0.00     0.188 HD
HETATM   36  N3  UNL     1      -5.044  -2.252   7.568  1.00  0.00    -0.075 NA
BRANCH  34  37
HETATM   37  N1  UNL     1      -4.059  -0.127   9.191  1.00  0.00    -0.303 N
HETATM   38  C2  UNL     1      -4.143  -0.279  10.420  1.00  0.00     0.032 C
HETATM   39  C1  UNL     1      -2.818  -0.353  11.172  1.00  0.00     0.070 C
ATOM     40  H1  UNL     1      -3.085  -0.078   8.893  1.00  0.00     0.186 HD
BRANCH  38  41
HETATM   41  C19 UNL     1      -5.358  -0.395  11.244  1.00  0.00    -0.013 A
HETATM   42  C20 UNL     1      -5.243  -0.455  12.638  1.00  0.00     0.013 A
HETATM   43  C21 UNL     1      -6.352  -0.565  13.443  1.00  0.00     0.001 A
HETATM   44  C22 UNL     1      -7.624  -0.623  12.925  1.00  0.00     0.000 A
HETATM   45  C23 UNL     1      -7.748  -0.567  11.566  1.00  0.00     0.001 A
HETATM   46  C24 UNL     1      -6.627  -0.454  10.731  1.00  0.00     0.013 A
ENDBRANCH  38  41
ENDBRANCH  34  37
ENDBRANCH  30  33
ENDBRANCH   1  29
TORSDOF 14
ENDMDL