MODEL 1
REMARK VINA RESULT: -6.104594412      0.000      0.000
REMARK  16 active torsions:
REMARK  status: ('A' for Active; 'I' for Inactive)
REMARK    1  A    between atoms: C2_2  and  C4_4
REMARK    2  A    between atoms: C7_7  and  O1_8
REMARK    3  A    between atoms: C8_10  and  O2_11
REMARK    4  A    between atoms: O2_11  and  C9_12
REMARK    5  A    between atoms: C9_12  and  C10_14
REMARK    6  A    between atoms: C12_16  and  C13_17
REMARK    7  A    between atoms: C14_18  and  C15_19
REMARK    8  A    between atoms: C15_19  and  O4_22
REMARK    9  A    between atoms: C18_24  and  C19_25
REMARK   10  A    between atoms: C18_24  and  O7_37
REMARK   11  A    between atoms: C19_25  and  O5_26
REMARK   12  A    between atoms: O5_26  and  C20_27
REMARK   13  A    between atoms: C22_29  and  N1_30
REMARK   14  A    between atoms: C23_34  and  O6_35
REMARK   15  A    between atoms: C25_39  and  C26_40
REMARK   16  A    between atoms: C26_40  and  O8_41
ROOT
HETATM    1  C4  UNL     1      -5.149  -0.526   9.258  1.00  0.00     0.111 A
HETATM    2  C5  UNL     1      -5.274  -1.751   8.345  1.00  0.00     0.054 C
HETATM    3  C6  UNL     1      -5.586  -1.137   7.066  1.00  0.00     0.037 C
HETATM    4  C7  UNL     1      -5.277  -1.722   5.781  1.00  0.00     0.156 C
HETATM    5  C8  UNL     1      -5.431  -0.505   4.885  1.00  0.00     0.199 C
HETATM    6  C18 UNL     1      -5.264   0.741   5.782  1.00  0.00     0.123 C
HETATM    7  C25 UNL     1      -4.704   0.111   7.013  1.00  0.00     0.053 C
HETATM    8  C28 UNL     1      -4.968   0.668   8.330  1.00  0.00     0.176 A
HETATM    9  O9  UNL     1      -3.973   0.189   9.295  1.00  0.00    -0.363 OA
ENDROOT
BRANCH   6  10
HETATM   10  C19 UNL     1      -6.584   1.413   5.933  1.00  0.00     0.210 C
BRANCH  10  11
HETATM   11  O5  UNL     1      -7.551   1.051   5.021  1.00  0.00    -0.380 OA
BRANCH  11  12
HETATM   12  C20 UNL     1      -8.806   1.062   5.565  1.00  0.00     0.154 C
HETATM   13  C21 UNL     1      -9.962   1.323   4.642  1.00  0.00     0.070 C
HETATM   14  C22 UNL     1     -10.714   0.171   5.230  1.00  0.00     0.217 C
HETATM   15  C23 UNL     1      -9.400  -0.270   5.887  1.00  0.00     0.177 C
BRANCH  14  16
HETATM   16  N1  UNL     1     -11.687   0.490   6.243  1.00  0.00    -0.072 N
ATOM     17  H13 UNL     1     -11.682   1.494   6.420  1.00  0.00     0.274 HD
ATOM     18  H12 UNL     1     -12.626   0.372   5.865  1.00  0.00     0.274 HD
ATOM     19  H11 UNL     1     -11.606  -0.014   7.126  1.00  0.00     0.274 HD
ENDBRANCH  14  16
BRANCH  15  20
HETATM   20  O6  UNL     1      -8.871  -1.368   5.218  1.00  0.00    -0.391 OA
ATOM     21  H6  UNL     1      -9.211  -2.221   5.463  1.00  0.00     0.210 HD
ENDBRANCH  15  20
ENDBRANCH  11  12
ENDBRANCH  10  11
ENDBRANCH   6  10
BRANCH   6  22
HETATM   22  O7  UNL     1      -4.375   1.524   5.099  1.00  0.00    -0.379 OA
HETATM   23  C24 UNL     1      -4.505   2.860   5.076  1.00  0.00     0.202 C
ENDBRANCH   6  22
BRANCH   5  24
HETATM   24  O2  UNL     1      -4.484  -0.577   3.864  1.00  0.00    -0.306 OA
BRANCH  24  25
HETATM   25  C9  UNL     1      -4.784  -1.051   2.557  1.00  0.00     0.289 C
HETATM   26  O3  UNL     1      -5.014  -2.282   2.537  1.00  0.00    -0.260 OA
BRANCH  25  27
HETATM   27  C10 UNL     1      -4.792  -0.138   1.454  1.00  0.00     0.013 C
HETATM   28  C11 UNL     1      -3.441   0.355   0.976  1.00  0.00     0.054 C
HETATM   29  C12 UNL     1      -5.844   0.300   0.836  1.00  0.00     0.012 C
BRANCH  29  30
HETATM   30  C13 UNL     1      -7.229   0.005   1.070  1.00  0.00    -0.000 C
HETATM   31  C14 UNL     1      -8.170   0.886   1.323  1.00  0.00     0.010 C
BRANCH  31  32
HETATM   32  C15 UNL     1      -7.904   2.330   1.397  1.00  0.00     0.068 C
HETATM   33  C16 UNL     1      -9.269   3.022   1.504  1.00  0.00     0.050 C
HETATM   34  C17 UNL     1      -7.195   2.861   0.184  1.00  0.00     0.050 C
BRANCH  32  35
HETATM   35  O4  UNL     1      -7.235   2.600   2.587  1.00  0.00    -0.387 OA
ATOM     36  H4  UNL     1      -7.041   3.529   2.624  1.00  0.00     0.211 HD
ENDBRANCH  32  35
ENDBRANCH  31  32
ENDBRANCH  29  30
ENDBRANCH  25  27
ENDBRANCH  24  25
ENDBRANCH   5  24
BRANCH   7  37
HETATM   37  C26 UNL     1      -3.268  -0.202   6.785  1.00  0.00     0.183 C
BRANCH  37  38
HETATM   38  O8  UNL     1      -2.381   0.830   7.048  1.00  0.00    -0.395 OA
HETATM   39  C27 UNL     1      -1.119   0.349   7.317  1.00  0.00     0.201 C
ENDBRANCH  37  38
ENDBRANCH   7  37
BRANCH   4  40
HETATM   40  O1  UNL     1      -6.206  -2.697   5.348  1.00  0.00    -0.392 OA
ATOM     41  H1  UNL     1      -7.046  -2.345   5.080  1.00  0.00     0.210 HD
ENDBRANCH   4  40
BRANCH   1  42
HETATM   42  C2  UNL     1      -5.979  -0.432  10.455  1.00  0.00    -0.056 C
HETATM   43  C1  UNL     1      -7.286  -0.450  10.379  1.00  0.00     0.017 C
HETATM   44  C3  UNL     1      -5.334  -0.315  11.787  1.00  0.00     0.046 C
ENDBRANCH   1  42
TORSDOF 16
ENDMDL