MODEL 4
REMARK VINA RESULT: -7.376152910      1.336      1.866
REMARK  14 active torsions:
REMARK  status: ('A' for Active; 'I' for Inactive)
REMARK    1  A    between atoms: O1_2  and  C2_3
REMARK    2  A    between atoms: C2_3  and  C3_4
REMARK    3  A    between atoms: C6_8  and  C7_9
REMARK    4  A    between atoms: C7_9  and  C9_11
REMARK    5  A    between atoms: C9_11  and  O3_12
REMARK    6  A    between atoms: C9_11  and  C10_14
REMARK    7  A    between atoms: C10_14  and  C12_16
REMARK    8  A    between atoms: C13_17  and  C14_18
REMARK    9  A    between atoms: C18_22  and  O4_23
REMARK   10  A    between atoms: O4_23  and  C19_24
REMARK   11  A    between atoms: C23_29  and  O6_30
REMARK   12  A    between atoms: C24_32  and  O7_33
REMARK   13  A    between atoms: C25_35  and  O8_36
REMARK   14  A    between atoms: C26_38  and  C27_39
ROOT
HETATM    1  C3  UNL     1      -6.538   0.761   2.404  1.00  0.00     0.054 C
HETATM    2  C4  UNL     1      -5.716  -0.439   2.001  1.00  0.00     0.027 C
HETATM    3  C5  UNL     1      -6.358   1.168   3.823  1.00  0.00     0.145 C
HETATM    4  O2  UNL     1      -5.264   1.539   4.233  1.00  0.00    -0.296 OA
HETATM    5  C6  UNL     1      -7.584   1.061   4.553  1.00  0.00     0.092 C
HETATM    6  C18 UNL     1      -8.715   0.813   3.561  1.00  0.00     0.152 C
HETATM    7  C26 UNL     1      -7.995   0.564   2.277  1.00  0.00     0.134 C
ENDROOT
BRANCH   6   8
HETATM    8  O4  UNL     1      -9.443   1.970   3.469  1.00  0.00    -0.351 OA
BRANCH   8   9
HETATM    9  C19 UNL     1     -10.647   1.916   2.829  1.00  0.00     0.292 C
HETATM   10  O5  UNL     1     -11.513   0.958   3.285  1.00  0.00    -0.346 OA
HETATM   11  C20 UNL     1     -12.523   1.331   4.116  1.00  0.00     0.085 C
HETATM   12  C21 UNL     1     -11.966   1.797   5.434  1.00  0.00     0.048 C
HETATM   13  C22 UNL     1     -13.392   0.104   4.442  1.00  0.00     0.048 C
HETATM   14  C23 UNL     1     -13.385   2.438   3.546  1.00  0.00     0.183 C
HETATM   15  C24 UNL     1     -12.788   2.958   2.248  1.00  0.00     0.183 C
HETATM   16  C25 UNL     1     -11.321   3.187   2.544  1.00  0.00     0.204 C
BRANCH  14  17
HETATM   17  O6  UNL     1     -14.655   1.908   3.337  1.00  0.00    -0.390 OA
ATOM     18  H6  UNL     1     -15.283   2.546   3.653  1.00  0.00     0.210 HD
ENDBRANCH  14  17
BRANCH  15  19
HETATM   19  O7  UNL     1     -12.920   2.076   1.198  1.00  0.00    -0.390 OA
ATOM     20  H7  UNL     1     -12.189   1.474   1.120  1.00  0.00     0.210 HD
ENDBRANCH  15  19
BRANCH  16  21
HETATM   21  O8  UNL     1     -11.273   4.146   3.552  1.00  0.00    -0.388 OA
ATOM     22  H8  UNL     1     -11.881   4.026   4.272  1.00  0.00     0.210 HD
ENDBRANCH  16  21
ENDBRANCH   8   9
ENDBRANCH   6   8
BRANCH   5  23
HETATM   23  C7  UNL     1      -7.591   0.097   5.698  1.00  0.00     0.025 C
HETATM   24  C8  UNL     1      -7.056  -1.241   5.319  1.00  0.00     0.013 C
BRANCH  23  25
HETATM   25  C9  UNL     1      -7.427   0.612   7.054  1.00  0.00     0.130 C
BRANCH  25  26
HETATM   26  O3  UNL     1      -8.652   0.984   7.666  1.00  0.00    -0.395 OA
ATOM     27  H3  UNL     1      -8.778   0.594   8.523  1.00  0.00     0.210 HD
ENDBRANCH  25  26
BRANCH  25  28
HETATM   28  C10 UNL     1      -6.670  -0.160   8.085  1.00  0.00     0.033 C
HETATM   29  C11 UNL     1      -5.247   0.147   8.250  1.00  0.00     0.017 C
BRANCH  28  30
HETATM   30  C12 UNL     1      -7.416  -0.189   9.352  1.00  0.00    -0.020 C
HETATM   31  C13 UNL     1      -7.135  -0.256  10.575  1.00  0.00    -0.003 C
BRANCH  31  32
HETATM   32  C14 UNL     1      -5.901  -0.339  11.314  1.00  0.00     0.002 C
HETATM   33  C15 UNL     1      -5.949  -0.465  12.638  1.00  0.00    -0.088 C
HETATM   34  C16 UNL     1      -7.250  -0.517  13.320  1.00  0.00     0.043 C
HETATM   35  C17 UNL     1      -4.704  -0.550  13.415  1.00  0.00     0.043 C
ENDBRANCH  31  32
ENDBRANCH  28  30
ENDBRANCH  25  28
ENDBRANCH  23  25
ENDBRANCH   5  23
BRANCH   7  36
HETATM   36  C27 UNL     1      -8.280  -0.772   1.692  1.00  0.00     0.180 C
HETATM   37  O9  UNL     1      -8.080  -1.048   0.483  1.00  0.00    -0.648 OA
HETATM   38  O10 UNL     1      -8.791  -1.778   2.494  1.00  0.00    -0.648 OA
ENDBRANCH   7  36
BRANCH   1  39
HETATM   39  C2  UNL     1      -6.050   1.878   1.470  1.00  0.00     0.184 C
BRANCH  39  40
HETATM   40  O1  UNL     1      -7.085   2.427   0.745  1.00  0.00    -0.395 OA
HETATM   41  C1  UNL     1      -6.641   2.494  -0.585  1.00  0.00     0.201 C
ENDBRANCH  39  40
ENDBRANCH   1  39
TORSDOF 14
ENDMDL