MODEL 2
REMARK VINA RESULT: -8.079130788      1.566      5.523
REMARK  15 active torsions:
REMARK  status: ('A' for Active; 'I' for Inactive)
REMARK    1  A    between atoms: O1_2  and  C2_3
REMARK    2  A    between atoms: C3_4  and  O2_5
REMARK    3  A    between atoms: C4_7  and  C5_8
REMARK    4  A    between atoms: C5_8  and  O3_9
REMARK    5  A    between atoms: C6_12  and  C7_13
REMARK    6  A    between atoms: C8_14  and  C9_15
REMARK    7  A    between atoms: C9_15  and  C11_17
REMARK    8  A    between atoms: C11_17  and  O5_18
REMARK    9  A    between atoms: C11_17  and  C12_20
REMARK   10  A    between atoms: C12_20  and  C13_21
REMARK   11  A    between atoms: C19_27  and  O6_28
REMARK   12  A    between atoms: O6_28  and  C20_29
REMARK   13  A    between atoms: C21_31  and  C22_32
REMARK   14  A    between atoms: C22_32  and  O8_33
REMARK   15  A    between atoms: C28_41  and  O10_42
ROOT
HETATM    1  C2  UNL     1      -5.570   1.737   5.232  1.00  0.00     0.184 C
HETATM    2  C3  UNL     1      -5.189   3.145   5.715  1.00  0.00     0.180 C
HETATM    3  C4  UNL     1      -3.759   3.385   5.359  1.00  0.00     0.177 C
HETATM    4  O4  UNL     1      -3.195   2.278   4.798  1.00  0.00    -0.369 OA
HETATM    5  C6  UNL     1      -3.219   1.123   5.571  1.00  0.00     0.176 C
HETATM    6  C19 UNL     1      -4.619   0.808   5.951  1.00  0.00     0.189 C
ENDROOT
BRANCH   6   7
HETATM    7  O6  UNL     1      -5.033  -0.477   5.785  1.00  0.00    -0.347 OA
BRANCH   7   8
HETATM    8  C20 UNL     1      -4.095  -1.413   5.488  1.00  0.00     0.300 C
HETATM    9  O7  UNL     1      -4.458  -2.064   4.324  1.00  0.00    -0.326 OA
HETATM   10  C21 UNL     1      -5.266  -3.141   4.461  1.00  0.00     0.287 C
HETATM   11  O9  UNL     1      -5.019  -3.945   5.561  1.00  0.00    -0.350 OA
HETATM   12  C23 UNL     1      -3.726  -3.760   6.047  1.00  0.00     0.167 C
HETATM   13  C24 UNL     1      -3.538  -4.540   7.319  1.00  0.00     0.014 C
HETATM   14  C28 UNL     1      -3.716  -2.327   6.601  1.00  0.00     0.134 C
HETATM   15  C25 UNL     1      -3.898  -6.000   7.154  1.00  0.00     0.012 C
HETATM   16  C26 UNL     1      -4.425  -3.831   8.289  1.00  0.00     0.010 C
HETATM   17  C27 UNL     1      -4.686  -2.436   7.716  1.00  0.00     0.046 C
BRANCH  10  18
HETATM   18  C22 UNL     1      -6.750  -2.811   4.444  1.00  0.00     0.224 C
BRANCH  18  19
HETATM   19  O8  UNL     1      -7.433  -4.018   4.208  1.00  0.00    -0.396 OA
ATOM     20  H8  UNL     1      -7.697  -4.355   5.056  1.00  0.00     0.209 HD
ENDBRANCH  18  19
ENDBRANCH  10  18
BRANCH  14  21
HETATM   21  O10 UNL     1      -2.447  -2.121   7.110  1.00  0.00    -0.382 OA
ATOM     22  H10 UNL     1      -2.416  -1.978   8.049  1.00  0.00     0.210 HD
ENDBRANCH  14  21
ENDBRANCH   7   8
ENDBRANCH   6   7
BRANCH   1  23
HETATM   23  O1  UNL     1      -5.312   1.714   3.886  1.00  0.00    -0.385 OA
HETATM   24  C1  UNL     1      -6.339   1.250   3.101  1.00  0.00     0.202 C
ENDBRANCH   1  23
BRANCH   5  25
HETATM   25  C7  UNL     1      -2.376   1.396   6.766  1.00  0.00     0.004 C
HETATM   26  C8  UNL     1      -2.702   1.009   7.994  1.00  0.00    -0.021 C
BRANCH  26  27
HETATM   27  C9  UNL     1      -1.870   1.278   9.173  1.00  0.00     0.033 C
HETATM   28  C10 UNL     1      -0.580   0.486   9.030  1.00  0.00     0.017 C
BRANCH  27  29
HETATM   29  C11 UNL     1      -2.534   0.832  10.455  1.00  0.00     0.129 C
BRANCH  29  30
HETATM   30  O5  UNL     1      -3.362   1.842  10.967  1.00  0.00    -0.395 OA
ATOM     31  H5  UNL     1      -2.966   2.251  11.728  1.00  0.00     0.210 HD
ENDBRANCH  29  30
BRANCH  29  32
HETATM   32  C12 UNL     1      -3.406  -0.379  10.152  1.00  0.00     0.070 C
BRANCH  32  33
HETATM   33  C13 UNL     1      -4.487  -0.411  11.163  1.00  0.00    -0.056 A
HETATM   34  C14 UNL     1      -4.187  -0.545  12.495  1.00  0.00     0.007 A
HETATM   35  C15 UNL     1      -5.206  -0.573  13.417  1.00  0.00     0.001 A
HETATM   36  C16 UNL     1      -6.514  -0.470  13.044  1.00  0.00     0.000 A
HETATM   37  C17 UNL     1      -6.806  -0.336  11.701  1.00  0.00     0.001 A
HETATM   38  C18 UNL     1      -5.797  -0.306  10.761  1.00  0.00     0.007 A
ENDBRANCH  32  33
ENDBRANCH  29  32
ENDBRANCH  27  29
ENDBRANCH  26  27
ENDBRANCH   5  25
BRANCH   2  39
HETATM   39  O2  UNL     1      -6.059   4.095   5.241  1.00  0.00    -0.390 OA
ATOM     40  H2  UNL     1      -5.846   4.960   5.571  1.00  0.00     0.210 HD
ENDBRANCH   2  39
BRANCH   3  41
HETATM   41  C5  UNL     1      -3.751   4.464   4.262  1.00  0.00     0.198 C
BRANCH  41  42
HETATM   42  O3  UNL     1      -3.870   3.863   3.013  1.00  0.00    -0.398 OA
ATOM     43  H3  UNL     1      -4.143   4.509   2.372  1.00  0.00     0.209 HD
ENDBRANCH  41  42
ENDBRANCH   3  41
TORSDOF 15
ENDMDL