MODEL 4
REMARK VINA RESULT: -8.511921577      0.694      1.147
REMARK  14 active torsions:
REMARK  status: ('A' for Active; 'I' for Inactive)
REMARK    1  A    between atoms: C3_3  and  C4_4
REMARK    2  A    between atoms: C5_5  and  C6_6
REMARK    3  A    between atoms: C8_8  and  O1_9
REMARK    4  A    between atoms: O1_9  and  C9_10
REMARK    5  A    between atoms: C10_11  and  O2_12
REMARK    6  A    between atoms: O2_12  and  C11_13
REMARK    7  A    between atoms: C11_13  and  C13_15
REMARK    8  A    between atoms: C20_22  and  O3_23
REMARK    9  A    between atoms: O3_23  and  C21_24
REMARK   10  A    between atoms: C23_27  and  O5_28
REMARK   11  A    between atoms: C24_30  and  O6_31
REMARK   12  A    between atoms: C25_33  and  O7_34
REMARK   13  A    between atoms: C26_36  and  O8_37
REMARK   14  A    between atoms: C27_40  and  C28_41
ROOT
HETATM    1  C9  UNL     1      -2.815  -0.726   7.670  1.00  0.00     0.184 C
HETATM    2  C10 UNL     1      -4.085  -0.477   8.446  1.00  0.00     0.156 C
HETATM    3  C19 UNL     1      -5.191  -1.142   7.640  1.00  0.00     0.069 C
HETATM    4  C20 UNL     1      -4.520  -2.128   6.704  1.00  0.00     0.158 C
HETATM    5  C26 UNL     1      -3.035  -2.079   7.010  1.00  0.00     0.178 C
ENDROOT
BRANCH   1   6
HETATM    6  O1  UNL     1      -1.664  -0.655   8.404  1.00  0.00    -0.351 OA
BRANCH   6   7
HETATM    7  C8  UNL     1      -0.979   0.567   8.202  1.00  0.00     0.262 C
HETATM    8  C7  UNL     1      -0.988   1.314   9.537  1.00  0.00     0.072 C
HETATM    9  C6  UNL     1       0.361   0.814  10.055  1.00  0.00     0.052 C
HETATM   10  C27 UNL     1       1.156   1.002   8.801  1.00  0.00     0.233 C
HETATM   11  O9  UNL     1       0.338   0.186   7.937  1.00  0.00    -0.345 OA
BRANCH   9  12
HETATM   12  C5  UNL     1       0.786   1.292  11.307  1.00  0.00    -0.019 C
HETATM   13  C4  UNL     1       0.722   0.680  12.457  1.00  0.00    -0.004 C
BRANCH  13  14
HETATM   14  C3  UNL     1       1.223   1.328  13.688  1.00  0.00    -0.005 C
HETATM   15  C2  UNL     1       2.102   0.708  14.422  1.00  0.00    -0.031 C
HETATM   16  C1  UNL     1       2.594  -0.629  14.026  1.00  0.00     0.036 C
ENDBRANCH  13  14
ENDBRANCH   9  12
BRANCH  10  17
HETATM   17  C28 UNL     1       1.134   2.352   8.237  1.00  0.00     0.203 C
HETATM   18  O10 UNL     1       1.243   3.384   8.903  1.00  0.00    -0.646 OA
HETATM   19  O11 UNL     1       0.979   2.530   6.852  1.00  0.00    -0.646 OA
ENDBRANCH  10  17
ENDBRANCH   6   7
ENDBRANCH   1   6
BRANCH   2  20
HETATM   20  O2  UNL     1      -4.107  -1.064   9.688  1.00  0.00    -0.374 OA
BRANCH  20  21
HETATM   21  C11 UNL     1      -4.304  -0.077  10.648  1.00  0.00     0.151 C
HETATM   22  C12 UNL     1      -3.175   0.016  11.630  1.00  0.00     0.045 C
BRANCH  21  23
HETATM   23  C13 UNL     1      -5.569  -0.331  11.420  1.00  0.00    -0.030 A
HETATM   24  C14 UNL     1      -5.529  -0.446  12.791  1.00  0.00     0.010 A
HETATM   25  C15 UNL     1      -6.672  -0.682  13.546  1.00  0.00     0.001 A
HETATM   26  C16 UNL     1      -7.899  -0.810  12.929  1.00  0.00     0.000 A
HETATM   27  C17 UNL     1      -7.936  -0.694  11.556  1.00  0.00     0.001 A
HETATM   28  C18 UNL     1      -6.794  -0.458  10.802  1.00  0.00     0.010 A
ENDBRANCH  21  23
ENDBRANCH  20  21
ENDBRANCH   2  20
BRANCH   5  29
HETATM   29  O8  UNL     1      -2.622  -3.135   7.811  1.00  0.00    -0.390 OA
ATOM     30  H8  UNL     1      -1.831  -2.935   8.298  1.00  0.00     0.210 HD
ENDBRANCH   5  29
BRANCH   4  31
HETATM   31  O3  UNL     1      -4.798  -1.711   5.412  1.00  0.00    -0.351 OA
BRANCH  31  32
HETATM   32  C21 UNL     1      -6.136  -1.459   5.242  1.00  0.00     0.291 C
HETATM   33  O4  UNL     1      -6.377  -0.221   4.635  1.00  0.00    -0.356 OA
HETATM   34  C22 UNL     1      -5.703  -0.108   3.425  1.00  0.00     0.205 C
HETATM   35  C23 UNL     1      -6.081  -1.195   2.449  1.00  0.00     0.173 C
HETATM   36  C24 UNL     1      -6.104  -2.553   3.066  1.00  0.00     0.182 C
HETATM   37  C25 UNL     1      -6.843  -2.494   4.387  1.00  0.00     0.204 C
BRANCH  35  38
HETATM   38  O5  UNL     1      -7.261  -0.866   1.812  1.00  0.00    -0.391 OA
ATOM     39  H5  UNL     1      -7.321   0.076   1.707  1.00  0.00     0.210 HD
ENDBRANCH  35  38
BRANCH  36  40
HETATM   40  O6  UNL     1      -6.772  -3.444   2.233  1.00  0.00    -0.390 OA
ATOM     41  H6  UNL     1      -7.635  -3.634   2.583  1.00  0.00     0.210 HD
ENDBRANCH  36  40
BRANCH  37  42
HETATM   42  O7  UNL     1      -8.155  -2.043   4.231  1.00  0.00    -0.388 OA
ATOM     43  H7  UNL     1      -8.124  -1.348   3.584  1.00  0.00     0.210 HD
ENDBRANCH  37  42
ENDBRANCH  31  32
ENDBRANCH   4  31
TORSDOF 14
ENDMDL