MODEL 4
REMARK VINA RESULT: -8.338069165      2.232      3.827
REMARK  16 active torsions:
REMARK  status: ('A' for Active; 'I' for Inactive)
REMARK    1  A    between atoms: C2_2  and  N1_3
REMARK    2  A    between atoms: N1_3  and  C4_5
REMARK    3  A    between atoms: C5_6  and  O1_7
REMARK    4  A    between atoms: C6_9  and  C7_10
REMARK    5  A    between atoms: C7_10  and  O2_11
REMARK    6  A    between atoms: O2_11  and  C8_12
REMARK    7  A    between atoms: C9_14  and  C10_15
REMARK    8  A    between atoms: C10_15  and  O4_16
REMARK    9  A    between atoms: C11_18  and  O5_19
REMARK   10  A    between atoms: C12_21  and  O6_22
REMARK   11  A    between atoms: O6_22  and  C13_23
REMARK   12  A    between atoms: C13_23  and  C14_25
REMARK   13  A    between atoms: C20_31  and  O8_32
REMARK   14  A    between atoms: C21_35  and  C22_36
REMARK   15  A    between atoms: C22_36  and  O10_37
REMARK   16  A    between atoms: C22_36  and  C23_39
ROOT
HETATM    1  C8  UNL     1      -5.425  -2.695   4.399  1.00  0.00     0.291 C
HETATM    2  O3  UNL     1      -4.638  -3.792   4.642  1.00  0.00    -0.348 OA
HETATM    3  C9  UNL     1      -4.507  -4.133   5.972  1.00  0.00     0.179 C
HETATM    4  C11 UNL     1      -3.997  -2.951   6.803  1.00  0.00     0.181 C
HETATM    5  C12 UNL     1      -5.036  -1.887   6.670  1.00  0.00     0.197 C
HETATM    6  C20 UNL     1      -5.087  -1.489   5.214  1.00  0.00     0.205 C
ENDROOT
BRANCH   1   7
HETATM    7  O2  UNL     1      -5.429  -2.452   3.034  1.00  0.00    -0.356 OA
BRANCH   7   8
HETATM    8  C7  UNL     1      -6.681  -2.086   2.560  1.00  0.00     0.205 C
BRANCH   8   9
HETATM    9  C6  UNL     1      -6.624  -0.791   1.780  1.00  0.00     0.176 C
HETATM   10  C5  UNL     1      -7.960  -0.244   1.443  1.00  0.00     0.174 C
HETATM   11  C4  UNL     1      -8.160   0.842   2.483  1.00  0.00     0.146 C
HETATM   12  C21 UNL     1      -6.754   1.166   2.870  1.00  0.00     0.180 C
HETATM   13  O9  UNL     1      -5.926   0.132   2.516  1.00  0.00    -0.371 OA
BRANCH  10  14
HETATM   14  O1  UNL     1      -8.986  -1.160   1.413  1.00  0.00    -0.391 OA
ATOM     15  H1  UNL     1      -8.688  -2.058   1.503  1.00  0.00     0.210 HD
ENDBRANCH  10  14
BRANCH  11  16
HETATM   16  N1  UNL     1      -8.952   1.878   2.005  1.00  0.00    -0.388 N
HETATM   17  C3  UNL     1      -8.433   2.769   1.042  1.00  0.00     0.149 C
BRANCH  16  18
HETATM   18  C2  UNL     1     -10.250   2.077   2.469  1.00  0.00     0.054 C
HETATM   19  C1  UNL     1     -11.254   1.867   1.385  1.00  0.00     0.054 C
ENDBRANCH  16  18
ENDBRANCH  11  16
BRANCH  12  20
HETATM   20  C22 UNL     1      -6.609   1.367   4.376  1.00  0.00     0.182 C
BRANCH  20  21
HETATM   21  O10 UNL     1      -7.796   1.727   4.980  1.00  0.00    -0.388 OA
ATOM     22  H10 UNL     1      -7.779   1.602   5.922  1.00  0.00     0.210 HD
ENDBRANCH  20  21
BRANCH  20  23
HETATM   23  C23 UNL     1      -5.604   2.424   4.623  1.00  0.00    -0.027 A
HETATM   24  C24 UNL     1      -5.563   3.517   3.769  1.00  0.00     0.010 A
HETATM   25  C25 UNL     1      -4.647   4.528   3.953  1.00  0.00     0.001 A
HETATM   26  C26 UNL     1      -3.750   4.474   4.994  1.00  0.00     0.000 A
HETATM   27  C27 UNL     1      -3.790   3.378   5.850  1.00  0.00     0.001 A
HETATM   28  C28 UNL     1      -4.705   2.366   5.668  1.00  0.00     0.010 A
ENDBRANCH  20  23
ENDBRANCH  12  20
ENDBRANCH   8   9
ENDBRANCH   7   8
ENDBRANCH   1   7
BRANCH   6  29
HETATM   29  O8  UNL     1      -3.887  -0.895   4.836  1.00  0.00    -0.388 OA
ATOM     30  H8  UNL     1      -3.124  -1.385   5.120  1.00  0.00     0.210 HD
ENDBRANCH   6  29
BRANCH   3  31
HETATM   31  C10 UNL     1      -3.438  -5.200   6.055  1.00  0.00     0.198 C
BRANCH  31  32
HETATM   32  O4  UNL     1      -2.165  -4.634   6.022  1.00  0.00    -0.398 OA
ATOM     33  H4  UNL     1      -1.520  -5.265   5.722  1.00  0.00     0.209 HD
ENDBRANCH  31  32
ENDBRANCH   3  31
BRANCH   5  34
HETATM   34  O6  UNL     1      -4.888  -0.799   7.533  1.00  0.00    -0.306 OA
BRANCH  34  35
HETATM   35  C13 UNL     1      -5.910  -0.251   8.280  1.00  0.00     0.293 C
HETATM   36  O7  UNL     1      -6.850   0.278   7.648  1.00  0.00    -0.259 OA
BRANCH  35  37
HETATM   37  C14 UNL     1      -5.875  -0.298   9.757  1.00  0.00     0.039 A
HETATM   38  C15 UNL     1      -4.677  -0.317  10.432  1.00  0.00     0.017 A
HETATM   39  C16 UNL     1      -4.615  -0.358  11.811  1.00  0.00     0.001 A
HETATM   40  C17 UNL     1      -5.806  -0.380  12.501  1.00  0.00     0.000 A
HETATM   41  C18 UNL     1      -7.028  -0.362  11.860  1.00  0.00     0.001 A
HETATM   42  C19 UNL     1      -7.036  -0.320  10.486  1.00  0.00     0.017 A
ENDBRANCH  35  37
ENDBRANCH  34  35
ENDBRANCH   5  34
BRANCH   4  43
HETATM   43  O5  UNL     1      -3.838  -3.406   8.110  1.00  0.00    -0.390 OA
ATOM     44  H5  UNL     1      -4.294  -2.795   8.677  1.00  0.00     0.210 HD
ENDBRANCH   4  43
TORSDOF 16
ENDMDL