MODEL 4
REMARK VINA RESULT: -7.366961425      2.300      7.111
REMARK  14 active torsions:
REMARK  status: ('A' for Active; 'I' for Inactive)
REMARK    1  A    between atoms: C5_5  and  O1_7
REMARK    2  A    between atoms: C7_9  and  C8_10
REMARK    3  A    between atoms: C14_19  and  C15_20
REMARK    4  A    between atoms: C15_20  and  O6_22
REMARK    5  A    between atoms: O6_22  and  C16_23
REMARK    6  A    between atoms: C16_23  and  C17_24
REMARK    7  A    between atoms: C17_24  and  O7_25
REMARK    8  A    between atoms: C17_24  and  C18_27
REMARK    9  A    between atoms: C18_27  and  C20_29
REMARK   10  A    between atoms: C20_29  and  C21_30
REMARK   11  A    between atoms: C20_29  and  C25_34
REMARK   12  A    between atoms: C21_30  and  C22_31
REMARK   13  A    between atoms: C25_34  and  O8_35
REMARK   14  A    between atoms: C25_34  and  N1_37
REMARK       I    between atoms: N1_37  and  C26_39
ROOT
HETATM    1  C15 UNL     1      -4.829   1.040   3.890  1.00  0.00     0.302 C
HETATM    2  O5  UNL     1      -3.889   0.836   3.050  1.00  0.00    -0.261 OA
ENDROOT
BRANCH   1   3
HETATM    3  C14 UNL     1      -6.179   0.672   3.511  1.00  0.00     0.213 C
HETATM    4  C2  UNL     1      -6.899   1.738   2.753  1.00  0.00    -0.034 C
HETATM    5  C1  UNL     1      -6.980   2.987   3.186  1.00  0.00     0.018 C
HETATM    6  C3  UNL     1      -7.558   1.414   1.458  1.00  0.00     0.053 C
HETATM    7  C4  UNL     1      -8.758   2.335   1.220  1.00  0.00     0.018 C
HETATM    8  C5  UNL     1      -8.072   0.005   1.386  1.00  0.00     0.128 C
HETATM    9  C6  UNL     1      -7.466  -0.633   0.147  1.00  0.00     0.053 C
HETATM   10  C7  UNL     1      -7.544  -0.761   2.584  1.00  0.00     0.291 C
HETATM   11  O4  UNL     1      -8.130  -0.312   3.769  1.00  0.00    -0.320 OA
HETATM   12  O10 UNL     1      -6.177  -0.454   2.649  1.00  0.00    -0.314 OA
HETATM   13  C9  UNL     1      -7.065   0.126   4.578  1.00  0.00     0.146 A
HETATM   14  C10 UNL     1      -6.559  -1.056   5.264  1.00  0.00     0.019 A
HETATM   15  C13 UNL     1      -7.480   1.042   5.621  1.00  0.00     0.019 A
HETATM   16  C11 UNL     1      -6.664  -0.864   6.559  1.00  0.00    -0.001 A
HETATM   17  C12 UNL     1      -7.242   0.453   6.781  1.00  0.00    -0.001 A
BRANCH   8  18
HETATM   18  O1  UNL     1      -9.442  -0.078   1.263  1.00  0.00    -0.383 OA
ATOM     19  H1  UNL     1      -9.736  -0.853   0.800  1.00  0.00     0.210 HD
ENDBRANCH   8  18
BRANCH  10  20
HETATM   20  C8  UNL     1      -7.802  -2.209   2.474  1.00  0.00     0.242 C
HETATM   21  O2  UNL     1      -8.975  -2.690   2.402  1.00  0.00    -0.644 OA
HETATM   22  O3  UNL     1      -6.775  -3.166   2.440  1.00  0.00    -0.644 OA
ENDBRANCH  10  20
ENDBRANCH   1   3
BRANCH   1  23
HETATM   23  O6  UNL     1      -4.466   1.597   5.079  1.00  0.00    -0.316 OA
BRANCH  23  24
HETATM   24  C16 UNL     1      -3.326   1.379   5.832  1.00  0.00     0.211 C
BRANCH  24  25
HETATM   25  C17 UNL     1      -3.584   0.830   7.232  1.00  0.00     0.150 C
BRANCH  25  26
HETATM   26  O7  UNL     1      -2.880   1.715   8.083  1.00  0.00    -0.393 OA
ATOM     27  H7  UNL     1      -3.550   2.060   8.662  1.00  0.00     0.210 HD
ENDBRANCH  25  26
BRANCH  25  28
HETATM   28  C18 UNL     1      -2.926  -0.517   7.353  1.00  0.00     0.045 C
HETATM   29  C19 UNL     1      -1.549  -0.247   7.955  1.00  0.00     0.017 C
BRANCH  28  30
HETATM   30  C20 UNL     1      -3.674  -1.562   8.122  1.00  0.00    -0.029 C
BRANCH  30  31
HETATM   31  C21 UNL     1      -3.635  -1.430   9.583  1.00  0.00    -0.015 C
BRANCH  31  32
HETATM   32  C22 UNL     1      -4.393  -0.501  10.387  1.00  0.00     0.000 C
HETATM   33  C23 UNL     1      -5.884  -0.498  10.157  1.00  0.00     0.013 C
HETATM   34  C24 UNL     1      -4.192  -0.420  11.865  1.00  0.00     0.013 C
ENDBRANCH  31  32
ENDBRANCH  30  31
BRANCH  30  35
HETATM   35  C25 UNL     1      -3.778  -2.918   7.538  1.00  0.00     0.251 C
BRANCH  35  36
HETATM   36  O8  UNL     1      -2.727  -3.210   6.607  1.00  0.00    -0.373 OA
ATOM     37  H8  UNL     1      -1.967  -3.607   7.016  1.00  0.00     0.212 HD
ENDBRANCH  35  36
BRANCH  35  38
HETATM   38  N1  UNL     1      -3.718  -4.037   8.435  1.00  0.00    -0.331 N
HETATM   39  C26 UNL     1      -4.211  -5.291   7.996  1.00  0.00     0.215 C
HETATM   40  C27 UNL     1      -4.195  -6.509   8.845  1.00  0.00     0.117 C
HETATM   41  O9  UNL     1      -4.693  -5.421   6.837  1.00  0.00    -0.274 OA
ATOM     42  H1  UNL     1      -3.328  -3.931   9.371  1.00  0.00     0.165 HD
ENDBRANCH  35  38
ENDBRANCH  30  35
ENDBRANCH  28  30
ENDBRANCH  25  28
ENDBRANCH  24  25
ENDBRANCH  23  24
ENDBRANCH   1  23
TORSDOF 14
ENDMDL