MODEL 2
REMARK VINA RESULT: -7.887891824      2.052      3.244
REMARK  16 active torsions:
REMARK  status: ('A' for Active; 'I' for Inactive)
REMARK    1  A    between atoms: O1_2  and  N1_3
REMARK    2  A    between atoms: C2_5  and  C3_6
REMARK    3  A    between atoms: C2_5  and  C23_41
REMARK    4  A    between atoms: C3_6  and  N2_7
REMARK    5  A    between atoms: C4_10  and  C5_11
REMARK    6  A    between atoms: C11_17  and  N4_18
REMARK    7  A    between atoms: N4_18  and  C12_20
REMARK    8  A    between atoms: C12_20  and  C13_21
REMARK    9  A    between atoms: C13_21  and  O2_22
REMARK   10  A    between atoms: C13_21  and  C14_24
REMARK   11  A    between atoms: C14_24  and  O3_25
REMARK   12  A    between atoms: C15_29  and  N6_30
REMARK   13  A    between atoms: N6_30  and  O4_32
REMARK   14  A    between atoms: O4_32  and  C16_33
REMARK   15  A    between atoms: C16_33  and  C17_34
REMARK   16  A    between atoms: C25_44  and  N8_45
ROOT
HETATM    1  N2  UNL     1      -4.039   1.169   6.418  1.00  0.00    -0.116 N
HETATM    2  N3  UNL     1      -4.486   0.985   7.652  1.00  0.00    -0.279 N
ATOM      3  H3  UNL     1      -4.646   1.829   8.202  1.00  0.00     0.188 HD
HETATM    4  C4  UNL     1      -4.748  -0.159   8.257  1.00  0.00     0.103 A
HETATM    5  C11 UNL     1      -4.531  -1.299   7.507  1.00  0.00     0.146 A
HETATM    6  N5  UNL     1      -4.082  -1.161   6.264  1.00  0.00    -0.171 N
ATOM      7  H5  UNL     1      -3.923  -2.003   5.712  1.00  0.00     0.186 HD
HETATM    8  C15 UNL     1      -3.819   0.069   5.676  1.00  0.00     0.720 A
ENDROOT
BRANCH   1   9
HETATM    9  C3  UNL     1      -3.842   2.466   5.863  1.00  0.00     0.229 C
BRANCH   9  10
HETATM   10  C2  UNL     1      -5.053   3.279   5.616  1.00  0.00     0.079 C
HETATM   11  N1  UNL     1      -5.154   4.346   6.252  1.00  0.00    -0.267 N
ATOM     12  H1  UNL     1      -4.351   4.492   6.864  1.00  0.00     0.194 HD
BRANCH  11  13
HETATM   13  O1  UNL     1      -6.014   5.332   6.345  1.00  0.00    -0.285 OA
HETATM   14  C1  UNL     1      -5.775   6.597   5.716  1.00  0.00     0.237 C
ENDBRANCH  11  13
BRANCH  10  15
HETATM   15  C23 UNL     1      -6.085   2.874   4.606  1.00  0.00     0.067 A
HETATM   16  C24 UNL     1      -6.124   3.454   3.362  1.00  0.00     0.084 A
HETATM   17  S1  UNL     1      -7.496   2.685   2.638  1.00  0.00    -0.064 SA
HETATM   18  C25 UNL     1      -7.916   1.693   3.954  1.00  0.00     0.142 A
HETATM   19  N9  UNL     1      -7.015   1.985   4.867  1.00  0.00    -0.335 N
ATOM     20  H9  UNL     1      -7.039   1.521   5.775  1.00  0.00     0.168 HD
BRANCH  18  21
HETATM   21  N8  UNL     1      -8.906   0.840   4.038  1.00  0.00    -0.380 N
ATOM     22  H82 UNL     1      -9.907   1.033   4.016  1.00  0.00     0.158 HD
ATOM     23  H81 UNL     1      -8.856  -0.173   4.140  1.00  0.00     0.158 HD
ENDBRANCH  18  21
ENDBRANCH  10  15
ENDBRANCH   9  10
ENDBRANCH   1   9
BRANCH   8  24
HETATM   24  N6  UNL     1      -3.351  -0.009   4.510  1.00  0.00    -0.094 N
ATOM     25  H6  UNL     1      -2.435   0.439   4.513  1.00  0.00     0.213 HD
BRANCH  24  26
HETATM   26  O4  UNL     1      -3.576  -0.432   3.324  1.00  0.00    -0.262 OA
BRANCH  26  27
HETATM   27  C16 UNL     1      -4.609   0.092   2.515  1.00  0.00     0.240 C
BRANCH  27  28
HETATM   28  C17 UNL     1      -5.693  -0.890   2.310  1.00  0.00    -0.030 A
HETATM   29  C18 UNL     1      -6.770  -0.691   1.495  1.00  0.00     0.026 A
HETATM   30  C19 UNL     1      -7.717  -1.689   1.389  1.00  0.00     0.090 A
HETATM   31  N7  UNL     1      -7.629  -2.860   2.054  1.00  0.00    -0.371 N
HETATM   32  C20 UNL     1      -8.621  -3.899   1.938  1.00  0.00     0.154 C
HETATM   33  C21 UNL     1      -6.573  -3.039   2.843  1.00  0.00     0.090 A
HETATM   34  C22 UNL     1      -5.600  -2.083   2.989  1.00  0.00     0.026 A
ENDBRANCH  27  28
ENDBRANCH  26  27
ENDBRANCH  24  26
ENDBRANCH   8  24
BRANCH   4  35
HETATM   35  C5  UNL     1      -5.249  -0.243   9.631  1.00  0.00    -0.004 A
HETATM   36  C6  UNL     1      -6.609  -0.322   9.818  1.00  0.00     0.014 A
HETATM   37  C7  UNL     1      -7.190  -0.397  11.073  1.00  0.00     0.001 A
HETATM   38  C8  UNL     1      -6.363  -0.393  12.161  1.00  0.00     0.000 A
HETATM   39  C9  UNL     1      -5.005  -0.316  11.997  1.00  0.00     0.001 A
HETATM   40  C10 UNL     1      -4.433  -0.240  10.736  1.00  0.00     0.014 A
ENDBRANCH   4  35
BRANCH   5  41
HETATM   41  N4  UNL     1      -4.781  -2.445   8.050  1.00  0.00    -0.371 N
ATOM     42  H4  UNL     1      -5.702  -2.645   8.439  1.00  0.00     0.161 HD
BRANCH  41  43
HETATM   43  C12 UNL     1      -3.718  -3.448   8.094  1.00  0.00     0.155 C
BRANCH  43  44
HETATM   44  C13 UNL     1      -3.605  -4.070   6.727  1.00  0.00     0.159 C
BRANCH  44  45
HETATM   45  O2  UNL     1      -2.234  -4.219   6.466  1.00  0.00    -0.392 OA
ATOM     46  H2  UNL     1      -2.104  -5.124   6.208  1.00  0.00     0.210 HD
ENDBRANCH  44  45
BRANCH  44  47
HETATM   47  C14 UNL     1      -4.188  -5.468   6.733  1.00  0.00     0.197 C
BRANCH  47  48
HETATM   48  O3  UNL     1      -5.174  -5.511   5.760  1.00  0.00    -0.398 OA
ATOM     49  H3  UNL     1      -4.990  -4.816   5.138  1.00  0.00     0.209 HD
ENDBRANCH  47  48
ENDBRANCH  44  47
ENDBRANCH  43  44
ENDBRANCH  41  43
ENDBRANCH   5  41
TORSDOF 16
ENDMDL