MODEL 1
REMARK VINA RESULT: -9.592027975      0.000      0.000
REMARK  15 active torsions:
REMARK  status: ('A' for Active; 'I' for Inactive)
REMARK    1  A    between atoms: O1_1  and  C1_3
REMARK    2  A    between atoms: C1_3  and  C2_4
REMARK    3  A    between atoms: C3_6  and  O3_7
REMARK    4  A    between atoms: O3_7  and  C4_8
REMARK    5  A    between atoms: C4_8  and  C5_9
REMARK    6  A    between atoms: C6_11  and  O5_12
REMARK    7  A    between atoms: O5_12  and  C7_13
REMARK    8  A    between atoms: C10_16  and  O6_17
REMARK    9  A    between atoms: O6_17  and  C11_18
REMARK   10  A    between atoms: C11_18  and  C12_19
REMARK   11  A    between atoms: C12_19  and  C13_20
REMARK   12  A    between atoms: C21_28  and  O7_29
REMARK   13  A    between atoms: C27_36  and  O8_37
REMARK   14  A    between atoms: C28_39  and  O9_40
REMARK   15  A    between atoms: C29_42  and  O10_43
ROOT
HETATM    1  C5  UNL     1      -6.455  -0.669   6.617  1.00  0.00     0.156 C
HETATM    2  O4  UNL     1      -5.554  -1.787   6.544  1.00  0.00    -0.350 OA
HETATM    3  C6  UNL     1      -4.537  -1.664   5.665  1.00  0.00     0.295 C
HETATM    4  C21 UNL     1      -3.805  -0.351   5.600  1.00  0.00     0.178 C
HETATM    5  C22 UNL     1      -4.758   0.762   5.701  1.00  0.00     0.033 C
HETATM    6  C23 UNL     1      -4.695   1.761   4.566  1.00  0.00     0.035 C
HETATM    7  C24 UNL     1      -6.111   2.242   4.548  1.00  0.00    -0.030 C
HETATM    8  C25 UNL     1      -6.907   1.309   5.066  1.00  0.00    -0.023 C
HETATM    9  C26 UNL     1      -6.132   0.177   5.455  1.00  0.00     0.046 C
ENDROOT
BRANCH   1  10
HETATM   10  C4  UNL     1      -6.240  -0.188   7.984  1.00  0.00     0.203 C
BRANCH  10  11
HETATM   11  O3  UNL     1      -7.008  -0.465   9.044  1.00  0.00    -0.356 OA
BRANCH  11  12
HETATM   12  C3  UNL     1      -6.452  -0.647  10.262  1.00  0.00     0.291 C
HETATM   13  O2  UNL     1      -5.353   0.315  10.412  1.00  0.00    -0.348 OA
HETATM   14  C2  UNL     1      -4.593  -0.270  11.439  1.00  0.00     0.179 C
HETATM   15  C29 UNL     1      -5.340  -0.098  12.739  1.00  0.00     0.180 C
HETATM   16  C28 UNL     1      -6.687  -0.836  12.686  1.00  0.00     0.183 C
HETATM   17  C27 UNL     1      -7.339  -0.313  11.398  1.00  0.00     0.204 C
BRANCH  14  18
HETATM   18  C1  UNL     1      -3.299   0.508  11.562  1.00  0.00     0.198 C
BRANCH  18  19
HETATM   19  O1  UNL     1      -2.229  -0.368  11.611  1.00  0.00    -0.398 OA
ATOM     20  H1  UNL     1      -2.348  -0.981  12.327  1.00  0.00     0.209 HD
ENDBRANCH  18  19
ENDBRANCH  14  18
BRANCH  15  21
HETATM   21  O10 UNL     1      -4.587  -0.499  13.820  1.00  0.00    -0.390 OA
ATOM     22  H10 UNL     1      -5.109  -0.969  14.460  1.00  0.00     0.210 HD
ENDBRANCH  15  21
BRANCH  16  23
HETATM   23  O9  UNL     1      -7.453  -0.468  13.768  1.00  0.00    -0.390 OA
ATOM     24  H9  UNL     1      -7.144  -0.921  14.543  1.00  0.00     0.210 HD
ENDBRANCH  16  23
BRANCH  17  25
HETATM   25  O8  UNL     1      -8.637  -0.679  11.266  1.00  0.00    -0.388 OA
ATOM     26  H8  UNL     1      -9.242   0.012  11.025  1.00  0.00     0.210 HD
ENDBRANCH  17  25
ENDBRANCH  11  12
ENDBRANCH  10  11
ENDBRANCH   1  10
BRANCH   3  27
HETATM   27  O5  UNL     1      -3.544  -2.579   6.161  1.00  0.00    -0.318 OA
BRANCH  27  28
HETATM   28  C7  UNL     1      -3.744  -3.778   6.741  1.00  0.00     0.072 A
HETATM   29  C8  UNL     1      -4.076  -4.969   6.143  1.00  0.00     0.039 A
HETATM   30  C9  UNL     1      -4.252  -6.142   6.879  1.00  0.00     0.039 A
HETATM   31  C10 UNL     1      -4.101  -6.157   8.235  1.00  0.00     0.068 A
HETATM   32  C19 UNL     1      -3.768  -4.978   8.865  1.00  0.00     0.039 A
HETATM   33  C20 UNL     1      -3.595  -3.824   8.133  1.00  0.00     0.039 A
BRANCH  31  34
HETATM   34  O6  UNL     1      -4.283  -7.341   8.931  1.00  0.00    -0.351 OA
BRANCH  34  35
HETATM   35  C11 UNL     1      -3.510  -7.548  10.097  1.00  0.00     0.180 C
BRANCH  35  36
HETATM   36  C12 UNL     1      -4.471  -7.521  11.276  1.00  0.00     0.065 C
BRANCH  36  37
HETATM   37  C13 UNL     1      -3.836  -8.295  12.368  1.00  0.00    -0.056 A
HETATM   38  C14 UNL     1      -3.167  -9.446  12.052  1.00  0.00     0.007 A
HETATM   39  C15 UNL     1      -2.560 -10.193  13.066  1.00  0.00     0.001 A
HETATM   40  C16 UNL     1      -2.643  -9.757  14.379  1.00  0.00     0.000 A
HETATM   41  C17 UNL     1      -3.317  -8.600  14.682  1.00  0.00     0.001 A
HETATM   42  C18 UNL     1      -3.922  -7.857  13.664  1.00  0.00     0.007 A
ENDBRANCH  36  37
ENDBRANCH  35  36
ENDBRANCH  34  35
ENDBRANCH  31  34
ENDBRANCH  27  28
ENDBRANCH   3  27
BRANCH   4  43
HETATM   43  O7  UNL     1      -2.750  -0.291   6.509  1.00  0.00    -0.390 OA
ATOM     44  H7  UNL     1      -3.045  -0.378   7.408  1.00  0.00     0.210 HD
ENDBRANCH   4  43
TORSDOF 15
ENDMDL