MODEL 4
REMARK VINA RESULT: -7.252532510      2.656      5.952
REMARK  18 active torsions:
REMARK  status: ('A' for Active; 'I' for Inactive)
REMARK       I    between atoms: N1_2  and  C2_4
REMARK    1  A    between atoms: C2_4  and  O2_6
REMARK    2  A    between atoms: O2_6  and  C3_7
REMARK    3  A    between atoms: C3_7  and  C4_8
REMARK    4  A    between atoms: C4_8  and  O3_9
REMARK    5  A    between atoms: C5_11  and  O4_12
REMARK    6  A    between atoms: O4_12  and  C6_13
REMARK    7  A    between atoms: C6_13  and  C7_15
REMARK    8  A    between atoms: C10_18  and  N2_19
REMARK    9  A    between atoms: C13_24  and  O8_25
REMARK   10  A    between atoms: C13_24  and  C14_27
REMARK   11  A    between atoms: C15_30  and  C16_31
REMARK   12  A    between atoms: C16_31  and  O11_32
REMARK   13  A    between atoms: C16_31  and  C17_34
REMARK   14  A    between atoms: C17_34  and  O12_35
REMARK   15  A    between atoms: C18_38  and  C20_40
REMARK   16  A    between atoms: C20_40  and  O14_41
REMARK   17  A    between atoms: O14_41  and  C21_42
REMARK   18  A    between atoms: C21_42  and  C22_44
ROOT
HETATM    1  C4  UNL     1      -6.434   0.362   5.756  1.00  0.00     0.142 C
HETATM    2  C5  UNL     1      -6.009  -1.085   5.420  1.00  0.00     0.219 C
HETATM    3  C13 UNL     1      -6.842  -1.567   4.287  1.00  0.00     0.204 C
HETATM    4  C15 UNL     1      -6.965  -0.550   3.173  1.00  0.00     0.201 C
HETATM    5  O13 UNL     1      -7.328   0.669   3.655  1.00  0.00    -0.363 OA
HETATM    6  C18 UNL     1      -6.440   1.236   4.568  1.00  0.00     0.115 C
HETATM    7  C19 UNL     1      -5.123   1.591   3.969  1.00  0.00     0.052 C
ENDROOT
BRANCH   2   8
HETATM    8  O4  UNL     1      -4.681  -1.189   5.447  1.00  0.00    -0.305 OA
BRANCH   8   9
HETATM    9  C6  UNL     1      -3.808  -1.773   6.311  1.00  0.00     0.293 C
HETATM   10  O5  UNL     1      -2.938  -0.960   6.632  1.00  0.00    -0.259 OA
BRANCH   9  11
HETATM   11  C7  UNL     1      -3.868  -3.143   6.798  1.00  0.00     0.039 A
HETATM   12  C8  UNL     1      -3.894  -3.370   8.143  1.00  0.00     0.020 A
HETATM   13  C9  UNL     1      -3.950  -4.663   8.648  1.00  0.00     0.037 A
HETATM   14  C10 UNL     1      -3.982  -5.754   7.809  1.00  0.00     0.102 A
HETATM   15  C11 UNL     1      -3.954  -5.513   6.452  1.00  0.00     0.037 A
HETATM   16  C12 UNL     1      -3.898  -4.221   5.946  1.00  0.00     0.020 A
BRANCH  14  17
HETATM   17  N2  UNL     1      -4.039  -7.086   8.305  1.00  0.00    -0.116 N
HETATM   18  O6  UNL     1      -4.866  -7.386   9.169  1.00  0.00    -0.532 OA
HETATM   19  O7  UNL     1      -3.192  -8.067   7.850  1.00  0.00    -0.532 OA
ENDBRANCH  14  17
ENDBRANCH   9  11
ENDBRANCH   8   9
ENDBRANCH   2   8
BRANCH   1  20
HETATM   20  C3  UNL     1      -5.711   0.841   6.969  1.00  0.00     0.224 C
BRANCH  20  21
HETATM   21  O2  UNL     1      -6.134   0.217   8.131  1.00  0.00    -0.301 OA
BRANCH  21  22
HETATM   22  C2  UNL     1      -5.401   0.006   9.262  1.00  0.00     0.360 C
HETATM   23  N1  UNL     1      -4.039   0.406   9.352  1.00  0.00    -0.341 N
HETATM   24  C1  UNL     1      -3.257   0.185  10.552  1.00  0.00     0.151 C
ATOM     25  H1  UNL     1      -3.600   0.860   8.550  1.00  0.00     0.164 HD
HETATM   26  O1  UNL     1      -5.977  -0.558  10.239  1.00  0.00    -0.239 OA
ENDBRANCH  21  22
ENDBRANCH  20  21
ENDBRANCH   1  20
BRANCH   1  27
HETATM   27  O3  UNL     1      -7.789   0.209   6.157  1.00  0.00    -0.382 OA
ATOM     28  H3  UNL     1      -8.232  -0.179   5.411  1.00  0.00     0.211 HD
ENDBRANCH   1  27
BRANCH   3  29
HETATM   29  O8  UNL     1      -8.145  -1.662   4.783  1.00  0.00    -0.374 OA
ATOM     30  H8  UNL     1      -8.709  -1.307   4.106  1.00  0.00     0.211 HD
ENDBRANCH   3  29
BRANCH   3  31
HETATM   31  C14 UNL     1      -6.500  -2.903   3.833  1.00  0.00     0.214 C
HETATM   32  O9  UNL     1      -5.773  -3.038   2.816  1.00  0.00    -0.646 OA
HETATM   33  O10 UNL     1      -6.898  -4.100   4.410  1.00  0.00    -0.646 OA
ENDBRANCH   3  31
BRANCH   6  34
HETATM   34  C20 UNL     1      -7.093   2.566   4.919  1.00  0.00     0.219 C
BRANCH  34  35
HETATM   35  O14 UNL     1      -8.207   2.630   3.988  1.00  0.00    -0.318 OA
BRANCH  35  36
HETATM   36  C21 UNL     1      -8.282   3.676   3.071  1.00  0.00     0.262 C
HETATM   37  O15 UNL     1      -7.191   4.232   2.779  1.00  0.00    -0.265 OA
BRANCH  36  38
HETATM   38  C22 UNL     1      -9.580   4.109   2.472  1.00  0.00     0.077 C
HETATM   39  C23 UNL     1      -9.777   5.591   2.567  1.00  0.00     0.020 C
HETATM   40  C24 UNL     1      -9.582   3.708   1.019  1.00  0.00     0.020 C
ENDBRANCH  36  38
ENDBRANCH  35  36
ENDBRANCH  34  35
ENDBRANCH   6  34
BRANCH   4  41
HETATM   41  C16 UNL     1      -7.914  -0.896   2.086  1.00  0.00     0.174 C
BRANCH  41  42
HETATM   42  O11 UNL     1      -7.090  -1.118   0.945  1.00  0.00    -0.391 OA
ATOM     43  H11 UNL     1      -7.590  -0.771   0.216  1.00  0.00     0.210 HD
ENDBRANCH  41  42
BRANCH  41  44
HETATM   44  C17 UNL     1      -8.894   0.137   1.667  1.00  0.00     0.198 C
BRANCH  44  45
HETATM   45  O12 UNL     1      -9.822   0.484   2.635  1.00  0.00    -0.398 OA
ATOM     46  H12 UNL     1     -10.704   0.621   2.310  1.00  0.00     0.209 HD
ENDBRANCH  44  45
ENDBRANCH  41  44
ENDBRANCH   4  41
TORSDOF 18
ENDMDL