MODEL 1
REMARK VINA RESULT: -8.689584777      0.000      0.000
REMARK  19 active torsions:
REMARK  status: ('A' for Active; 'I' for Inactive)
REMARK    1  A    between atoms: O1_2  and  C2_3
REMARK    2  A    between atoms: C2_3  and  O2_4
REMARK    3  A    between atoms: C2_3  and  C3_6
REMARK    4  A    between atoms: C3_6  and  O3_7
REMARK    5  A    between atoms: C3_6  and  C4_9
REMARK    6  A    between atoms: C5_10  and  C6_11
REMARK    7  A    between atoms: C7_12  and  C8_13
REMARK    8  A    between atoms: C8_13  and  C10_15
REMARK    9  A    between atoms: C8_13  and  O5_18
REMARK   10  A    between atoms: C10_15  and  O4_16
REMARK   11  A    between atoms: O5_18  and  C11_19
REMARK   12  A    between atoms: C16_25  and  O7_26
REMARK   13  A    between atoms: C17_28  and  O8_29
REMARK   14  A    between atoms: O8_29  and  C18_30
REMARK   15  A    between atoms: C18_30  and  C19_32
REMARK   16  A    between atoms: C25_38  and  O10_39
REMARK   17  A    between atoms: C26_41  and  O11_42
REMARK   18  A    between atoms: C26_41  and  C27_44
REMARK   19  A    between atoms: C27_44  and  C28_46
ROOT
HETATM    1  C4  UNL     1      -6.949  -0.005   4.967  1.00  0.00    -0.003 C
HETATM    2  C5  UNL     1      -8.080   0.500   5.423  1.00  0.00    -0.048 C
HETATM    3  C13 UNL     1      -7.804   1.446   6.605  1.00  0.00     0.040 C
HETATM    4  C14 UNL     1      -6.386   1.816   6.221  1.00  0.00     0.025 C
HETATM    5  C15 UNL     1      -5.899   0.423   5.931  1.00  0.00     0.060 C
HETATM    6  C16 UNL     1      -6.000  -0.472   7.194  1.00  0.00     0.167 C
HETATM    7  C17 UNL     1      -5.034   0.272   8.075  1.00  0.00     0.194 C
HETATM    8  C25 UNL     1      -3.945   0.654   7.136  1.00  0.00     0.194 C
HETATM    9  C26 UNL     1      -4.485   0.358   5.690  1.00  0.00     0.171 C
ENDROOT
BRANCH   1  10
HETATM   10  C3  UNL     1      -6.793  -0.870   3.815  1.00  0.00     0.105 C
BRANCH  10  11
HETATM   11  C2  UNL     1      -7.107  -2.268   3.554  1.00  0.00     0.314 C
BRANCH  11  12
HETATM   12  O1  UNL     1      -8.223  -2.433   2.734  1.00  0.00    -0.360 OA
HETATM   13  C1  UNL     1      -8.194  -3.597   1.997  1.00  0.00     0.205 C
ENDBRANCH  11  12
BRANCH  11  14
HETATM   14  O2  UNL     1      -7.082  -3.127   4.646  1.00  0.00    -0.365 OA
ATOM     15  H2  UNL     1      -6.229  -3.509   4.814  1.00  0.00     0.213 HD
ENDBRANCH  11  14
ENDBRANCH  10  11
BRANCH  10  16
HETATM   16  O3  UNL     1      -6.248  -0.330   2.741  1.00  0.00    -0.359 OA
ATOM     17  H3  UNL     1      -5.317  -0.520   2.725  1.00  0.00     0.217 HD
ENDBRANCH  10  16
ENDBRANCH   1  10
BRANCH   6  18
HETATM   18  O7  UNL     1      -5.476  -1.721   6.860  1.00  0.00    -0.392 OA
ATOM     19  H7  UNL     1      -5.831  -2.350   7.477  1.00  0.00     0.210 HD
ENDBRANCH   6  18
BRANCH   9  20
HETATM   20  O11 UNL     1      -3.897  -0.861   5.440  1.00  0.00    -0.378 OA
ATOM     21  H11 UNL     1      -3.754  -1.133   4.542  1.00  0.00     0.211 HD
ENDBRANCH   9  20
BRANCH   9  22
HETATM   22  C27 UNL     1      -3.838   1.358   4.812  1.00  0.00     0.263 C
HETATM   23  O12 UNL     1      -4.057   2.587   4.941  1.00  0.00    -0.282 OA
BRANCH  22  24
HETATM   24  C28 UNL     1      -2.910   0.994   3.746  1.00  0.00     0.250 C
HETATM   25  O13 UNL     1      -3.355   0.655   2.596  1.00  0.00    -0.642 OA
HETATM   26  O14 UNL     1      -1.542   0.995   3.915  1.00  0.00    -0.642 OA
ENDBRANCH  22  24
ENDBRANCH   9  22
BRANCH   2  27
HETATM   27  C6  UNL     1      -9.445   0.373   4.963  1.00  0.00     0.007 C
HETATM   28  C7  UNL     1     -10.240   1.449   4.819  1.00  0.00     0.014 C
BRANCH  28  29
HETATM   29  C8  UNL     1     -11.640   1.367   4.352  1.00  0.00     0.106 C
HETATM   30  C9  UNL     1     -12.313   2.732   4.521  1.00  0.00     0.053 C
BRANCH  29  31
HETATM   31  C10 UNL     1     -12.374   0.415   5.270  1.00  0.00     0.206 C
BRANCH  31  32
HETATM   32  O4  UNL     1     -12.303   0.825   6.598  1.00  0.00    -0.398 OA
ATOM     33  H4  UNL     1     -13.160   1.051   6.941  1.00  0.00     0.209 HD
ENDBRANCH  31  32
ENDBRANCH  29  31
BRANCH  29  34
HETATM   34  O5  UNL     1     -11.634   0.955   3.018  1.00  0.00    -0.304 OA
BRANCH  34  35
HETATM   35  C11 UNL     1     -11.769   1.771   1.922  1.00  0.00     0.255 C
HETATM   36  C12 UNL     1     -13.051   1.756   1.155  1.00  0.00     0.126 C
HETATM   37  O6  UNL     1     -10.811   2.500   1.600  1.00  0.00    -0.266 OA
ENDBRANCH  34  35
ENDBRANCH  29  34
ENDBRANCH  28  29
ENDBRANCH   2  27
BRANCH   7  38
HETATM   38  O8  UNL     1      -4.568  -0.530   9.150  1.00  0.00    -0.307 OA
BRANCH  38  39
HETATM   39  C18 UNL     1      -4.357  -0.032  10.424  1.00  0.00     0.293 C
HETATM   40  O9  UNL     1      -3.300   0.611  10.620  1.00  0.00    -0.259 OA
BRANCH  39  41
HETATM   41  C19 UNL     1      -5.291  -0.216  11.523  1.00  0.00     0.039 A
HETATM   42  C20 UNL     1      -6.659  -0.206  11.347  1.00  0.00     0.017 A
HETATM   43  C21 UNL     1      -7.440  -0.393  12.466  1.00  0.00     0.001 A
HETATM   44  C22 UNL     1      -6.922  -0.585  13.731  1.00  0.00     0.000 A
HETATM   45  C23 UNL     1      -5.555  -0.593  13.898  1.00  0.00     0.001 A
HETATM   46  C24 UNL     1      -4.772  -0.408  12.787  1.00  0.00     0.017 A
ENDBRANCH  39  41
ENDBRANCH  38  39
ENDBRANCH   7  38
BRANCH   8  47
HETATM   47  O10 UNL     1      -3.569   1.949   7.297  1.00  0.00    -0.389 OA
ATOM     48  H10 UNL     1      -3.014   2.248   6.587  1.00  0.00     0.210 HD
ENDBRANCH   8  47
TORSDOF 19
ENDMDL