MODEL 5
REMARK VINA RESULT: -8.203005351      4.563     10.001
REMARK  13 active torsions:
REMARK  status: ('A' for Active; 'I' for Inactive)
REMARK    1  A    between atoms: C5_9  and  N3_10
REMARK    2  A    between atoms: C8_17  and  N6_18
REMARK    3  A    between atoms: N7_21  and  C11_22
REMARK    4  A    between atoms: C14_25  and  O1_26
REMARK    5  A    between atoms: C16_29  and  C17_30
REMARK    6  A    between atoms: N8_31  and  O2_33
REMARK    7  A    between atoms: O2_33  and  C18_34
REMARK    8  A    between atoms: C18_34  and  C19_35
REMARK    9  A    between atoms: C19_35  and  O3_36
REMARK   10  A    between atoms: O3_36  and  C20_37
REMARK   11  A    between atoms: C20_37  and  C21_38
REMARK   12  A    between atoms: C21_38  and  N9_39
REMARK   13  A    between atoms: C24_42  and  O4_43
ROOT
HETATM    1  N3  UNL     1      -9.834   1.654   3.575  1.00  0.00    -0.278 N
ATOM      2  H3  UNL     1      -9.694   2.226   2.742  1.00  0.00     0.179 HD
HETATM    3  C6  UNL     1     -11.119   1.254   3.982  1.00  0.00     0.183 C
HETATM    4  N4  UNL     1     -12.175   0.924   4.340  1.00  0.00    -0.172 NA
ENDROOT
BRANCH   1   5
HETATM    5  C5  UNL     1      -8.721   1.219   4.387  1.00  0.00     0.140 A
HETATM    6  C4  UNL     1      -7.574   0.882   3.837  1.00  0.00     0.110 A
HETATM    7  N1  UNL     1      -7.157   0.847   2.557  1.00  0.00    -0.323 N
HETATM    8  C3  UNL     1      -6.548   0.475   4.654  1.00  0.00     0.089 A
HETATM    9  C1  UNL     1      -7.872   1.184   1.354  1.00  0.00     0.159 C
HETATM   10  C2  UNL     1      -5.882   0.421   2.594  1.00  0.00     0.179 A
HETATM   11  S1  UNL     1      -4.893   0.197   1.293  1.00  0.00    -0.040 SA
HETATM   12  N2  UNL     1      -5.504   0.194   3.843  1.00  0.00    -0.329 N
ATOM     13  H2  UNL     1      -4.585  -0.136   4.141  1.00  0.00     0.168 HD
HETATM   14  C8  UNL     1      -6.655   0.405   5.965  1.00  0.00     0.054 A
HETATM   15  C7  UNL     1      -7.892   0.759   6.672  1.00  0.00     0.180 A
HETATM   16  N5  UNL     1      -8.933   1.176   5.784  1.00  0.00    -0.368 N
ATOM     17  H5  UNL     1      -9.840   1.445   6.163  1.00  0.00     0.161 HD
BRANCH  14  18
HETATM   18  N6  UNL     1      -5.491  -0.040   6.710  1.00  0.00    -0.378 N
HETATM   19  C9  UNL     1      -5.496  -1.413   7.138  1.00  0.00     0.142 C
HETATM   20  C10 UNL     1      -4.629  -1.561   8.356  1.00  0.00     0.143 C
HETATM   21  N7  UNL     1      -4.751  -0.350   9.141  1.00  0.00    -0.377 N
HETATM   22  C27 UNL     1      -4.182   0.849   8.521  1.00  0.00     0.143 C
HETATM   23  C28 UNL     1      -4.380   0.812   7.020  1.00  0.00     0.142 C
BRANCH  21  24
HETATM   24  C11 UNL     1      -5.375  -0.346  10.408  1.00  0.00     0.042 A
HETATM   25  C12 UNL     1      -6.778  -0.360  10.428  1.00  0.00     0.033 A
HETATM   26  C13 UNL     1      -7.453  -0.373  11.626  1.00  0.00     0.039 A
HETATM   27  C14 UNL     1      -6.759  -0.372  12.818  1.00  0.00     0.066 A
HETATM   28  C15 UNL     1      -5.388  -0.359  12.843  1.00  0.00     0.051 A
HETATM   29  C16 UNL     1      -4.709  -0.345  11.614  1.00  0.00     0.010 A
BRANCH  27  30
HETATM   30  O1  UNL     1      -7.471  -0.386  14.031  1.00  0.00    -0.361 OA
ATOM     31  H1  UNL     1      -7.892  -1.188  14.316  1.00  0.00     0.217 HD
ENDBRANCH  27  30
BRANCH  29  32
HETATM   32  C17 UNL     1      -3.251  -0.312  11.592  1.00  0.00     0.127 C
HETATM   33  N8  UNL     1      -2.654   0.777  11.847  1.00  0.00    -0.277 N
ATOM     34  H8  UNL     1      -3.229   1.591  12.060  1.00  0.00     0.193 HD
BRANCH  33  35
HETATM   35  O2  UNL     1      -1.298   0.941  11.858  1.00  0.00    -0.279 OA
BRANCH  35  36
HETATM   36  C18 UNL     1      -0.620   1.770  10.923  1.00  0.00     0.227 C
BRANCH  36  37
HETATM   37  C19 UNL     1      -0.039   0.858   9.866  1.00  0.00     0.196 C
BRANCH  37  38
HETATM   38  O3  UNL     1       1.336   0.874   9.841  1.00  0.00    -0.387 OA
BRANCH  38  39
HETATM   39  C20 UNL     1       1.911   1.550  10.906  1.00  0.00     0.198 C
BRANCH  39  40
HETATM   40  C21 UNL     1       3.247   0.941  11.226  1.00  0.00     0.298 C
BRANCH  40  41
HETATM   41  N9  UNL     1       3.235   0.335  12.514  1.00  0.00     0.090 N
HETATM   42  C22 UNL     1       1.957   0.566  13.183  1.00  0.00     0.275 C
HETATM   43  C23 UNL     1       1.995   0.201  14.629  1.00  0.00     0.062 C
HETATM   44  C24 UNL     1       3.059  -0.806  14.961  1.00  0.00     0.121 C
HETATM   45  C25 UNL     1       4.413  -0.474  14.429  1.00  0.00     0.062 C
HETATM   46  C26 UNL     1       4.307   0.656  13.394  1.00  0.00     0.275 C
BRANCH  44  47
HETATM   47  O4  UNL     1       2.711  -2.092  14.517  1.00  0.00    -0.395 OA
ATOM     48  H4  UNL     1       3.072  -2.767  15.081  1.00  0.00     0.210 HD
ENDBRANCH  44  47
ENDBRANCH  40  41
ENDBRANCH  39  40
ENDBRANCH  38  39
ENDBRANCH  37  38
ENDBRANCH  36  37
ENDBRANCH  35  36
ENDBRANCH  33  35
ENDBRANCH  29  32
ENDBRANCH  21  24
ENDBRANCH  14  18
ENDBRANCH   1   5
TORSDOF 13
ENDMDL