MODEL 4
REMARK VINA RESULT: -7.164667602      2.327      4.785
REMARK  17 active torsions:
REMARK  status: ('A' for Active; 'I' for Inactive)
REMARK    1  A    between atoms: C2_2  and  C3_3
REMARK    2  A    between atoms: C3_3  and  C5_5
REMARK    3  A    between atoms: C5_5  and  O1_6
REMARK    4  A    between atoms: C5_5  and  C6_8
REMARK    5  A    between atoms: C6_8  and  C7_10
REMARK    6  A    between atoms: C7_10  and  O3_11
REMARK    7  A    between atoms: C9_15  and  O5_16
REMARK    8  A    between atoms: C17_26  and  O7_27
REMARK    9  A    between atoms: C17_26  and  C18_29
REMARK   10  A    between atoms: C20_32  and  O9_33
REMARK   11  A    between atoms: C20_32  and  C21_35
REMARK   12  A    between atoms: C21_35  and  O10_36
REMARK   13  A    between atoms: C21_35  and  C22_38
REMARK   14  A    between atoms: C25_42  and  O12_43
REMARK   15  A    between atoms: O12_43  and  C26_44
REMARK   16  A    between atoms: C26_44  and  C27_46
REMARK   17  A    between atoms: C27_46  and  C28_47
ROOT
HETATM    1  C7  UNL     1      -4.987  -0.311   7.596  1.00  0.00     0.218 C
HETATM    2  C8  UNL     1      -4.883   0.764   6.575  1.00  0.00     0.214 C
HETATM    3  O4  UNL     1      -4.983   1.897   6.971  1.00  0.00    -0.290 OA
HETATM    4  C9  UNL     1      -4.672   0.469   5.143  1.00  0.00     0.190 C
HETATM    5  C10 UNL     1      -5.539  -0.716   4.906  1.00  0.00     0.036 C
HETATM    6  C11 UNL     1      -6.607  -0.678   4.146  1.00  0.00     0.026 C
HETATM    7  C12 UNL     1      -7.038   0.531   3.462  1.00  0.00     0.002 A
HETATM    8  C13 UNL     1      -6.324   1.624   3.581  1.00  0.00    -0.007 A
HETATM    9  C14 UNL     1      -6.773   2.858   2.933  1.00  0.00     0.015 A
HETATM   10  C15 UNL     1      -7.881   2.868   2.231  1.00  0.00     0.055 A
HETATM   11  C16 UNL     1      -8.693   1.696   2.065  1.00  0.00     0.196 A
HETATM   12  O6  UNL     1      -9.758   1.751   1.409  1.00  0.00    -0.289 OA
HETATM   13  C17 UNL     1      -8.306   0.419   2.650  1.00  0.00     0.210 A
HETATM   14  C20 UNL     1      -4.944   1.518   4.127  1.00  0.00     0.154 C
HETATM   15  C24 UNL     1      -5.186  -1.906   5.705  1.00  0.00     0.192 C
HETATM   16  O11 UNL     1      -5.353  -3.011   5.171  1.00  0.00    -0.290 OA
HETATM   17  C25 UNL     1      -4.662  -1.704   7.085  1.00  0.00     0.256 C
ENDROOT
BRANCH   1  18
HETATM   18  C6  UNL     1      -4.151   0.021   8.767  1.00  0.00     0.200 C
HETATM   19  O2  UNL     1      -3.289   0.893   8.655  1.00  0.00    -0.291 OA
BRANCH  18  20
HETATM   20  C5  UNL     1      -4.255  -0.620  10.079  1.00  0.00     0.195 C
BRANCH  20  21
HETATM   21  C3  UNL     1      -4.751   0.209  11.210  1.00  0.00     0.017 C
HETATM   22  C4  UNL     1      -4.090  -0.168  12.530  1.00  0.00     0.013 C
BRANCH  21  23
HETATM   23  C2  UNL     1      -6.224  -0.221  11.418  1.00  0.00     0.002 C
HETATM   24  C1  UNL     1      -6.578  -0.235  12.878  1.00  0.00     0.005 C
ENDBRANCH  21  23
ENDBRANCH  20  21
BRANCH  20  25
HETATM   25  O1  UNL     1      -3.051  -1.198  10.522  1.00  0.00    -0.388 OA
ATOM     26  H1  UNL     1      -2.718  -1.701   9.789  1.00  0.00     0.210 HD
ENDBRANCH  20  25
ENDBRANCH  18  20
ENDBRANCH   1  18
BRANCH   1  27
HETATM   27  O3  UNL     1      -6.331  -0.295   8.041  1.00  0.00    -0.372 OA
ATOM     28  H3  UNL     1      -6.301  -0.239   8.989  1.00  0.00     0.211 HD
ENDBRANCH   1  27
BRANCH  17  29
HETATM   29  O12 UNL     1      -3.377  -2.140   7.325  1.00  0.00    -0.304 OA
BRANCH  29  30
HETATM   30  C26 UNL     1      -2.980  -3.380   7.737  1.00  0.00     0.260 C
HETATM   31  O13 UNL     1      -1.831  -3.744   7.399  1.00  0.00    -0.265 OA
BRANCH  30  32
HETATM   32  C27 UNL     1      -3.804  -4.307   8.544  1.00  0.00     0.115 C
BRANCH  32  33
HETATM   33  C28 UNL     1      -3.759  -5.716   8.058  1.00  0.00    -0.013 C
HETATM   34  C29 UNL     1      -4.228  -5.895   6.641  1.00  0.00     0.010 C
HETATM   35  C30 UNL     1      -4.724  -6.515   8.948  1.00  0.00     0.010 C
ENDBRANCH  32  33
ENDBRANCH  30  32
ENDBRANCH  29  30
ENDBRANCH  17  29
BRANCH   4  36
HETATM   36  O5  UNL     1      -3.305   0.105   4.963  1.00  0.00    -0.374 OA
ATOM     37  H5  UNL     1      -3.021  -0.366   5.738  1.00  0.00     0.211 HD
ENDBRANCH   4  36
BRANCH  14  38
HETATM   38  O9  UNL     1      -4.235   0.894   3.002  1.00  0.00    -0.378 OA
ATOM     39  H9  UNL     1      -4.308  -0.008   3.290  1.00  0.00     0.211 HD
ENDBRANCH  14  38
BRANCH  14  40
HETATM   40  C21 UNL     1      -4.221   2.784   4.341  1.00  0.00     0.161 C
BRANCH  40  41
HETATM   41  O10 UNL     1      -3.052   2.422   5.134  1.00  0.00    -0.392 OA
ATOM     42  H10 UNL     1      -2.333   2.390   4.513  1.00  0.00     0.210 HD
ENDBRANCH  40  41
BRANCH  40  43
HETATM   43  C22 UNL     1      -3.539   3.326   3.088  1.00  0.00     0.031 C
HETATM   44  C23 UNL     1      -3.619   4.801   2.881  1.00  0.00     0.007 C
ENDBRANCH  40  43
ENDBRANCH  14  40
BRANCH  13  45
HETATM   45  O7  UNL     1      -9.338   0.026   3.521  1.00  0.00    -0.370 OA
ATOM     46  H7  UNL     1      -9.098  -0.816   3.889  1.00  0.00     0.212 HD
ENDBRANCH  13  45
BRANCH  13  47
HETATM   47  C18 UNL     1      -8.173  -0.648   1.633  1.00  0.00     0.170 C
HETATM   48  C19 UNL     1      -7.420  -0.468   0.366  1.00  0.00     0.095 C
HETATM   49  O8  UNL     1      -8.699  -1.736   1.822  1.00  0.00    -0.294 OA
ENDBRANCH  13  47
TORSDOF 17
ENDMDL