MODEL 4
REMARK VINA RESULT: -7.238982740      1.757      2.712
REMARK  17 active torsions:
REMARK  status: ('A' for Active; 'I' for Inactive)
REMARK    1  A    between atoms: C2_2  and  C4_4
REMARK    2  A    between atoms: C4_4  and  C5_5
REMARK    3  A    between atoms: C4_4  and  C28_45
REMARK    4  A    between atoms: C5_5  and  C6_6
REMARK    5  A    between atoms: C7_8  and  C8_9
REMARK    6  A    between atoms: C10_12  and  C11_13
REMARK    7  A    between atoms: C11_13  and  O3_14
REMARK    8  A    between atoms: C11_13  and  C12_16
REMARK    9  A    between atoms: C12_16  and  O4_17
REMARK   10  A    between atoms: O4_17  and  C13_18
REMARK   11  A    between atoms: C17_23  and  O6_24
REMARK   12  A    between atoms: O6_24  and  C18_25
REMARK   13  A    between atoms: C21_29  and  O8_30
REMARK   14  A    between atoms: C22_32  and  O9_33
REMARK   15  A    between atoms: C23_35  and  O10_36
REMARK   16  A    between atoms: C24_38  and  O11_39
REMARK   17  A    between atoms: C28_45  and  O13_47
ROOT
HETATM    1  C13 UNL     1      -2.484   2.086   5.903  1.00  0.00     0.267 C
HETATM    2  O5  UNL     1      -1.667   3.206   5.566  1.00  0.00    -0.349 OA
HETATM    3  C14 UNL     1      -2.622   4.145   5.179  1.00  0.00     0.069 A
HETATM    4  C15 UNL     1      -3.332   3.382   4.134  1.00  0.00     0.050 C
HETATM    5  C16 UNL     1      -3.586   2.086   4.875  1.00  0.00     0.075 C
HETATM    6  C17 UNL     1      -4.910   1.989   5.521  1.00  0.00     0.162 C
HETATM    7  C24 UNL     1      -5.521   3.129   6.199  1.00  0.00     0.148 C
HETATM    8  C25 UNL     1      -4.991   4.510   5.892  1.00  0.00     0.042 C
HETATM    9  C26 UNL     1      -3.544   4.654   6.223  1.00  0.00     0.026 A
HETATM   10  C27 UNL     1      -2.625   5.555   5.386  1.00  0.00     0.046 A
ENDROOT
BRANCH   1  11
HETATM   11  O4  UNL     1      -1.740   0.939   5.973  1.00  0.00    -0.358 OA
BRANCH  11  12
HETATM   12  C12 UNL     1      -1.038   0.669   7.088  1.00  0.00     0.205 C
BRANCH  12  13
HETATM   13  C11 UNL     1      -1.589  -0.329   8.049  1.00  0.00     0.174 C
BRANCH  13  14
HETATM   14  C10 UNL     1      -2.889  -0.928   7.566  1.00  0.00     0.181 C
HETATM   15  C9  UNL     1      -2.685  -2.387   7.405  1.00  0.00     0.047 C
HETATM   16  C7  UNL     1      -3.808  -3.109   7.380  1.00  0.00     0.108 C
HETATM   17  O1  UNL     1      -4.994  -2.429   7.504  1.00  0.00    -0.318 OA
HETATM   18  C6  UNL     1      -5.113  -1.194   8.132  1.00  0.00     0.268 C
HETATM   19  O12 UNL     1      -3.875  -0.633   8.485  1.00  0.00    -0.349 OA
BRANCH  16  20
HETATM   20  C8  UNL     1      -3.713  -4.552   7.224  1.00  0.00     0.295 C
HETATM   21  O2  UNL     1      -4.589  -5.247   7.830  1.00  0.00    -0.299 OA
ENDBRANCH  16  20
BRANCH  18  22
HETATM   22  C5  UNL     1      -5.883  -1.331   9.389  1.00  0.00     0.068 C
BRANCH  22  23
HETATM   23  C4  UNL     1      -5.994  -0.188  10.309  1.00  0.00     0.022 C
BRANCH  23  24
HETATM   24  C2  UNL     1      -7.360   0.142  10.815  1.00  0.00    -0.016 C
HETATM   25  C1  UNL     1      -8.201   0.734   9.697  1.00  0.00     0.010 C
HETATM   26  C3  UNL     1      -8.123  -0.922  11.494  1.00  0.00     0.010 C
ENDBRANCH  23  24
BRANCH  23  27
HETATM   27  C28 UNL     1      -4.972  -0.219  11.435  1.00  0.00     0.118 C
HETATM   28  C29 UNL     1      -5.674   0.275  12.693  1.00  0.00     0.040 C
BRANCH  27  29
HETATM   29  O13 UNL     1      -3.989   0.734  11.112  1.00  0.00    -0.396 OA
ATOM     30  H13 UNL     1      -4.229   1.098  10.268  1.00  0.00     0.210 HD
ENDBRANCH  27  29
ENDBRANCH  23  27
ENDBRANCH  22  23
ENDBRANCH  18  22
ENDBRANCH  13  14
BRANCH  13  31
HETATM   31  O3  UNL     1      -1.829   0.186   9.332  1.00  0.00    -0.391 OA
ATOM     32  H3  UNL     1      -2.499   0.854   9.241  1.00  0.00     0.210 HD
ENDBRANCH  13  31
ENDBRANCH  12  13
ENDBRANCH  11  12
ENDBRANCH   1  11
BRANCH   6  33
HETATM   33  O6  UNL     1      -5.809   1.558   4.518  1.00  0.00    -0.350 OA
BRANCH  33  34
HETATM   34  C18 UNL     1      -6.289   0.277   4.755  1.00  0.00     0.292 C
HETATM   35  O7  UNL     1      -7.684   0.348   4.785  1.00  0.00    -0.351 OA
HETATM   36  C19 UNL     1      -8.253  -0.867   5.167  1.00  0.00     0.152 C
HETATM   37  C20 UNL     1      -9.741  -0.637   5.322  1.00  0.00     0.042 C
HETATM   38  C21 UNL     1      -8.072  -1.840   4.019  1.00  0.00     0.178 C
HETATM   39  C22 UNL     1      -6.614  -1.945   3.709  1.00  0.00     0.183 C
HETATM   40  C23 UNL     1      -5.915  -0.624   3.597  1.00  0.00     0.204 C
BRANCH  38  41
HETATM   41  O8  UNL     1      -8.752  -1.316   2.916  1.00  0.00    -0.390 OA
ATOM     42  H8  UNL     1      -9.674  -1.280   3.141  1.00  0.00     0.210 HD
ENDBRANCH  38  41
BRANCH  39  43
HETATM   43  O9  UNL     1      -5.952  -2.769   4.621  1.00  0.00    -0.390 OA
ATOM     44  H9  UNL     1      -6.131  -2.513   5.518  1.00  0.00     0.210 HD
ENDBRANCH  39  43
BRANCH  40  45
HETATM   45  O10 UNL     1      -6.290   0.031   2.427  1.00  0.00    -0.388 OA
ATOM     46  H10 UNL     1      -6.560  -0.635   1.806  1.00  0.00     0.210 HD
ENDBRANCH  40  45
ENDBRANCH  33  34
ENDBRANCH   6  33
BRANCH   7  47
HETATM   47  O11 UNL     1      -6.935   3.121   6.136  1.00  0.00    -0.393 OA
ATOM     48  H11 UNL     1      -7.307   2.250   6.204  1.00  0.00     0.210 HD
ENDBRANCH   7  47
TORSDOF 17
ENDMDL