MODEL 4
REMARK VINA RESULT: -7.196710073      2.620      4.458
REMARK  16 active torsions:
REMARK  status: ('A' for Active; 'I' for Inactive)
REMARK    1  A    between atoms: O1_2  and  C2_3
REMARK    2  A    between atoms: C2_3  and  C3_4
REMARK    3  A    between atoms: C3_4  and  O2_5
REMARK    4  A    between atoms: C3_4  and  C9_14
REMARK    5  A    between atoms: O2_5  and  C4_6
REMARK    6  A    between atoms: C4_6  and  C6_8
REMARK    7  A    between atoms: C4_6  and  C8_11
REMARK    8  A    between atoms: C11_16  and  O6_17
REMARK    9  A    between atoms: O6_17  and  C12_18
REMARK   10  A    between atoms: C20_26  and  O7_27
REMARK   11  A    between atoms: C21_29  and  O8_30
REMARK   12  A    between atoms: C22_32  and  O9_33
REMARK   13  A    between atoms: O9_33  and  C23_34
REMARK   14  A    between atoms: C25_37  and  O11_38
REMARK   15  A    between atoms: C26_40  and  O12_41
REMARK   16  A    between atoms: C27_43  and  O13_44
ROOT
HETATM    1  C9  UNL     1      -5.888  -1.066   5.362  1.00  0.00     0.022 C
HETATM    2  C10 UNL     1      -5.122  -0.696   6.585  1.00  0.00     0.042 C
HETATM    3  C11 UNL     1      -5.577   0.564   7.237  1.00  0.00     0.153 C
HETATM    4  C21 UNL     1      -6.995   0.952   7.039  1.00  0.00     0.176 C
HETATM    5  C22 UNL     1      -7.758   0.329   5.931  1.00  0.00     0.156 C
HETATM    6  C28 UNL     1      -7.351  -1.143   5.715  1.00  0.00     0.042 C
ENDROOT
BRANCH   1   7
HETATM    7  C3  UNL     1      -5.448  -2.381   4.721  1.00  0.00     0.151 C
BRANCH   7   8
HETATM    8  C2  UNL     1      -6.543  -2.828   3.739  1.00  0.00     0.199 C
BRANCH   8   9
HETATM    9  O1  UNL     1      -6.302  -2.365   2.481  1.00  0.00    -0.393 OA
HETATM   10  C1  UNL     1      -7.334  -1.673   1.891  1.00  0.00     0.201 C
ENDBRANCH   8   9
ENDBRANCH   7   8
BRANCH   7  11
HETATM   11  O2  UNL     1      -5.180  -3.330   5.563  1.00  0.00    -0.354 OA
BRANCH  11  12
HETATM   12  C4  UNL     1      -4.230  -3.999   6.096  1.00  0.00     0.205 C
HETATM   13  C5  UNL     1      -2.873  -4.078   5.369  1.00  0.00     0.067 C
BRANCH  12  14
HETATM   14  C6  UNL     1      -3.815  -3.736   7.516  1.00  0.00     0.168 C
HETATM   15  C7  UNL     1      -2.438  -3.422   7.871  1.00  0.00     0.095 C
HETATM   16  O3  UNL     1      -4.673  -3.789   8.411  1.00  0.00    -0.294 OA
ENDBRANCH  12  14
BRANCH  12  17
HETATM   17  C8  UNL     1      -4.633  -5.470   6.142  1.00  0.00     0.216 C
HETATM   18  O4  UNL     1      -5.672  -5.789   5.553  1.00  0.00    -0.645 OA
HETATM   19  O5  UNL     1      -3.852  -6.342   6.810  1.00  0.00    -0.645 OA
ENDBRANCH  12  17
ENDBRANCH  11  12
ENDBRANCH   7  11
ENDBRANCH   1   7
BRANCH   3  20
HETATM   20  O6  UNL     1      -5.227   0.584   8.607  1.00  0.00    -0.375 OA
BRANCH  20  21
HETATM   21  C12 UNL     1      -3.875   0.218   8.812  1.00  0.00     0.152 C
HETATM   22  C13 UNL     1      -3.853  -0.751   9.953  1.00  0.00     0.039 C
HETATM   23  C14 UNL     1      -3.246  -0.304  11.227  1.00  0.00    -0.015 C
HETATM   24  C15 UNL     1      -4.189   0.571  12.018  1.00  0.00     0.010 C
HETATM   25  C16 UNL     1      -1.894   0.340  11.073  1.00  0.00     0.015 C
HETATM   26  C17 UNL     1      -1.757   1.042   9.747  1.00  0.00    -0.019 C
HETATM   27  C18 UNL     1      -0.976   0.157   8.810  1.00  0.00     0.017 C
HETATM   28  C19 UNL     1      -0.938   2.330   9.907  1.00  0.00     0.017 C
HETATM   29  C20 UNL     1      -3.055   1.421   9.146  1.00  0.00     0.154 C
BRANCH  29  30
HETATM   30  O7  UNL     1      -2.843   2.251   8.042  1.00  0.00    -0.392 OA
ATOM     31  H7  UNL     1      -3.508   2.925   7.959  1.00  0.00     0.210 HD
ENDBRANCH  29  30
ENDBRANCH  20  21
ENDBRANCH   3  20
BRANCH   5  32
HETATM   32  O9  UNL     1      -9.121   0.281   6.142  1.00  0.00    -0.351 OA
BRANCH  32  33
HETATM   33  C23 UNL     1      -9.867   0.872   5.139  1.00  0.00     0.291 C
HETATM   34  O10 UNL     1      -9.499   0.423   3.870  1.00  0.00    -0.356 OA
HETATM   35  C24 UNL     1      -9.999   1.255   2.900  1.00  0.00     0.205 C
HETATM   36  C25 UNL     1     -11.503   1.385   2.940  1.00  0.00     0.173 C
HETATM   37  C26 UNL     1     -12.011   1.658   4.337  1.00  0.00     0.182 C
HETATM   38  C27 UNL     1     -11.355   0.624   5.265  1.00  0.00     0.204 C
BRANCH  36  39
HETATM   39  O11 UNL     1     -11.857   2.481   2.150  1.00  0.00    -0.391 OA
ATOM     40  H11 UNL     1     -12.356   3.081   2.692  1.00  0.00     0.210 HD
ENDBRANCH  36  39
BRANCH  37  41
HETATM   41  O12 UNL     1     -11.543   2.892   4.751  1.00  0.00    -0.390 OA
ATOM     42  H12 UNL     1     -10.594   2.892   4.705  1.00  0.00     0.210 HD
ENDBRANCH  37  41
BRANCH  38  43
HETATM   43  O13 UNL     1     -11.822   0.749   6.554  1.00  0.00    -0.388 OA
ATOM     44  H13 UNL     1     -12.756   0.593   6.633  1.00  0.00     0.210 HD
ENDBRANCH  38  43
ENDBRANCH  32  33
ENDBRANCH   5  32
BRANCH   4  45
HETATM   45  O8  UNL     1      -7.705   0.683   8.222  1.00  0.00    -0.390 OA
ATOM     46  H8  UNL     1      -7.848   1.501   8.684  1.00  0.00     0.210 HD
ENDBRANCH   4  45
TORSDOF 16
ENDMDL