MODEL 2
REMARK VINA RESULT: -7.141081554      2.060      6.729
REMARK  17 active torsions:
REMARK  status: ('A' for Active; 'I' for Inactive)
REMARK    1  A    between atoms: C2_2  and  C3_3
REMARK    2  A    between atoms: C2_2  and  C5_9
REMARK    3  A    between atoms: C3_3  and  O1_4
REMARK    4  A    between atoms: C3_3  and  C4_6
REMARK    5  A    between atoms: C5_9  and  O4_10
REMARK    6  A    between atoms: C5_9  and  C10_17
REMARK    7  A    between atoms: O4_10  and  C6_11
REMARK    8  A    between atoms: C6_11  and  C9_14
REMARK    9  A    between atoms: C9_14  and  O5_15
REMARK   10  A    between atoms: C10_17  and  O6_18
REMARK   11  A    between atoms: C10_17  and  C11_20
REMARK   12  A    between atoms: C11_20  and  O7_21
REMARK   13  A    between atoms: O7_21  and  C12_22
REMARK   14  A    between atoms: C16_28  and  O10_29
REMARK   15  A    between atoms: C21_35  and  O11_36
REMARK   16  A    between atoms: O11_36  and  C22_37
REMARK   17  A    between atoms: C28_45  and  O14_46
ROOT
HETATM    1  C12 UNL     1      -6.217   0.070   7.110  1.00  0.00     0.257 A
HETATM    2  O8  UNL     1      -6.972   0.966   7.864  1.00  0.00    -0.303 OA
HETATM    3  C13 UNL     1      -6.083   0.131   8.444  1.00  0.00     0.258 A
HETATM    4  O9  UNL     1      -5.130   0.711   9.187  1.00  0.00    -0.332 OA
HETATM    5  C14 UNL     1      -4.822  -0.466   9.761  1.00  0.00     0.119 C
HETATM    6  C15 UNL     1      -4.857  -0.291  11.297  1.00  0.00     0.052 C
HETATM    7  C16 UNL     1      -3.704  -1.274   9.260  1.00  0.00     0.166 C
HETATM    8  C17 UNL     1      -2.907  -0.932   8.091  1.00  0.00     0.080 C
HETATM    9  C18 UNL     1      -3.224  -1.883   6.983  1.00  0.00    -0.075 C
HETATM   10  C19 UNL     1      -2.647  -3.262   7.182  1.00  0.00     0.044 C
HETATM   11  C20 UNL     1      -3.922  -1.717   5.868  1.00  0.00     0.011 C
HETATM   12  C21 UNL     1      -4.621  -0.552   5.329  1.00  0.00     0.189 C
HETATM   13  C24 UNL     1      -4.971   0.496   6.357  1.00  0.00     0.224 C
HETATM   14  O13 UNL     1      -4.007   1.005   7.111  1.00  0.00    -0.366 OA
HETATM   15  C25 UNL     1      -2.883   0.423   7.527  1.00  0.00     0.064 C
HETATM   16  C26 UNL     1      -1.846   0.497   6.421  1.00  0.00     0.046 C
HETATM   17  C27 UNL     1      -2.245   1.317   8.630  1.00  0.00     0.046 C
HETATM   18  C28 UNL     1      -6.210  -0.967   9.359  1.00  0.00     0.223 C
ENDROOT
BRANCH   1  19
HETATM   19  O7  UNL     1      -7.118  -0.825   6.479  1.00  0.00    -0.346 OA
BRANCH  19  20
HETATM   20  C11 UNL     1      -8.141  -0.030   5.980  1.00  0.00     0.206 C
BRANCH  20  21
HETATM   21  C10 UNL     1      -8.829  -0.732   4.835  1.00  0.00     0.175 C
BRANCH  21  22
HETATM   22  C5  UNL     1      -8.707  -0.017   3.518  1.00  0.00     0.184 C
BRANCH  22  23
HETATM   23  C2  UNL     1      -8.204  -0.916   2.461  1.00  0.00    -0.019 C
HETATM   24  C1  UNL     1      -7.773  -0.423   1.281  1.00  0.00     0.020 C
BRANCH  23  25
HETATM   25  C3  UNL     1      -8.148  -2.378   2.638  1.00  0.00     0.249 C
BRANCH  25  26
HETATM   26  O1  UNL     1      -8.283  -3.015   1.372  1.00  0.00    -0.380 OA
ATOM     27  H1  UNL     1      -8.550  -2.377   0.722  1.00  0.00     0.211 HD
ENDBRANCH  25  26
BRANCH  25  28
HETATM   28  C4  UNL     1      -6.865  -2.833   3.203  1.00  0.00     0.207 C
HETATM   29  O2  UNL     1      -5.788  -2.636   2.615  1.00  0.00    -0.646 OA
HETATM   30  O3  UNL     1      -6.840  -3.492   4.407  1.00  0.00    -0.646 OA
ENDBRANCH  25  28
ENDBRANCH  23  25
ENDBRANCH  22  23
BRANCH  22  31
HETATM   31  O4  UNL     1     -10.000   0.433   3.213  1.00  0.00    -0.366 OA
BRANCH  31  32
HETATM   32  C6  UNL     1     -10.147   1.791   3.228  1.00  0.00     0.076 C
HETATM   33  C7  UNL     1     -11.318   2.275   4.059  1.00  0.00     0.048 C
HETATM   34  C8  UNL     1     -10.493   2.185   1.780  1.00  0.00     0.048 C
BRANCH  32  35
HETATM   35  C9  UNL     1      -8.951   2.591   3.611  1.00  0.00     0.201 C
BRANCH  35  36
HETATM   36  O5  UNL     1      -9.033   3.931   3.245  1.00  0.00    -0.398 OA
ATOM     37  H5  UNL     1      -9.859   4.340   3.474  1.00  0.00     0.209 HD
ENDBRANCH  35  36
ENDBRANCH  32  35
ENDBRANCH  31  32
ENDBRANCH  22  31
ENDBRANCH  21  22
BRANCH  21  38
HETATM   38  O6  UNL     1     -10.084  -1.170   5.163  1.00  0.00    -0.391 OA
ATOM     39  H6  UNL     1     -10.165  -2.098   5.348  1.00  0.00     0.210 HD
ENDBRANCH  21  38
ENDBRANCH  20  21
ENDBRANCH  19  20
ENDBRANCH   1  19
BRANCH  18  40
HETATM   40  O14 UNL     1      -7.200  -0.767  10.321  1.00  0.00    -0.387 OA
ATOM     41  H14 UNL     1      -7.521   0.127  10.345  1.00  0.00     0.210 HD
ENDBRANCH  18  40
BRANCH  12  42
HETATM   42  O11 UNL     1      -3.984   0.018   4.199  1.00  0.00    -0.309 OA
BRANCH  42  43
HETATM   43  C22 UNL     1      -4.582   0.625   3.139  1.00  0.00     0.255 C
HETATM   44  C23 UNL     1      -5.480   1.812   3.259  1.00  0.00     0.126 C
HETATM   45  O12 UNL     1      -4.345   0.133   2.009  1.00  0.00    -0.266 OA
ENDBRANCH  42  43
ENDBRANCH  12  42
BRANCH   7  46
HETATM   46  O10 UNL     1      -4.207  -2.593   9.114  1.00  0.00    -0.392 OA
ATOM     47  H10 UNL     1      -3.632  -3.027   8.495  1.00  0.00     0.210 HD
ENDBRANCH   7  46
TORSDOF 17
ENDMDL