MODEL 2
REMARK VINA RESULT: -8.131970547      2.531      9.265
REMARK  19 active torsions:
REMARK  status: ('A' for Active; 'I' for Inactive)
REMARK    1  A    between atoms: C2_2  and  C3_3
REMARK    2  A    between atoms: C2_2  and  C10_12
REMARK    3  A    between atoms: C4_4  and  C5_5
REMARK    4  A    between atoms: C6_6  and  C8_8
REMARK    5  A    between atoms: C8_8  and  O1_10
REMARK    6  A    between atoms: C12_14  and  O2_15
REMARK    7  A    between atoms: C16_20  and  O3_21
REMARK    8  A    between atoms: C16_20  and  C17_23
REMARK    9  A    between atoms: C17_23  and  O5_25
REMARK   10  A    between atoms: O5_25  and  C18_26
REMARK   11  A    between atoms: C18_26  and  O6_27
REMARK   12  A    between atoms: C18_26  and  C22_32
REMARK   13  A    between atoms: O6_27  and  C19_28
REMARK   14  A    between atoms: C19_28  and  C20_30
REMARK   15  A    between atoms: C22_32  and  O8_33
REMARK   16  A    between atoms: C22_32  and  C23_35
REMARK   17  A    between atoms: C24_38  and  O11_39
REMARK   18  A    between atoms: O11_39  and  C25_40
REMARK   19  A    between atoms: C28_45  and  O14_46
ROOT
HETATM    1  C10 UNL     1      -8.905   1.116   4.204  1.00  0.00     0.051 C
HETATM    2  C11 UNL     1      -8.245   2.476   4.325  1.00  0.00     0.027 C
HETATM    3  C12 UNL     1     -10.297   1.186   4.814  1.00  0.00     0.138 C
HETATM    4  C13 UNL     1     -10.211   0.776   6.250  1.00  0.00     0.070 C
HETATM    5  C14 UNL     1      -8.784   0.530   6.499  1.00  0.00    -0.035 C
HETATM    6  C15 UNL     1      -8.029   0.583   7.541  1.00  0.00     0.030 C
HETATM    7  C16 UNL     1      -6.534   0.275   7.561  1.00  0.00     0.197 C
HETATM    8  C24 UNL     1      -6.249  -0.577   6.410  1.00  0.00     0.253 C
HETATM    9  C27 UNL     1      -6.783   0.153   5.194  1.00  0.00     0.199 C
HETATM   10  O13 UNL     1      -6.085   0.697   4.401  1.00  0.00    -0.291 OA
HETATM   11  C28 UNL     1      -8.249   0.123   5.094  1.00  0.00     0.158 C
ENDROOT
BRANCH   7  12
HETATM   12  O3  UNL     1      -5.977   1.580   7.494  1.00  0.00    -0.373 OA
ATOM     13  H3  UNL     1      -5.639   1.595   6.607  1.00  0.00     0.211 HD
ENDBRANCH   7  12
BRANCH   7  14
HETATM   14  C17 UNL     1      -6.207  -0.260   8.906  1.00  0.00     0.303 C
HETATM   15  O4  UNL     1      -7.108  -0.555   9.732  1.00  0.00    -0.261 OA
BRANCH  14  16
HETATM   16  O5  UNL     1      -4.897  -0.451   9.278  1.00  0.00    -0.283 OA
BRANCH  16  17
HETATM   17  C18 UNL     1      -4.214   0.146  10.318  1.00  0.00     0.318 C
BRANCH  17  18
HETATM   18  O6  UNL     1      -4.242  -0.632  11.490  1.00  0.00    -0.286 OA
BRANCH  18  19
HETATM   19  C19 UNL     1      -4.433  -0.098  12.739  1.00  0.00     0.260 C
HETATM   20  O7  UNL     1      -3.721   0.883  13.098  1.00  0.00    -0.265 OA
BRANCH  19  21
HETATM   21  C20 UNL     1      -5.468  -0.665  13.669  1.00  0.00     0.107 C
HETATM   22  C21 UNL     1      -6.834  -0.284  13.156  1.00  0.00     0.015 C
ENDBRANCH  19  21
ENDBRANCH  18  19
ENDBRANCH  17  18
BRANCH  17  23
HETATM   23  C22 UNL     1      -2.797   0.549   9.949  1.00  0.00     0.275 C
BRANCH  23  24
HETATM   24  O8  UNL     1      -2.690   1.895  10.365  1.00  0.00    -0.380 OA
ATOM     25  H8  UNL     1      -1.863   2.192  10.004  1.00  0.00     0.210 HD
ENDBRANCH  23  24
BRANCH  23  26
HETATM   26  C23 UNL     1      -2.572   0.588   8.485  1.00  0.00     0.208 C
HETATM   27  O9  UNL     1      -3.105   1.490   7.804  1.00  0.00    -0.646 OA
HETATM   28  O10 UNL     1      -1.793  -0.339   7.851  1.00  0.00    -0.646 OA
ENDBRANCH  23  26
ENDBRANCH  17  23
ENDBRANCH  16  17
ENDBRANCH  14  16
ENDBRANCH   7  14
BRANCH   8  29
HETATM   29  O11 UNL     1      -4.957  -1.042   6.187  1.00  0.00    -0.304 OA
BRANCH  29  30
HETATM   30  C25 UNL     1      -4.624  -2.395   6.118  1.00  0.00     0.255 C
HETATM   31  C26 UNL     1      -3.675  -2.951   7.097  1.00  0.00     0.126 C
HETATM   32  O12 UNL     1      -5.168  -3.053   5.207  1.00  0.00    -0.266 OA
ENDBRANCH  29  30
ENDBRANCH   8  29
BRANCH  11  33
HETATM   33  O14 UNL     1      -8.727  -1.164   4.979  1.00  0.00    -0.376 OA
ATOM     34  H14 UNL     1      -8.519  -1.735   5.708  1.00  0.00     0.211 HD
ENDBRANCH  11  33
BRANCH   3  35
HETATM   35  O2  UNL     1     -11.198   0.402   4.091  1.00  0.00    -0.394 OA
ATOM     36  H2  UNL     1     -10.798   0.070   3.296  1.00  0.00     0.210 HD
ENDBRANCH   3  35
BRANCH   1  37
HETATM   37  C2  UNL     1      -8.951   0.758   2.775  1.00  0.00    -0.053 C
HETATM   38  C1  UNL     1      -9.658   1.605   1.977  1.00  0.00     0.020 C
BRANCH  37  39
HETATM   39  C3  UNL     1      -8.364  -0.323   2.069  1.00  0.00     0.007 C
HETATM   40  C4  UNL     1      -7.313  -0.714   1.468  1.00  0.00     0.001 C
BRANCH  40  41
HETATM   41  C5  UNL     1      -6.020  -0.208   1.153  1.00  0.00     0.005 C
HETATM   42  C6  UNL     1      -5.538   0.974   1.067  1.00  0.00    -0.056 C
HETATM   43  C7  UNL     1      -4.026   1.009   0.678  1.00  0.00     0.046 C
BRANCH  42  44
HETATM   44  C8  UNL     1      -6.056   2.307   1.249  1.00  0.00     0.142 C
HETATM   45  C9  UNL     1      -6.003   3.341   0.214  1.00  0.00     0.044 C
BRANCH  44  46
HETATM   46  O1  UNL     1      -5.434   2.886   2.413  1.00  0.00    -0.392 OA
ATOM     47  H1  UNL     1      -5.246   3.799   2.232  1.00  0.00     0.210 HD
ENDBRANCH  44  46
ENDBRANCH  42  44
ENDBRANCH  40  41
ENDBRANCH  37  39
ENDBRANCH   1  37
TORSDOF 19
ENDMDL