MODEL 4
REMARK VINA RESULT: -6.917011708      2.885      8.001
REMARK  17 active torsions:
REMARK  status: ('A' for Active; 'I' for Inactive)
REMARK    1  A    between atoms: C2_2  and  O1_3
REMARK    2  A    between atoms: O1_3  and  C3_4
REMARK    3  A    between atoms: C4_5  and  O2_6
REMARK    4  A    between atoms: C5_8  and  O3_9
REMARK    5  A    between atoms: C6_11  and  O4_12
REMARK    6  A    between atoms: C7_14  and  O5_15
REMARK    7  A    between atoms: O5_15  and  C8_16
REMARK    8  A    between atoms: C8_16  and  C9_17
REMARK    9  A    between atoms: C9_17  and  O6_18
REMARK   10  A    between atoms: C17_27  and  O8_28
REMARK   11  A    between atoms: C18_30  and  O9_31
REMARK   12  A    between atoms: O9_31  and  C19_32
REMARK   13  A    between atoms: C20_33  and  C21_34
REMARK   14  A    between atoms: C24_39  and  C25_40
REMARK   15  A    between atoms: C25_40  and  O12_41
REMARK   16  A    between atoms: C25_40  and  C26_43
REMARK   17  A    between atoms: C26_43  and  O14_45
ROOT
HETATM    1  C3  UNL     1      -7.450  -1.275   4.190  1.00  0.00     0.184 C
HETATM    2  C4  UNL     1      -7.772  -2.522   3.422  1.00  0.00     0.181 C
HETATM    3  C5  UNL     1      -7.622  -2.435   1.955  1.00  0.00     0.180 C
HETATM    4  C6  UNL     1      -7.712  -1.129   1.293  1.00  0.00     0.181 C
HETATM    5  C7  UNL     1      -6.674  -0.190   1.749  1.00  0.00     0.184 C
HETATM    6  C17 UNL     1      -5.594  -0.755   2.636  1.00  0.00     0.181 C
HETATM    7  C18 UNL     1      -6.033  -0.840   4.098  1.00  0.00     0.184 C
ENDROOT
BRANCH   7   8
HETATM    8  O9  UNL     1      -5.246  -1.545   4.908  1.00  0.00    -0.374 OA
BRANCH   8   9
HETATM    9  C19 UNL     1      -5.260  -1.588   6.229  1.00  0.00     0.143 C
HETATM   10  C20 UNL     1      -4.962  -0.106   6.785  1.00  0.00     0.116 C
HETATM   11  C22 UNL     1      -3.590   0.093   6.278  1.00  0.00     0.018 C
HETATM   12  C23 UNL     1      -2.913  -1.207   6.615  1.00  0.00     0.011 C
HETATM   13  C24 UNL     1      -4.010  -2.184   6.812  1.00  0.00     0.054 C
BRANCH  10  14
HETATM   14  C21 UNL     1      -4.921  -0.196   8.275  1.00  0.00     0.179 C
HETATM   15  O10 UNL     1      -4.097   0.524   8.915  1.00  0.00    -0.648 OA
HETATM   16  O11 UNL     1      -5.742  -1.030   8.988  1.00  0.00    -0.648 OA
ENDBRANCH  10  14
BRANCH  13  17
HETATM   17  C25 UNL     1      -3.629  -3.557   6.349  1.00  0.00     0.224 C
BRANCH  17  18
HETATM   18  O12 UNL     1      -4.762  -4.021   5.620  1.00  0.00    -0.385 OA
ATOM     19  H12 UNL     1      -4.579  -3.789   4.717  1.00  0.00     0.210 HD
ENDBRANCH  17  18
BRANCH  17  20
HETATM   20  C26 UNL     1      -3.477  -4.515   7.449  1.00  0.00     0.287 C
HETATM   21  O13 UNL     1      -3.222  -4.053   8.602  1.00  0.00    -0.262 OA
BRANCH  20  22
HETATM   22  O14 UNL     1      -3.593  -5.885   7.327  1.00  0.00    -0.324 OA
HETATM   23  C27 UNL     1      -3.948  -6.764   8.356  1.00  0.00     0.213 C
ENDBRANCH  20  22
ENDBRANCH  17  20
ENDBRANCH  13  17
ENDBRANCH   8   9
ENDBRANCH   7   8
BRANCH   1  24
HETATM   24  O1  UNL     1      -7.950  -1.459   5.448  1.00  0.00    -0.381 OA
BRANCH  24  25
HETATM   25  C2  UNL     1      -9.000  -0.718   5.868  1.00  0.00     0.164 C
HETATM   26  C1  UNL     1      -8.592   0.519   6.628  1.00  0.00     0.033 C
ENDBRANCH  24  25
ENDBRANCH   1  24
BRANCH   6  27
HETATM   27  O8  UNL     1      -4.557   0.173   2.493  1.00  0.00    -0.390 OA
ATOM     28  H8  UNL     1      -4.007  -0.225   1.828  1.00  0.00     0.210 HD
ENDBRANCH   6  27
BRANCH   2  29
HETATM   29  O2  UNL     1      -6.998  -3.567   3.946  1.00  0.00    -0.390 OA
ATOM     30  H2  UNL     1      -7.538  -4.348   3.974  1.00  0.00     0.210 HD
ENDBRANCH   2  29
BRANCH   5  31
HETATM   31  O5  UNL     1      -6.077   0.540   0.720  1.00  0.00    -0.375 OA
BRANCH  31  32
HETATM   32  C8  UNL     1      -6.572   1.805   0.588  1.00  0.00     0.236 C
BRANCH  32  33
HETATM   33  C9  UNL     1      -5.646   2.871   1.137  1.00  0.00     0.185 C
HETATM   34  C11 UNL     1      -6.080   4.237   0.615  1.00  0.00     0.071 C
HETATM   35  C12 UNL     1      -5.545   4.423  -0.764  1.00  0.00     0.012 C
HETATM   36  C13 UNL     1      -4.064   4.318  -0.831  1.00  0.00     0.010 C
HETATM   37  C14 UNL     1      -3.426   5.706  -0.897  1.00  0.00     0.012 C
HETATM   38  C15 UNL     1      -3.544   3.485   0.290  1.00  0.00     0.124 C
HETATM   39  C16 UNL     1      -2.845   4.331   1.351  1.00  0.00     0.040 C
HETATM   40  O7  UNL     1      -4.365   2.536   0.796  1.00  0.00    -0.348 OA
BRANCH  33  41
HETATM   41  O6  UNL     1      -5.764   2.962   2.525  1.00  0.00    -0.358 OA
HETATM   42  C10 UNL     1      -6.991   3.360   2.979  1.00  0.00     0.205 C
ENDBRANCH  33  41
ENDBRANCH  32  33
ENDBRANCH  31  32
ENDBRANCH   5  31
BRANCH   3  43
HETATM   43  O3  UNL     1      -8.623  -3.259   1.353  1.00  0.00    -0.390 OA
ATOM     44  H3  UNL     1      -8.294  -3.562   0.515  1.00  0.00     0.210 HD
ENDBRANCH   3  43
BRANCH   4  45
HETATM   45  O4  UNL     1      -8.977  -0.542   1.332  1.00  0.00    -0.390 OA
ATOM     46  H4  UNL     1      -8.993   0.344   1.677  1.00  0.00     0.210 HD
ENDBRANCH   4  45
TORSDOF 17
ENDMDL