MODEL 1
REMARK VINA RESULT: -8.347533974      0.000      0.000
REMARK  21 active torsions:
REMARK  status: ('A' for Active; 'I' for Inactive)
REMARK    1  A    between atoms: C2_2  and  O2_4
REMARK    2  A    between atoms: O2_4  and  C3_5
REMARK    3  A    between atoms: C3_5  and  C4_6
REMARK    4  A    between atoms: C6_8  and  C7_9
REMARK    5  A    between atoms: C7_9  and  C8_10
REMARK    6  A    between atoms: C7_9  and  C14_28
REMARK    7  A    between atoms: C8_10  and  O4_12
REMARK    8  A    between atoms: O4_12  and  C9_13
REMARK    9  A    between atoms: C9_13  and  O5_14
REMARK   10  A    between atoms: O5_14  and  C10_15
REMARK   11  A    between atoms: C10_15  and  C11_17
REMARK   12  A    between atoms: C11_17  and  N1_18
REMARK   13  A    between atoms: C11_17  and  C12_22
REMARK   14  A    between atoms: C12_22  and  O7_23
REMARK   15  A    between atoms: C12_22  and  C13_25
REMARK   16  A    between atoms: C13_25  and  O8_26
REMARK   17  A    between atoms: C14_28  and  O9_29
REMARK   18  A    between atoms: C14_28  and  C15_31
REMARK   19  A    between atoms: C15_31  and  O10_32
REMARK   20  A    between atoms: C15_31  and  C16_34
REMARK   21  A    between atoms: C28_46  and  O11_47
ROOT
HETATM    1  C7  UNL     1      -3.898  -2.319   7.298  1.00  0.00     0.140 C
ENDROOT
BRANCH   1   2
HETATM    2  C6  UNL     1      -4.957  -1.840   8.160  1.00  0.00    -0.005 C
HETATM    3  C4  UNL     1      -4.874  -0.972   9.162  1.00  0.00    -0.063 C
HETATM    4  C5  UNL     1      -3.577  -0.398   9.595  1.00  0.00     0.045 C
BRANCH   3   5
HETATM    5  C3  UNL     1      -6.134  -0.622   9.922  1.00  0.00     0.212 C
BRANCH   5   6
HETATM    6  O2  UNL     1      -5.975  -0.012  11.105  1.00  0.00    -0.318 OA
BRANCH   6   7
HETATM    7  C2  UNL     1      -6.170  -0.267  12.405  1.00  0.00     0.255 C
HETATM    8  C1  UNL     1      -5.015  -0.517  13.317  1.00  0.00     0.126 C
HETATM    9  O1  UNL     1      -7.322  -0.301  12.888  1.00  0.00    -0.266 OA
ENDBRANCH   6   7
ENDBRANCH   5   6
ENDBRANCH   3   5
ENDBRANCH   1   2
BRANCH   1  10
HETATM   10  C8  UNL     1      -3.660  -3.749   7.623  1.00  0.00     0.271 C
HETATM   11  O3  UNL     1      -2.630  -4.310   7.198  1.00  0.00    -0.264 OA
BRANCH  10  12
HETATM   12  O4  UNL     1      -4.544  -4.493   8.385  1.00  0.00    -0.294 OA
BRANCH  12  13
HETATM   13  C9  UNL     1      -4.414  -5.888   8.553  1.00  0.00     0.358 C
BRANCH  13  14
HETATM   14  O5  UNL     1      -3.885  -6.193   9.830  1.00  0.00    -0.293 OA
BRANCH  14  15
HETATM   15  C10 UNL     1      -3.911  -7.480  10.345  1.00  0.00     0.294 C
HETATM   16  O6  UNL     1      -4.133  -8.450   9.605  1.00  0.00    -0.263 OA
BRANCH  15  17
HETATM   17  C11 UNL     1      -3.667  -7.670  11.797  1.00  0.00     0.312 C
BRANCH  17  18
HETATM   18  N1  UNL     1      -4.853  -7.321  12.566  1.00  0.00    -0.063 N
ATOM     19  H13 UNL     1      -4.749  -6.421  13.035  1.00  0.00     0.275 HD
ATOM     20  H12 UNL     1      -5.641  -7.089  11.962  1.00  0.00     0.275 HD
ATOM     21  H11 UNL     1      -5.086  -8.066  13.223  1.00  0.00     0.275 HD
ENDBRANCH  17  18
BRANCH  17  22
HETATM   22  C12 UNL     1      -3.278  -9.092  12.138  1.00  0.00     0.182 C
BRANCH  22  23
HETATM   23  O7  UNL     1      -4.383  -9.916  12.225  1.00  0.00    -0.391 OA
ATOM     24  H7  UNL     1      -4.173 -10.742  12.643  1.00  0.00     0.210 HD
ENDBRANCH  22  23
BRANCH  22  25
HETATM   25  C13 UNL     1      -2.515  -9.041  13.454  1.00  0.00     0.198 C
BRANCH  25  26
HETATM   26  O8  UNL     1      -1.995  -7.774  13.686  1.00  0.00    -0.398 OA
ATOM     27  H8  UNL     1      -1.099  -7.821  13.996  1.00  0.00     0.209 HD
ENDBRANCH  25  26
ENDBRANCH  22  25
ENDBRANCH  17  22
ENDBRANCH  15  17
ENDBRANCH  14  15
ENDBRANCH  13  14
ENDBRANCH  12  13
ENDBRANCH  10  12
ENDBRANCH   1  10
BRANCH   1  28
HETATM   28  C14 UNL     1      -4.229  -2.226   5.822  1.00  0.00     0.165 C
BRANCH  28  29
HETATM   29  O9  UNL     1      -5.129  -3.251   5.457  1.00  0.00    -0.392 OA
ATOM     30  H9  UNL     1      -5.094  -3.402   4.519  1.00  0.00     0.210 HD
ENDBRANCH  28  29
BRANCH  28  31
HETATM   31  C15 UNL     1      -4.771  -0.894   5.389  1.00  0.00     0.159 C
BRANCH  31  32
HETATM   32  O10 UNL     1      -3.720  -0.018   5.113  1.00  0.00    -0.392 OA
ATOM     33  H10 UNL     1      -3.999   0.637   4.483  1.00  0.00     0.210 HD
ENDBRANCH  31  32
BRANCH  31  34
HETATM   34  C16 UNL     1      -5.773  -1.000   4.332  1.00  0.00     0.087 C
HETATM   35  C17 UNL     1      -5.550   0.014   3.173  1.00  0.00     0.015 C
HETATM   36  C18 UNL     1      -5.632   1.436   3.643  1.00  0.00     0.013 C
HETATM   37  C19 UNL     1      -6.722   2.303   3.127  1.00  0.00    -0.006 A
HETATM   38  C20 UNL     1      -5.953   3.286   2.173  1.00  0.00     0.019 C
HETATM   39  C21 UNL     1      -8.049   2.738   3.328  1.00  0.00     0.032 A
HETATM   40  C28 UNL     1      -7.177   2.921   4.496  1.00  0.00     0.071 A
HETATM   41  C22 UNL     1      -9.394   2.483   3.779  1.00  0.00     0.009 C
HETATM   42  C23 UNL     1     -10.125   1.287   4.142  1.00  0.00     0.005 C
HETATM   43  C24 UNL     1      -9.445   0.270   5.047  1.00  0.00    -0.007 C
HETATM   44  C25 UNL     1      -9.790   0.492   6.494  1.00  0.00     0.011 C
HETATM   45  C26 UNL     1      -8.001   0.542   4.729  1.00  0.00     0.062 C
HETATM   46  C27 UNL     1      -7.521   1.745   5.416  1.00  0.00     0.051 C
HETATM   47  C29 UNL     1      -7.131  -0.679   4.835  1.00  0.00     0.138 C
HETATM   48  O12 UNL     1      -7.726  -1.519   5.463  1.00  0.00    -0.297 OA
BRANCH  40  49
HETATM   49  O11 UNL     1      -6.583   4.030   4.944  1.00  0.00    -0.389 OA
ATOM     50  H11 UNL     1      -7.059   4.610   5.526  1.00  0.00     0.210 HD
ENDBRANCH  40  49
ENDBRANCH  31  34
ENDBRANCH  28  31
ENDBRANCH   1  28
TORSDOF 21
ENDMDL