MODEL 2
REMARK VINA RESULT: -6.747090024      4.535      9.512
REMARK  18 active torsions:
REMARK  status: ('A' for Active; 'I' for Inactive)
REMARK    1  A    between atoms: C2_2  and  O1_3
REMARK    2  A    between atoms: O1_3  and  N1_4
REMARK    3  A    between atoms: N1_4  and  C3_6
REMARK    4  A    between atoms: C3_6  and  C4_7
REMARK    5  A    between atoms: C3_6  and  C26_47
REMARK       I    between atoms: C4_7  and  N2_9
REMARK    6  A    between atoms: N2_9  and  C5_11
REMARK    7  A    between atoms: N3_14  and  O3_15
REMARK    8  A    between atoms: O3_15  and  C8_16
REMARK    9  A    between atoms: C11_19  and  O4_20
REMARK   10  A    between atoms: C13_22  and  O5_23
REMARK   11  A    between atoms: C20_30  and  C21_31
REMARK   12  A    between atoms: C22_33  and  C23_34
REMARK   13  A    between atoms: C23_34  and  O6_35
REMARK   14  A    between atoms: C23_34  and  N4_37
REMARK   15  A    between atoms: N4_37  and  O7_39
REMARK   16  A    between atoms: C25_42  and  O8_43
REMARK   17  A    between atoms: C26_47  and  O9_48
REMARK   18  A    between atoms: C26_47  and  O10_50
ROOT
HETATM    1  C8  UNL     1      -4.297   1.270   4.891  1.00  0.00     0.102 A
HETATM    2  C9  UNL     1      -3.497   2.094   4.180  1.00  0.00     0.010 A
HETATM    3  C10 UNL     1      -2.201   1.610   4.042  1.00  0.00     0.054 A
HETATM    4  C11 UNL     1      -1.208   2.272   3.348  1.00  0.00     0.102 A
HETATM    5  C13 UNL     1      -1.560   3.487   2.769  1.00  0.00     0.102 A
HETATM    6  C15 UNL     1      -2.843   3.979   2.901  1.00  0.00     0.052 A
HETATM    7  C16 UNL     1      -3.822   3.295   3.604  1.00  0.00    -0.021 A
HETATM    8  C17 UNL     1      -4.991   3.921   3.662  1.00  0.00     0.012 A
HETATM    9  C18 UNL     1      -6.228   3.552   4.322  1.00  0.00    -0.002 A
HETATM   10  C19 UNL     1      -6.494   2.471   4.994  1.00  0.00    -0.010 A
HETATM   11  C20 UNL     1      -5.680   1.301   5.305  1.00  0.00     0.111 A
ENDROOT
BRANCH   1  12
HETATM   12  O3  UNL     1      -3.576   0.163   5.281  1.00  0.00    -0.218 OA
BRANCH  12  13
HETATM   13  N3  UNL     1      -3.568  -0.548   6.396  1.00  0.00    -0.166 N
HETATM   14  C7  UNL     1      -3.086  -0.202   7.597  1.00  0.00     0.148 A
HETATM   15  C6  UNL     1      -3.258  -1.222   8.501  1.00  0.00     0.071 A
HETATM   16  C5  UNL     1      -3.888  -2.245   7.780  1.00  0.00     0.126 A
HETATM   17  N5  UNL     1      -4.050  -1.795   6.538  1.00  0.00    -0.259 N
ATOM     18  H5  UNL     1      -4.486  -2.331   5.787  1.00  0.00     0.191 HD
BRANCH  16  19
HETATM   19  N2  UNL     1      -4.191  -3.350   8.344  1.00  0.00    -0.307 N
HETATM   20  C4  UNL     1      -3.828  -4.647   7.965  1.00  0.00     0.276 C
HETATM   21  O2  UNL     1      -3.153  -4.838   6.908  1.00  0.00    -0.266 OA
ATOM     22  H2  UNL     1      -4.774  -3.278   9.178  1.00  0.00     0.170 HD
BRANCH  20  23
HETATM   23  C3  UNL     1      -4.209  -5.835   8.769  1.00  0.00     0.154 C
BRANCH  23  24
HETATM   24  N1  UNL     1      -3.543  -6.073   9.792  1.00  0.00    -0.261 N
ATOM     25  H1  UNL     1      -2.869  -5.323   9.947  1.00  0.00     0.194 HD
BRANCH  24  26
HETATM   26  O1  UNL     1      -3.428  -6.971  10.731  1.00  0.00    -0.280 OA
BRANCH  26  27
HETATM   27  C2  UNL     1      -4.354  -7.459  11.670  1.00  0.00     0.196 C
HETATM   28  C1  UNL     1      -3.576  -8.107  12.816  1.00  0.00     0.036 C
ENDBRANCH  26  27
ENDBRANCH  24  26
ENDBRANCH  23  24
BRANCH  23  29
HETATM   29  C26 UNL     1      -5.335  -6.666   8.308  1.00  0.00     0.312 C
BRANCH  29  30
HETATM   30  O9  UNL     1      -5.898  -6.284   7.118  1.00  0.00    -0.366 OA
ATOM     31  H9  UNL     1      -6.815  -6.505   7.012  1.00  0.00     0.213 HD
ENDBRANCH  29  30
BRANCH  29  32
HETATM   32  O10 UNL     1      -4.937  -8.014   8.313  1.00  0.00    -0.366 OA
ATOM     33  H10 UNL     1      -5.710  -8.563   8.257  1.00  0.00     0.213 HD
ENDBRANCH  29  32
ENDBRANCH  23  29
ENDBRANCH  20  23
ENDBRANCH  16  19
ENDBRANCH  12  13
ENDBRANCH   1  12
BRANCH  11  34
HETATM   34  C21 UNL     1      -6.409   0.115   4.693  1.00  0.00     0.031 A
HETATM   35  S1  UNL     1      -6.680  -0.221   3.041  1.00  0.00    -0.086 SA
HETATM   36  C22 UNL     1      -7.538  -1.684   3.193  1.00  0.00     0.060 A
HETATM   37  C24 UNL     1      -7.588  -1.868   4.549  1.00  0.00     0.061 A
HETATM   38  C25 UNL     1      -7.008  -0.945   5.324  1.00  0.00     0.081 A
BRANCH  36  39
HETATM   39  C23 UNL     1      -8.082  -2.527   2.139  1.00  0.00     0.177 C
BRANCH  39  40
HETATM   40  O6  UNL     1      -8.390  -1.972   0.926  1.00  0.00    -0.344 OA
ATOM     41  H6  UNL     1      -8.692  -2.531   0.220  1.00  0.00     0.219 HD
ENDBRANCH  39  40
BRANCH  39  42
HETATM   42  N4  UNL     1      -8.268  -3.774   2.345  1.00  0.00    -0.246 N
ATOM     43  H4  UNL     1      -9.222  -4.116   2.458  1.00  0.00     0.196 HD
BRANCH  42  44
HETATM   44  O7  UNL     1      -7.215  -4.682   2.423  1.00  0.00    -0.288 OA
ATOM     45  H7  UNL     1      -7.188  -5.374   3.073  1.00  0.00     0.244 HD
ENDBRANCH  42  44
ENDBRANCH  39  42
ENDBRANCH  36  39
BRANCH  38  46
HETATM   46  O8  UNL     1      -6.978  -1.000   6.739  1.00  0.00    -0.360 OA
ATOM     47  H8  UNL     1      -7.060  -1.844   7.165  1.00  0.00     0.217 HD
ENDBRANCH  38  46
ENDBRANCH  11  34
BRANCH   4  48
HETATM   48  O4  UNL     1       0.082   1.763   3.228  1.00  0.00    -0.353 OA
HETATM   49  C12 UNL     1       1.049   2.006   4.242  1.00  0.00     0.210 C
ENDBRANCH   4  48
BRANCH   5  50
HETATM   50  O5  UNL     1      -0.576   4.172   2.062  1.00  0.00    -0.353 OA
HETATM   51  C14 UNL     1      -0.599   4.364   0.669  1.00  0.00     0.210 C
ENDBRANCH   5  50
TORSDOF 18
ENDMDL