MODEL 5
REMARK VINA RESULT: -7.427257566      3.492      6.075
REMARK  16 active torsions:
REMARK  status: ('A' for Active; 'I' for Inactive)
REMARK    1  A    between atoms: C2_2  and  C4_4
REMARK    2  A    between atoms: C5_5  and  C6_6
REMARK    3  A    between atoms: C10_10  and  O1_11
REMARK    4  A    between atoms: C10_10  and  C11_13
REMARK    5  A    between atoms: C11_13  and  O2_14
REMARK    6  A    between atoms: C11_13  and  C12_16
REMARK    7  A    between atoms: C12_16  and  O3_17
REMARK    8  A    between atoms: C12_16  and  C13_19
REMARK    9  A    between atoms: C13_19  and  N1_20
REMARK   10  A    between atoms: C13_19  and  C18_31
REMARK   11  A    between atoms: N1_20  and  N2_21
REMARK   12  A    between atoms: N2_21  and  S1_23
REMARK   13  A    between atoms: S1_23  and  O6_26
REMARK   14  A    between atoms: O6_26  and  C14_27
REMARK   15  A    between atoms: C22_41  and  C24_43
REMARK   16  A    between atoms: C24_43  and  O9_44
ROOT
HETATM    1  C11 UNL     1      -4.204  -1.177   8.914  1.00  0.00     0.109 C
ENDROOT
BRANCH   1   2
HETATM    2  C10 UNL     1      -3.690  -1.378   7.547  1.00  0.00     0.120 C
HETATM    3  C6  UNL     1      -4.610  -2.416   6.823  1.00  0.00     0.112 C
HETATM    4  C7  UNL     1      -5.145  -1.649   5.638  1.00  0.00     0.174 C
HETATM    5  C8  UNL     1      -3.963  -0.802   5.271  1.00  0.00     0.073 C
HETATM    6  O8  UNL     1      -5.497  -2.565   4.674  1.00  0.00    -0.353 OA
HETATM    7  O10 UNL     1      -6.156  -0.845   6.077  1.00  0.00    -0.353 OA
HETATM    8  C9  UNL     1      -3.687  -0.175   6.648  1.00  0.00     0.051 C
HETATM    9  C21 UNL     1      -6.108  -2.033   3.566  1.00  0.00     0.185 C
HETATM   10  C22 UNL     1      -7.231  -1.094   3.911  1.00  0.00     0.021 C
HETATM   11  C23 UNL     1      -7.140   0.087   2.959  1.00  0.00     0.022 C
HETATM   12  C25 UNL     1      -7.262  -0.685   5.333  1.00  0.00     0.185 C
BRANCH   3  13
HETATM   13  C5  UNL     1      -3.810  -3.534   6.290  1.00  0.00    -0.013 C
HETATM   14  C4  UNL     1      -3.574  -4.712   6.725  1.00  0.00     0.002 C
BRANCH  14  15
HETATM   15  C2  UNL     1      -3.965  -5.449   7.876  1.00  0.00    -0.072 C
HETATM   16  C1  UNL     1      -3.592  -5.003   9.095  1.00  0.00     0.018 C
HETATM   17  C3  UNL     1      -4.753  -6.680   7.825  1.00  0.00     0.047 C
ENDBRANCH  14  15
ENDBRANCH   3  13
BRANCH  10  18
HETATM   18  C24 UNL     1      -8.570  -1.779   3.595  1.00  0.00     0.177 C
BRANCH  18  19
HETATM   19  O9  UNL     1      -9.238  -2.160   4.742  1.00  0.00    -0.400 OA
ATOM     20  H9  UNL     1      -9.986  -2.713   4.550  1.00  0.00     0.209 HD
ENDBRANCH  18  19
ENDBRANCH  10  18
BRANCH   2  21
HETATM   21  O1  UNL     1      -2.438  -1.961   7.466  1.00  0.00    -0.382 OA
ATOM     22  H1  UNL     1      -2.119  -1.665   6.622  1.00  0.00     0.211 HD
ENDBRANCH   2  21
ENDBRANCH   1   2
BRANCH   1  23
HETATM   23  O2  UNL     1      -5.604  -1.329   8.896  1.00  0.00    -0.359 OA
ATOM     24  H2  UNL     1      -5.971  -0.688   8.298  1.00  0.00     0.217 HD
ENDBRANCH   1  23
BRANCH   1  25
HETATM   25  C12 UNL     1      -3.705  -0.154   9.826  1.00  0.00     0.103 C
BRANCH  25  26
HETATM   26  O3  UNL     1      -4.156   1.121   9.768  1.00  0.00    -0.360 OA
ATOM     27  H3  UNL     1      -3.668   1.836  10.159  1.00  0.00     0.217 HD
ENDBRANCH  25  26
BRANCH  25  28
HETATM   28  C13 UNL     1      -3.439  -0.556  11.251  1.00  0.00     0.228 C
BRANCH  28  29
HETATM   29  N1  UNL     1      -2.563   0.406  11.953  1.00  0.00    -0.110 NA
BRANCH  29  30
HETATM   30  N2  UNL     1      -1.514   0.761  11.106  1.00  0.00    -0.207 N
ATOM     31  H2  UNL     1      -1.516   0.605  10.097  1.00  0.00     0.197 HD
BRANCH  30  32
HETATM   32  S1  UNL     1      -0.218   1.492  11.966  1.00  0.00     0.373 S
HETATM   33  O4  UNL     1       0.824   1.985  10.983  1.00  0.00    -0.174 OA
HETATM   34  O5  UNL     1      -0.752   2.729  12.653  1.00  0.00    -0.174 OA
BRANCH  32  35
HETATM   35  O6  UNL     1       0.404   0.384  13.027  1.00  0.00    -0.248 OA
BRANCH  35  36
HETATM   36  C14 UNL     1       1.647   0.682  13.523  1.00  0.00     0.071 C
HETATM   37  C15 UNL     1       1.695   2.045  14.163  1.00  0.00     0.047 C
HETATM   38  C16 UNL     1       2.750   0.501  12.500  1.00  0.00     0.047 C
HETATM   39  C17 UNL     1       1.939  -0.337  14.630  1.00  0.00     0.047 C
ENDBRANCH  35  36
ENDBRANCH  32  35
ENDBRANCH  30  32
ENDBRANCH  29  30
ENDBRANCH  28  29
BRANCH  28  40
HETATM   40  C18 UNL     1      -4.679  -0.527  12.110  1.00  0.00     0.131 A
HETATM   41  N3  UNL     1      -4.655  -0.717  13.463  1.00  0.00    -0.245 N
HETATM   42  O7  UNL     1      -5.869  -0.606  13.912  1.00  0.00    -0.223 OA
ATOM     43  H3  UNL     1      -3.825  -0.912  14.025  1.00  0.00     0.196 HD
HETATM   44  C19 UNL     1      -6.702  -0.354  12.946  1.00  0.00     0.144 A
HETATM   45  C20 UNL     1      -8.170  -0.154  13.005  1.00  0.00     0.100 C
HETATM   46  N4  UNL     1      -5.957  -0.308  11.836  1.00  0.00    -0.325 N
ATOM     47  H4  UNL     1      -6.323  -0.128  10.901  1.00  0.00     0.169 HD
ENDBRANCH  28  40
ENDBRANCH  25  28
ENDBRANCH   1  25
TORSDOF 16
ENDMDL