MODEL 2
REMARK VINA RESULT: -6.323536806      2.853      7.638
REMARK  18 active torsions:
REMARK  status: ('A' for Active; 'I' for Inactive)
REMARK    1  A    between atoms: C2_2  and  C3_3
REMARK    2  A    between atoms: C2_2  and  O2_5
REMARK    3  A    between atoms: O2_5  and  C4_6
REMARK    4  A    between atoms: C4_6  and  C5_7
REMARK    5  A    between atoms: C4_6  and  C8_14
REMARK    6  A    between atoms: C5_7  and  O3_8
REMARK    7  A    between atoms: C5_7  and  C6_10
REMARK    8  A    between atoms: C6_10  and  C7_12
REMARK    9  A    between atoms: C8_14  and  C10_16
REMARK   10  A    between atoms: C11_17  and  O5_18
REMARK   11  A    between atoms: C12_20  and  C13_21
REMARK   12  A    between atoms: C13_21  and  O7_23
REMARK   13  A    between atoms: C21_32  and  O9_33
REMARK   14  A    between atoms: C21_32  and  C22_35
REMARK   15  A    between atoms: C22_35  and  C23_37
REMARK   16  A    between atoms: C23_37  and  O11_38
REMARK   17  A    between atoms: O11_38  and  C24_39
REMARK   18  A    between atoms: C26_42  and  O13_44
ROOT
HETATM    1  C10 UNL     1      -5.401   0.065   5.817  1.00  0.00     0.059 C
HETATM    2  C11 UNL     1      -5.420   1.480   6.304  1.00  0.00     0.173 C
HETATM    3  C12 UNL     1      -5.375   2.210   4.982  1.00  0.00     0.209 C
HETATM    4  O8  UNL     1      -5.189   1.245   4.000  1.00  0.00    -0.352 OA
HETATM    5  C15 UNL     1      -5.919   0.097   4.484  1.00  0.00     0.077 C
HETATM    6  C16 UNL     1      -5.214  -0.995   3.652  1.00  0.00     0.047 C
HETATM    7  C17 UNL     1      -7.285   0.371   4.047  1.00  0.00     0.036 A
HETATM    8  C18 UNL     1      -7.570  -0.296   2.659  1.00  0.00     0.021 A
HETATM    9  C19 UNL     1      -8.433  -0.512   3.883  1.00  0.00    -0.003 A
HETATM   10  C20 UNL     1      -8.586  -1.941   4.213  1.00  0.00     0.011 C
HETATM   11  C21 UNL     1      -7.616   1.859   3.948  1.00  0.00     0.165 C
HETATM   12  C26 UNL     1      -6.733   2.788   4.692  1.00  0.00     0.136 C
HETATM   13  C27 UNL     1      -6.447   4.067   3.917  1.00  0.00     0.053 C
ENDROOT
BRANCH   1  14
HETATM   14  C8  UNL     1      -5.686  -0.966   6.830  1.00  0.00     0.024 C
HETATM   15  C9  UNL     1      -6.220  -0.365   8.127  1.00  0.00     0.013 C
BRANCH  14  16
HETATM   16  C4  UNL     1      -4.414  -1.727   7.224  1.00  0.00     0.169 C
BRANCH  16  17
HETATM   17  O2  UNL     1      -3.399  -0.789   7.265  1.00  0.00    -0.340 OA
BRANCH  17  18
HETATM   18  C2  UNL     1      -2.558  -0.278   8.168  1.00  0.00     0.097 C
HETATM   19  C1  UNL     1      -1.290  -0.079   7.772  1.00  0.00     0.054 C
BRANCH  18  20
HETATM   20  C3  UNL     1      -2.826   0.106   9.552  1.00  0.00     0.294 C
HETATM   21  O1  UNL     1      -3.395   1.204   9.838  1.00  0.00    -0.299 OA
ENDBRANCH  18  20
ENDBRANCH  17  18
ENDBRANCH  16  17
BRANCH  16  22
HETATM   22  C5  UNL     1      -4.098  -2.883   6.313  1.00  0.00     0.218 C
BRANCH  22  23
HETATM   23  O3  UNL     1      -5.223  -3.509   5.808  1.00  0.00    -0.385 OA
ATOM     24  H3  UNL     1      -5.027  -4.166   5.151  1.00  0.00     0.210 HD
ENDBRANCH  22  23
BRANCH  22  25
HETATM   25  C6  UNL     1      -3.311  -3.884   7.060  1.00  0.00     0.167 C
HETATM   26  O4  UNL     1      -2.211  -4.264   6.612  1.00  0.00    -0.294 OA
BRANCH  25  27
HETATM   27  C7  UNL     1      -3.696  -4.519   8.332  1.00  0.00     0.167 C
HETATM   28  S1  UNL     1      -4.385  -6.164   8.197  1.00  0.00    -0.090 SA
ENDBRANCH  25  27
ENDBRANCH  22  25
ENDBRANCH  16  22
ENDBRANCH  14  16
ENDBRANCH   1  14
BRANCH   2  29
HETATM   29  O5  UNL     1      -4.279   1.870   6.998  1.00  0.00    -0.391 OA
ATOM     30  H5  UNL     1      -4.265   1.614   7.913  1.00  0.00     0.210 HD
ENDBRANCH   2  29
BRANCH   3  31
HETATM   31  C13 UNL     1      -4.277   3.213   4.952  1.00  0.00     0.299 C
HETATM   32  O6  UNL     1      -3.290   3.067   4.182  1.00  0.00    -0.262 OA
BRANCH  31  33
HETATM   33  O7  UNL     1      -4.344   4.301   5.769  1.00  0.00    -0.324 OA
HETATM   34  C14 UNL     1      -3.221   5.138   6.022  1.00  0.00     0.213 C
ENDBRANCH  31  33
ENDBRANCH   3  31
BRANCH  12  35
HETATM   35  O13 UNL     1      -7.336   3.240   5.894  1.00  0.00    -0.383 OA
ATOM     36  H13 UNL     1      -8.232   2.927   5.947  1.00  0.00     0.210 HD
ENDBRANCH  12  35
BRANCH  11  37
HETATM   37  O9  UNL     1      -8.900   2.009   4.488  1.00  0.00    -0.378 OA
ATOM     38  H9  UNL     1      -8.806   2.588   5.235  1.00  0.00     0.211 HD
ENDBRANCH  11  37
BRANCH  11  39
HETATM   39  C22 UNL     1      -7.702   2.365   2.536  1.00  0.00     0.189 C
HETATM   40  O10 UNL     1      -6.707   2.387   1.828  1.00  0.00    -0.292 OA
BRANCH  39  41
HETATM   41  C23 UNL     1      -8.971   2.856   1.952  1.00  0.00     0.260 C
BRANCH  41  42
HETATM   42  O11 UNL     1      -9.829   1.944   1.408  1.00  0.00    -0.314 OA
BRANCH  42  43
HETATM   43  C24 UNL     1     -11.066   1.626   1.885  1.00  0.00     0.255 C
HETATM   44  C25 UNL     1     -12.301   1.712   1.038  1.00  0.00     0.126 C
HETATM   45  O12 UNL     1     -11.275   1.236   3.059  1.00  0.00    -0.266 OA
ENDBRANCH  42  43
ENDBRANCH  41  42
ENDBRANCH  39  41
ENDBRANCH  11  39
TORSDOF 18
ENDMDL