MODEL 5
REMARK VINA RESULT: -7.258034630      1.752      2.966
REMARK  17 active torsions:
REMARK  status: ('A' for Active; 'I' for Inactive)
REMARK    1  A    between atoms: O1_2  and  C2_3
REMARK    2  A    between atoms: C4_5  and  O2_6
REMARK    3  A    between atoms: C7_9  and  O3_10
REMARK    4  A    between atoms: O3_10  and  C8_11
REMARK    5  A    between atoms: C8_11  and  C9_13
REMARK    6  A    between atoms: C9_13  and  N1_14
REMARK    7  A    between atoms: C15_23  and  O5_24
REMARK    8  A    between atoms: O5_24  and  C16_25
REMARK    9  A    between atoms: C16_25  and  C17_26
REMARK   10  A    between atoms: C17_26  and  O6_27
REMARK   11  A    between atoms: C17_26  and  O7_29
REMARK   12  A    between atoms: C17_26  and  C18_31
REMARK   13  A    between atoms: C18_31  and  C19_33
REMARK   14  A    between atoms: C19_33  and  C20_35
REMARK   15  A    between atoms: C20_35  and  O10_36
REMARK   16  A    between atoms: C20_35  and  O11_38
REMARK   17  A    between atoms: C21_40  and  C22_41
ROOT
HETATM    1  C2  UNL     1      -3.321   5.730   5.147  1.00  0.00     0.071 A
HETATM    2  C3  UNL     1      -2.280   4.836   5.290  1.00  0.00     0.074 A
HETATM    3  C4  UNL     1      -2.479   3.495   5.524  1.00  0.00     0.084 A
HETATM    4  C6  UNL     1      -3.763   2.998   5.626  1.00  0.00     0.044 A
HETATM    5  C7  UNL     1      -4.028   1.665   5.858  1.00  0.00     0.127 A
HETATM    6  C10 UNL     1      -5.347   1.214   5.948  1.00  0.00     0.113 A
HETATM    7  C11 UNL     1      -6.405   2.079   5.809  1.00  0.00     0.011 A
HETATM    8  C12 UNL     1      -6.117   3.391   5.581  1.00  0.00     0.025 A
HETATM    9  C13 UNL     1      -4.812   3.878   5.485  1.00  0.00    -0.017 A
HETATM   10  C14 UNL     1      -4.607   5.241   5.247  1.00  0.00     0.049 A
HETATM   11  C15 UNL     1      -7.685   1.280   5.955  1.00  0.00     0.191 C
HETATM   12  C21 UNL     1      -7.178   0.022   6.642  1.00  0.00     0.196 C
HETATM   13  O14 UNL     1      -5.819  -0.070   6.175  1.00  0.00    -0.335 OA
ENDROOT
BRANCH  11  14
HETATM   14  O5  UNL     1      -8.385   1.086   4.939  1.00  0.00    -0.372 OA
BRANCH  14  15
HETATM   15  C16 UNL     1      -9.055   0.874   3.920  1.00  0.00     0.246 C
BRANCH  15  16
HETATM   16  C17 UNL     1      -8.409  -0.170   2.960  1.00  0.00     0.253 C
BRANCH  16  17
HETATM   17  O6  UNL     1      -9.189  -0.219   1.811  1.00  0.00    -0.358 OA
ATOM     18  H6  UNL     1     -10.076  -0.431   2.077  1.00  0.00     0.213 HD
ENDBRANCH  16  17
BRANCH  16  19
HETATM   19  O7  UNL     1      -7.119   0.284   2.724  1.00  0.00    -0.358 OA
ATOM     20  H7  UNL     1      -7.035   0.337   1.779  1.00  0.00     0.213 HD
ENDBRANCH  16  19
BRANCH  16  21
HETATM   21  C18 UNL     1      -8.401  -1.491   3.609  1.00  0.00     0.263 C
HETATM   22  O8  UNL     1      -9.289  -1.757   4.450  1.00  0.00    -0.283 OA
BRANCH  21  23
HETATM   23  C19 UNL     1      -7.384  -2.464   3.280  1.00  0.00     0.254 C
HETATM   24  O9  UNL     1      -6.296  -2.544   3.899  1.00  0.00    -0.284 OA
BRANCH  23  25
HETATM   25  C20 UNL     1      -7.605  -3.424   2.164  1.00  0.00     0.334 C
BRANCH  25  26
HETATM   26  O10 UNL     1      -8.925  -3.433   1.746  1.00  0.00    -0.364 OA
ATOM     27  H10 UNL     1      -9.328  -4.284   1.868  1.00  0.00     0.213 HD
ENDBRANCH  25  26
BRANCH  25  28
HETATM   28  O11 UNL     1      -7.259  -4.690   2.655  1.00  0.00    -0.364 OA
ATOM     29  H11 UNL     1      -6.923  -4.556   3.534  1.00  0.00     0.213 HD
ENDBRANCH  25  28
ENDBRANCH  23  25
ENDBRANCH  21  23
ENDBRANCH  16  21
ENDBRANCH  15  16
ENDBRANCH  14  15
ENDBRANCH  11  14
BRANCH  12  30
HETATM   30  C22 UNL     1      -7.150   0.012   8.082  1.00  0.00    -0.023 A
HETATM   31  C23 UNL     1      -8.340   0.413   8.711  1.00  0.00     0.013 A
HETATM   32  C24 UNL     1      -8.488   0.472  10.055  1.00  0.00     0.040 A
HETATM   33  C25 UNL     1      -7.425   0.124  10.866  1.00  0.00     0.105 A
HETATM   34  C26 UNL     1      -6.239  -0.275  10.317  1.00  0.00     0.105 A
HETATM   35  O13 UNL     1      -7.247   0.076  12.258  1.00  0.00    -0.323 OA
HETATM   36  C27 UNL     1      -6.123  -0.323   8.928  1.00  0.00     0.049 A
HETATM   37  O12 UNL     1      -5.363  -0.559  11.354  1.00  0.00    -0.323 OA
HETATM   38  C28 UNL     1      -5.856   0.069  12.528  1.00  0.00     0.352 C
ENDBRANCH  12  30
BRANCH   5  39
HETATM   39  O3  UNL     1      -2.994   0.783   6.003  1.00  0.00    -0.274 OA
BRANCH  39  40
HETATM   40  C8  UNL     1      -2.739   0.055   7.143  1.00  0.00     0.289 C
HETATM   41  O4  UNL     1      -2.701  -1.184   7.094  1.00  0.00    -0.263 OA
BRANCH  40  42
HETATM   42  C9  UNL     1      -2.514   0.751   8.419  1.00  0.00     0.340 C
BRANCH  42  43
HETATM   43  N1  UNL     1      -2.639  -0.167   9.556  1.00  0.00    -0.070 N
ATOM     44  H13 UNL     1      -1.776  -0.212  10.099  1.00  0.00     0.274 HD
ATOM     45  H12 UNL     1      -3.257   0.209  10.276  1.00  0.00     0.274 HD
ATOM     46  H11 UNL     1      -2.939  -1.094   9.253  1.00  0.00     0.274 HD
ENDBRANCH  42  43
ENDBRANCH  40  42
ENDBRANCH  39  40
ENDBRANCH   5  39
BRANCH   3  47
HETATM   47  O2  UNL     1      -1.391   2.651   5.655  1.00  0.00    -0.355 OA
HETATM   48  C5  UNL     1      -0.284   3.064   6.427  1.00  0.00     0.210 C
ENDBRANCH   3  47
BRANCH   1  49
HETATM   49  O1  UNL     1      -3.147   7.080   4.911  1.00  0.00    -0.356 OA
HETATM   50  C1  UNL     1      -4.221   7.904   4.546  1.00  0.00     0.210 C
ENDBRANCH   1  49
TORSDOF 17
ENDMDL