MODEL 3
REMARK VINA RESULT: -7.426694297      6.043     11.495
REMARK  14 active torsions:
REMARK  status: ('A' for Active; 'I' for Inactive)
REMARK    1  A    between atoms: C2_2  and  N1_4
REMARK    2  A    between atoms: C8_9  and  N2_10
REMARK    3  A    between atoms: C13_17  and  O1_18
REMARK    4  A    between atoms: O1_18  and  C14_19
REMARK    5  A    between atoms: C14_19  and  C15_20
REMARK    6  A    between atoms: C15_20  and  O2_21
REMARK    7  A    between atoms: C18_29  and  N6_30
REMARK    8  A    between atoms: N6_30  and  C19_31
REMARK    9  A    between atoms: N6_30  and  C21_35
REMARK   10  A    between atoms: C19_31  and  C20_32
REMARK   11  A    between atoms: C20_32  and  O3_33
REMARK   12  A    between atoms: C21_35  and  C22_36
REMARK   13  A    between atoms: C22_36  and  O4_37
REMARK   14  A    between atoms: C23_41  and  N8_42
ROOT
HETATM    1  N1  UNL     1      -0.601   2.015  10.358  1.00  0.00    -0.314 N
HETATM    2  C4  UNL     1      -0.988   2.317  11.579  1.00  0.00     0.121 A
HETATM    3  C5  UNL     1      -0.264   3.138  12.524  1.00  0.00     0.011 A
HETATM    4  C6  UNL     1       0.974   2.987  13.045  1.00  0.00     0.017 A
HETATM    5  C7  UNL     1       1.579   3.937  13.835  1.00  0.00     0.033 A
HETATM    6  C8  UNL     1       0.913   5.126  14.132  1.00  0.00     0.064 A
HETATM    7  C13 UNL     1      -0.338   5.297  13.613  1.00  0.00     0.096 A
HETATM    8  C16 UNL     1      -0.915   4.345  12.842  1.00  0.00     0.054 A
HETATM    9  N4  UNL     1      -2.242   1.962  12.000  1.00  0.00    -0.326 N
ATOM     10  H4  UNL     1      -2.535   2.202  12.947  1.00  0.00     0.169 HD
HETATM   11  C17 UNL     1      -3.093   1.309  11.201  1.00  0.00     0.140 A
HETATM   12  N5  UNL     1      -4.329   0.973  11.678  1.00  0.00    -0.175 N
ATOM     13  H5  UNL     1      -4.599   1.221  12.630  1.00  0.00     0.186 HD
HETATM   14  C18 UNL     1      -5.185   0.310  10.876  1.00  0.00     0.683 A
HETATM   15  N7  UNL     1      -4.812   0.004   9.654  1.00  0.00    -0.176 N
ATOM     16  H7  UNL     1      -5.472  -0.498   9.059  1.00  0.00     0.186 HD
HETATM   17  C23 UNL     1      -3.564   0.326   9.125  1.00  0.00     0.137 A
HETATM   18  C29 UNL     1      -2.680   0.998   9.925  1.00  0.00     0.097 A
HETATM   19  C30 UNL     1      -1.407   1.341   9.439  1.00  0.00     0.121 A
HETATM   20  N10 UNL     1      -1.053   1.196   8.313  1.00  0.00    -0.384 N
ATOM     21 1H10 UNL     1      -1.642   0.704   7.642  1.00  0.00     0.157 HD
ATOM     22 2H10 UNL     1      -0.130   1.445   7.960  1.00  0.00     0.157 HD
ENDROOT
BRANCH   1  23
HETATM   23  C2  UNL     1       0.711   2.387   9.876  1.00  0.00     0.085 C
HETATM   24  C1  UNL     1       0.666   3.227   8.612  1.00  0.00     0.032 C
HETATM   25  C3  UNL     1       1.557   1.152   9.725  1.00  0.00     0.032 C
ENDBRANCH   1  23
BRANCH   7  26
HETATM   26  O1  UNL     1      -1.008   6.513  13.911  1.00  0.00    -0.347 OA
BRANCH  26  27
HETATM   27  C14 UNL     1      -2.369   6.352  14.305  1.00  0.00     0.201 C
BRANCH  27  28
HETATM   28  C15 UNL     1      -3.298   7.293  13.583  1.00  0.00     0.190 C
BRANCH  28  29
HETATM   29  O2  UNL     1      -4.600   7.241  14.054  1.00  0.00    -0.399 OA
ATOM     30  H2  UNL     1      -5.245   7.173  13.360  1.00  0.00     0.209 HD
ENDBRANCH  28  29
ENDBRANCH  27  28
ENDBRANCH  26  27
ENDBRANCH   7  26
BRANCH  17  31
HETATM   31  N8  UNL     1      -3.302  -0.115   7.815  1.00  0.00    -0.360 N
HETATM   32  C24 UNL     1      -2.923  -1.493   7.581  1.00  0.00     0.144 C
HETATM   33  C25 UNL     1      -4.000  -2.148   6.716  1.00  0.00     0.141 C
HETATM   34  N9  UNL     1      -4.697  -1.250   5.877  1.00  0.00    -0.394 N
HETATM   35  C26 UNL     1      -6.107  -1.289   5.953  1.00  0.00     0.148 C
HETATM   36  C27 UNL     1      -4.095  -0.034   5.510  1.00  0.00     0.077 C
HETATM   37  C28 UNL     1      -3.477   0.736   6.667  1.00  0.00     0.168 C
ENDBRANCH  17  31
BRANCH   6  38
HETATM   38  N2  UNL     1       1.541   6.141  14.925  1.00  0.00    -0.376 N
HETATM   39  C9  UNL     1       2.304   7.229  14.367  1.00  0.00     0.142 C
HETATM   40  C10 UNL     1       1.953   8.502  15.090  1.00  0.00     0.133 C
HETATM   41  N3  UNL     1       2.041   8.400  16.518  1.00  0.00    -0.418 N
HETATM   42  C11 UNL     1       2.238   7.071  17.031  1.00  0.00     0.133 C
ATOM     43  H3  UNL     1       1.969   9.214  17.129  1.00  0.00     0.153 HD
HETATM   44  C12 UNL     1       1.382   6.048  16.334  1.00  0.00     0.142 C
ENDBRANCH   6  38
BRANCH  14  45
HETATM   45  N6  UNL     1      -6.482  -0.083  11.429  1.00  0.00    -0.213 N
BRANCH  45  46
HETATM   46  C19 UNL     1      -6.846   0.106  12.793  1.00  0.00     0.167 C
BRANCH  46  47
HETATM   47  C20 UNL     1      -6.072  -0.812  13.703  1.00  0.00     0.184 C
BRANCH  47  48
HETATM   48  O3  UNL     1      -6.681  -1.022  14.937  1.00  0.00    -0.399 OA
ATOM     49  H3  UNL     1      -6.268  -0.553  15.652  1.00  0.00     0.209 HD
ENDBRANCH  47  48
ENDBRANCH  46  47
ENDBRANCH  45  46
BRANCH  45  50
HETATM   50  C21 UNL     1      -7.383  -0.713  10.460  1.00  0.00     0.167 C
BRANCH  50  51
HETATM   51  C22 UNL     1      -8.276   0.393   9.913  1.00  0.00     0.184 C
BRANCH  51  52
HETATM   52  O4  UNL     1      -7.885   0.644   8.591  1.00  0.00    -0.399 OA
ATOM     53  H4  UNL     1      -8.546   1.199   8.194  1.00  0.00     0.209 HD
ENDBRANCH  51  52
ENDBRANCH  50  51
ENDBRANCH  45  50
ENDBRANCH  14  45
TORSDOF 14
ENDMDL