MODEL 1
REMARK VINA RESULT: -7.300448135      0.000      0.000
REMARK  16 active torsions:
REMARK  status: ('A' for Active; 'I' for Inactive)
REMARK    1  A    between atoms: O1_2  and  C2_3
REMARK    2  A    between atoms: C3_4  and  O2_5
REMARK    3  A    between atoms: C4_7  and  O3_8
REMARK    4  A    between atoms: O3_8  and  C5_9
REMARK    5  A    between atoms: C8_13  and  S1_14
REMARK    6  A    between atoms: C10_16  and  O5_17
REMARK    7  A    between atoms: C11_19  and  O6_20
REMARK    8  A    between atoms: O6_20  and  C12_21
REMARK    9  A    between atoms: C17_26  and  C18_27
REMARK   10  A    between atoms: C18_27  and  O7_28
REMARK   11  A    between atoms: O7_28  and  C19_29
REMARK   12  A    between atoms: C22_33  and  O9_34
REMARK   13  A    between atoms: C23_36  and  O10_37
REMARK   14  A    between atoms: C24_39  and  O11_40
REMARK   15  A    between atoms: O11_40  and  C25_41
REMARK   16  A    between atoms: C25_41  and  C26_43
ROOT
HETATM    1  C2  UNL     1      -8.041  -1.212   3.329  1.00  0.00     0.158 C
HETATM    2  C3  UNL     1      -7.182  -1.851   4.450  1.00  0.00     0.176 C
HETATM    3  C4  UNL     1      -6.991  -0.695   5.402  1.00  0.00     0.160 C
HETATM    4  C15 UNL     1      -8.317   0.026   5.350  1.00  0.00     0.022 C
HETATM    5  C16 UNL     1      -8.166   1.501   5.624  1.00  0.00     0.013 C
HETATM    6  C17 UNL     1      -8.937  -0.225   4.025  1.00  0.00     0.047 C
ENDROOT
BRANCH   6   7
HETATM    7  C18 UNL     1      -9.062   1.060   3.201  1.00  0.00     0.178 C
BRANCH   7   8
HETATM    8  O7  UNL     1      -9.945   0.857   2.132  1.00  0.00    -0.358 OA
BRANCH   8   9
HETATM    9  C19 UNL     1     -10.992   1.808   2.189  1.00  0.00     0.292 C
HETATM   10  O8  UNL     1     -10.641   2.832   1.385  1.00  0.00    -0.351 OA
HETATM   11  C20 UNL     1     -11.596   3.776   1.100  1.00  0.00     0.152 C
HETATM   12  C21 UNL     1     -11.573   4.835   2.181  1.00  0.00     0.042 C
HETATM   13  C22 UNL     1     -12.963   3.209   0.853  1.00  0.00     0.178 C
HETATM   14  C23 UNL     1     -12.964   1.706   0.776  1.00  0.00     0.183 C
HETATM   15  C24 UNL     1     -12.272   1.109   1.954  1.00  0.00     0.218 C
BRANCH  13  16
HETATM   16  O9  UNL     1     -13.781   3.575   1.920  1.00  0.00    -0.390 OA
ATOM     17  H9  UNL     1     -14.683   3.550   1.621  1.00  0.00     0.210 HD
ENDBRANCH  13  16
BRANCH  14  18
HETATM   18  O10 UNL     1     -14.244   1.187   0.612  1.00  0.00    -0.390 OA
ATOM     19  H10 UNL     1     -14.281   0.255   0.794  1.00  0.00     0.210 HD
ENDBRANCH  14  18
BRANCH  15  20
HETATM   20  O11 UNL     1     -13.102   1.039   3.101  1.00  0.00    -0.303 OA
BRANCH  20  21
HETATM   21  C25 UNL     1     -12.742   1.528   4.327  1.00  0.00     0.321 C
HETATM   22  O12 UNL     1     -12.928   2.750   4.552  1.00  0.00    -0.257 OA
BRANCH  21  23
HETATM   23  C26 UNL     1     -12.157   0.705   5.368  1.00  0.00     0.340 C
HETATM   24  O13 UNL     1     -12.217  -0.546   5.290  1.00  0.00    -0.296 OA
ENDBRANCH  21  23
ENDBRANCH  20  21
ENDBRANCH  15  20
ENDBRANCH   8   9
ENDBRANCH   7   8
ENDBRANCH   6   7
BRANCH   1  25
HETATM   25  O1  UNL     1      -8.762  -2.254   2.761  1.00  0.00    -0.388 OA
HETATM   26  C1  UNL     1      -8.057  -2.998   1.849  1.00  0.00     0.202 C
ENDBRANCH   1  25
BRANCH   2  27
HETATM   27  O2  UNL     1      -7.941  -2.865   4.983  1.00  0.00    -0.390 OA
ATOM     28  H2  UNL     1      -8.190  -2.579   5.854  1.00  0.00     0.210 HD
ENDBRANCH   2  27
BRANCH   3  29
HETATM   29  O3  UNL     1      -6.753  -1.122   6.677  1.00  0.00    -0.350 OA
BRANCH  29  30
HETATM   30  C5  UNL     1      -5.621  -0.582   7.255  1.00  0.00     0.292 C
HETATM   31  O4  UNL     1      -4.947   0.302   6.463  1.00  0.00    -0.352 OA
HETATM   32  C6  UNL     1      -4.006   1.104   7.022  1.00  0.00     0.137 C
HETATM   33  C7  UNL     1      -2.777   0.994   6.093  1.00  0.00     0.041 C
HETATM   34  C8  UNL     1      -3.550   0.859   8.401  1.00  0.00     0.107 C
HETATM   35  C10 UNL     1      -4.381  -0.100   9.232  1.00  0.00     0.168 C
HETATM   36  C11 UNL     1      -5.803  -0.019   8.632  1.00  0.00     0.207 C
BRANCH  34  37
HETATM   37  S1  UNL     1      -1.781   0.504   8.588  1.00  0.00    -0.163 SA
HETATM   38  C9  UNL     1      -1.021   1.240  10.023  1.00  0.00     0.090 C
ENDBRANCH  34  37
BRANCH  35  39
HETATM   39  O5  UNL     1      -4.365   0.163  10.577  1.00  0.00    -0.392 OA
ATOM     40  H5  UNL     1      -4.886  -0.437  11.098  1.00  0.00     0.210 HD
ENDBRANCH  35  39
BRANCH  36  41
HETATM   41  O6  UNL     1      -6.632  -0.685   9.471  1.00  0.00    -0.374 OA
BRANCH  41  42
HETATM   42  C12 UNL     1      -7.516   0.075  10.207  1.00  0.00     0.114 C
HETATM   43  C13 UNL     1      -8.241  -0.724  11.267  1.00  0.00     0.039 C
HETATM   44  C14 UNL     1      -8.569   0.614   9.263  1.00  0.00     0.039 C
ENDBRANCH  41  42
ENDBRANCH  36  41
ENDBRANCH  29  30
ENDBRANCH   3  29
TORSDOF 16
ENDMDL