MODEL 1
REMARK VINA RESULT: -7.571843131      0.000      0.000
REMARK  19 active torsions:
REMARK  status: ('A' for Active; 'I' for Inactive)
REMARK    1  A    between atoms: C2_2  and  O1_3
REMARK    2  A    between atoms: O1_3  and  C3_4
REMARK    3  A    between atoms: C3_4  and  C4_6
REMARK    4  A    between atoms: C4_6  and  C5_7
REMARK    5  A    between atoms: C5_7  and  O3_8
REMARK    6  A    between atoms: C5_7  and  C6_10
REMARK    7  A    between atoms: C6_10  and  O5_12
REMARK    8  A    between atoms: O5_12  and  C7_13
REMARK    9  A    between atoms: C10_16  and  O6_18
REMARK   10  A    between atoms: C13_21  and  O7_22
REMARK   11  A    between atoms: O7_22  and  C14_23
REMARK   12  A    between atoms: C16_26  and  O9_27
REMARK   13  A    between atoms: O9_27  and  C17_28
REMARK   14  A    between atoms: C21_33  and  C22_34
REMARK   15  A    between atoms: C22_34  and  O11_35
REMARK   16  A    between atoms: O11_35  and  C23_36
REMARK       I    between atoms: C23_36  and  N1_38
REMARK   17  A    between atoms: N1_38  and  C24_40
REMARK   18  A    between atoms: C24_40  and  C25_41
REMARK   19  A    between atoms: C24_40  and  C27_43
ROOT
HETATM    1  C7  UNL     1      -8.421   0.964   5.872  1.00  0.00     0.137 C
HETATM    2  C8  UNL     1      -7.164   1.841   5.750  1.00  0.00     0.041 C
HETATM    3  C9  UNL     1      -6.202   0.861   5.318  1.00  0.00     0.036 C
HETATM    4  C10 UNL     1      -4.782   0.942   5.294  1.00  0.00     0.062 C
HETATM    5  C11 UNL     1      -4.053   1.720   6.335  1.00  0.00     0.046 C
HETATM    6  C12 UNL     1      -4.391  -0.522   5.243  1.00  0.00     0.080 C
HETATM    7  C13 UNL     1      -5.659  -1.347   5.489  1.00  0.00     0.110 C
HETATM    8  C16 UNL     1      -6.476  -1.668   4.320  1.00  0.00     0.168 C
HETATM    9  C19 UNL     1      -7.909  -1.156   4.592  1.00  0.00     0.043 C
HETATM   10  C20 UNL     1      -7.920  -0.490   5.914  1.00  0.00     0.032 C
HETATM   11  C21 UNL     1      -6.485  -0.310   6.201  1.00  0.00     0.029 C
ENDROOT
BRANCH   1  12
HETATM   12  O5  UNL     1      -9.314   1.178   4.833  1.00  0.00    -0.314 OA
BRANCH  12  13
HETATM   13  C6  UNL     1     -10.686   1.087   5.051  1.00  0.00     0.288 C
HETATM   14  O4  UNL     1     -11.097   0.486   6.079  1.00  0.00    -0.262 OA
BRANCH  13  15
HETATM   15  C5  UNL     1     -11.619   1.695   4.074  1.00  0.00     0.226 C
BRANCH  15  16
HETATM   16  C4  UNL     1     -10.942   2.214   2.825  1.00  0.00     0.153 C
BRANCH  16  17
HETATM   17  C3  UNL     1     -11.679   1.769   1.631  1.00  0.00     0.261 C
HETATM   18  O2  UNL     1     -11.389   0.690   1.075  1.00  0.00    -0.265 OA
BRANCH  17  19
HETATM   19  O1  UNL     1     -12.705   2.561   1.127  1.00  0.00    -0.322 OA
BRANCH  19  20
HETATM   20  C2  UNL     1     -13.847   1.858   0.616  1.00  0.00     0.174 C
HETATM   21  C1  UNL     1     -15.032   2.102   1.509  1.00  0.00     0.034 C
ENDBRANCH  19  20
ENDBRANCH  17  19
ENDBRANCH  16  17
ENDBRANCH  15  16
BRANCH  15  22
HETATM   22  O3  UNL     1     -12.584   0.769   3.737  1.00  0.00    -0.385 OA
ATOM     23  H3  UNL     1     -13.325   0.843   4.327  1.00  0.00     0.210 HD
ENDBRANCH  15  22
ENDBRANCH  13  15
ENDBRANCH  12  13
ENDBRANCH   1  12
BRANCH  11  24
HETATM   24  C22 UNL     1      -6.173  -0.250   7.613  1.00  0.00     0.194 C
BRANCH  24  25
HETATM   25  O11 UNL     1      -7.205  -0.718   8.476  1.00  0.00    -0.303 OA
BRANCH  25  26
HETATM   26  C23 UNL     1      -7.422  -0.064   9.711  1.00  0.00     0.361 C
HETATM   27  O12 UNL     1      -8.376   0.724   9.761  1.00  0.00    -0.238 OA
HETATM   28  N1  UNL     1      -6.549  -0.355  10.770  1.00  0.00    -0.322 N
ATOM     29  H1  UNL     1      -5.804  -1.017  10.555  1.00  0.00     0.165 HD
BRANCH  28  30
HETATM   30  C24 UNL     1      -6.559   0.146  12.103  1.00  0.00     0.187 C
BRANCH  30  31
HETATM   31  C25 UNL     1      -5.200   0.399  12.744  1.00  0.00     0.032 C
HETATM   32  C26 UNL     1      -4.157  -0.313  11.948  1.00  0.00     0.007 C
ENDBRANCH  30  31
BRANCH  30  33
HETATM   33  C27 UNL     1      -7.507  -0.574  12.937  1.00  0.00     0.196 C
HETATM   34  O13 UNL     1      -8.610  -0.946  12.470  1.00  0.00    -0.646 OA
HETATM   35  O14 UNL     1      -7.197  -0.862  14.273  1.00  0.00    -0.646 OA
ENDBRANCH  30  33
ENDBRANCH  28  30
ENDBRANCH  25  26
ENDBRANCH  24  25
ENDBRANCH  11  24
BRANCH   4  36
HETATM   36  O6  UNL     1      -4.369   1.488   4.048  1.00  0.00    -0.390 OA
ATOM     37  H6  UNL     1      -4.097   2.389   4.179  1.00  0.00     0.210 HD
ENDBRANCH   4  36
BRANCH   8  38
HETATM   38  O9  UNL     1      -6.578  -3.046   3.987  1.00  0.00    -0.313 OA
BRANCH  38  39
HETATM   39  C17 UNL     1      -7.201  -3.500   2.818  1.00  0.00     0.255 C
HETATM   40  C18 UNL     1      -7.865  -2.522   1.883  1.00  0.00     0.126 C
HETATM   41  O10 UNL     1      -7.176  -4.731   2.602  1.00  0.00    -0.266 OA
ENDBRANCH  38  39
ENDBRANCH   8  38
BRANCH   7  42
HETATM   42  O7  UNL     1      -5.385  -2.421   6.373  1.00  0.00    -0.307 OA
BRANCH  42  43
HETATM   43  C14 UNL     1      -4.175  -3.029   6.553  1.00  0.00     0.255 C
HETATM   44  C15 UNL     1      -3.231  -2.694   7.648  1.00  0.00     0.126 C
HETATM   45  O8  UNL     1      -3.815  -3.928   5.762  1.00  0.00    -0.266 OA
ENDBRANCH  42  43
ENDBRANCH   7  42
TORSDOF 19
ENDMDL