MODEL 1
REMARK VINA RESULT: -7.191147245      0.000      0.000
REMARK  17 active torsions:
REMARK  status: ('A' for Active; 'I' for Inactive)
REMARK    1  A    between atoms: C5_7  and  C6_8
REMARK    2  A    between atoms: C6_8  and  C7_9
REMARK    3  A    between atoms: C10_12  and  O1_13
REMARK    4  A    between atoms: N2_15  and  C11_16
REMARK    5  A    between atoms: C11_16  and  N3_17
REMARK    6  A    between atoms: N4_20  and  C14_21
REMARK    7  A    between atoms: C14_21  and  C15_22
REMARK    8  A    between atoms: C15_22  and  O2_23
REMARK    9  A    between atoms: C15_22  and  C16_25
REMARK   10  A    between atoms: C16_25  and  O3_26
REMARK   11  A    between atoms: O3_26  and  C17_27
REMARK   12  A    between atoms: C18_28  and  O4_29
REMARK   13  A    between atoms: C21_32  and  C22_33
REMARK   14  A    between atoms: C22_33  and  O5_34
REMARK   15  A    between atoms: C22_33  and  O6_36
REMARK   16  A    between atoms: C25_39  and  N5_40
REMARK   17  A    between atoms: C28_45  and  O9_46
ROOT
HETATM    1  N3  UNL     1      -2.337   2.223   6.024  1.00  0.00    -0.374 N
HETATM    2  C12 UNL     1      -3.723   2.309   5.870  1.00  0.00     0.074 C
HETATM    3  C13 UNL     1      -4.019   2.883   4.504  1.00  0.00     0.139 C
HETATM    4  N4  UNL     1      -3.676   1.861   3.501  1.00  0.00    -0.284 NA
HETATM    5  C26 UNL     1      -2.448   1.273   3.736  1.00  0.00     0.115 C
HETATM    6  C27 UNL     1      -1.628   1.978   4.839  1.00  0.00     0.138 C
ENDROOT
BRANCH   4   7
HETATM    7  C14 UNL     1      -4.031   2.382   2.259  1.00  0.00     0.094 C
BRANCH   7   8
HETATM    8  C15 UNL     1      -4.860   1.721   1.267  1.00  0.00     0.077 C
BRANCH   8   9
HETATM    9  O2  UNL     1      -4.901   2.222   0.009  1.00  0.00    -0.362 OA
ATOM     10  H2  UNL     1      -5.698   2.124  -0.499  1.00  0.00     0.217 HD
ENDBRANCH   8   9
BRANCH   8  11
HETATM   11  C16 UNL     1      -4.834   0.168   1.312  1.00  0.00     0.241 C
BRANCH  11  12
HETATM   12  O3  UNL     1      -6.081  -0.233   1.634  1.00  0.00    -0.339 OA
BRANCH  12  13
HETATM   13  C17 UNL     1      -6.943  -0.176   2.663  1.00  0.00     0.135 A
HETATM   14  C18 UNL     1      -8.096   0.627   2.589  1.00  0.00     0.105 A
HETATM   15  C20 UNL     1      -8.977   0.734   3.630  1.00  0.00     0.056 A
HETATM   16  C21 UNL     1      -8.827   0.080   4.820  1.00  0.00     0.027 A
HETATM   17  C24 UNL     1      -7.714  -0.727   4.927  1.00  0.00     0.055 A
HETATM   18  C25 UNL     1      -6.801  -0.841   3.858  1.00  0.00     0.140 A
BRANCH  14  19
HETATM   19  O4  UNL     1      -8.279   1.317   1.398  1.00  0.00    -0.353 OA
HETATM   20  C19 UNL     1      -8.441   2.713   1.340  1.00  0.00     0.210 C
ENDBRANCH  14  19
BRANCH  16  21
HETATM   21  C22 UNL     1      -9.758   0.291   5.928  1.00  0.00     0.188 C
BRANCH  21  22
HETATM   22  O5  UNL     1      -9.277   0.635   7.089  1.00  0.00    -0.340 OA
ATOM     23  H5  UNL     1      -9.745   1.286   7.599  1.00  0.00     0.220 HD
ENDBRANCH  21  22
BRANCH  21  24
HETATM   24  O6  UNL     1     -11.049   0.176   5.922  1.00  0.00    -0.335 OA
HETATM   25  C23 UNL     1     -12.329   0.289   5.811  1.00  0.00     0.212 C
ENDBRANCH  21  24
ENDBRANCH  16  21
BRANCH  18  26
HETATM   26  N5  UNL     1      -5.696  -1.722   4.047  1.00  0.00    -0.113 N
HETATM   27  O7  UNL     1      -4.612  -1.333   4.504  1.00  0.00    -0.532 OA
HETATM   28  O8  UNL     1      -5.791  -3.075   3.743  1.00  0.00    -0.532 OA
ENDBRANCH  18  26
ENDBRANCH  12  13
ENDBRANCH  11  12
ENDBRANCH   8  11
ENDBRANCH   7   8
ENDBRANCH   4   7
BRANCH   1  29
HETATM   29  C11 UNL     1      -1.788   1.697   7.206  1.00  0.00     0.258 C
BRANCH  29  30
HETATM   30  N2  UNL     1      -2.718   0.876   7.985  1.00  0.00    -0.290 N
HETATM   31  C10 UNL     1      -3.090  -0.354   7.637  1.00  0.00     0.153 A
HETATM   32  C8  UNL     1      -3.932  -0.811   8.627  1.00  0.00     0.012 A
HETATM   33  C7  UNL     1      -4.057   0.200   9.607  1.00  0.00     0.073 A
HETATM   34  C9  UNL     1      -4.620  -2.115   8.610  1.00  0.00     0.054 C
HETATM   35  C28 UNL     1      -3.284   1.227   9.162  1.00  0.00     0.165 A
BRANCH  31  36
HETATM   36  O1  UNL     1      -2.746  -1.124   6.518  1.00  0.00    -0.345 OA
ATOM     37  H1  UNL     1      -1.859  -1.176   6.181  1.00  0.00     0.219 HD
ENDBRANCH  31  36
BRANCH  33  38
HETATM   38  C6  UNL     1      -4.876   0.020  10.761  1.00  0.00    -0.080 C
BRANCH  38  39
HETATM   39  C5  UNL     1      -5.564  -0.146  11.730  1.00  0.00     0.103 A
HETATM   40  C3  UNL     1      -6.995  -0.198  11.460  1.00  0.00     0.042 A
HETATM   41  N1  UNL     1      -7.581  -0.478  12.602  1.00  0.00    -0.344 N
HETATM   42  C4  UNL     1      -7.650  -0.006  10.147  1.00  0.00     0.071 C
HETATM   43  C2  UNL     1      -6.697  -0.614  13.563  1.00  0.00     0.096 A
ATOM     44  H1  UNL     1      -8.588  -0.578  12.725  1.00  0.00     0.167 HD
HETATM   45  C1  UNL     1      -6.867  -0.973  14.852  1.00  0.00     0.063 C
HETATM   46  N6  UNL     1      -5.453  -0.415  13.058  1.00  0.00    -0.335 N
ATOM     47  H6  UNL     1      -4.582  -0.460  13.586  1.00  0.00     0.168 HD
ENDBRANCH  38  39
ENDBRANCH  33  38
BRANCH  35  48
HETATM   48  O9  UNL     1      -3.110   2.428   9.795  1.00  0.00    -0.345 OA
ATOM     49  H9  UNL     1      -3.702   3.170   9.746  1.00  0.00     0.219 HD
ENDBRANCH  35  48
ENDBRANCH  29  30
ENDBRANCH   1  29
TORSDOF 17
ENDMDL