MODEL 5
REMARK VINA RESULT: -6.937743822      2.072      8.024
REMARK  20 active torsions:
REMARK  status: ('A' for Active; 'I' for Inactive)
REMARK    1  A    between atoms: C2_2  and  O2_4
REMARK    2  A    between atoms: O2_4  and  C3_5
REMARK    3  A    between atoms: C7_9  and  C8_10
REMARK    4  A    between atoms: C8_10  and  O3_11
REMARK    5  A    between atoms: O3_11  and  C9_12
REMARK    6  A    between atoms: C15_22  and  C16_23
REMARK    7  A    between atoms: C16_23  and  O8_24
REMARK    8  A    between atoms: C16_23  and  C19_28
REMARK    9  A    between atoms: O8_24  and  C17_25
REMARK   10  A    between atoms: C19_28  and  O10_29
REMARK   11  A    between atoms: C19_28  and  O11_31
REMARK   12  A    between atoms: C19_28  and  C22_35
REMARK   13  A    between atoms: O11_31  and  C20_32
REMARK   14  A    between atoms: C22_35  and  O13_36
REMARK   15  A    between atoms: C22_35  and  C23_38
REMARK   16  A    between atoms: C23_38  and  O14_39
REMARK   17  A    between atoms: C23_38  and  C24_41
REMARK   18  A    between atoms: C24_41  and  C25_42
REMARK   19  A    between atoms: C25_42  and  C26_43
REMARK   20  A    between atoms: C26_43  and  O15_44
ROOT
HETATM    1  C3  UNL     1      -4.189  -2.344   6.302  1.00  0.00     0.170 C
HETATM    2  C4  UNL     1      -3.273  -1.902   7.438  1.00  0.00     0.052 C
HETATM    3  C5  UNL     1      -3.284  -0.408   7.383  1.00  0.00     0.010 C
HETATM    4  C6  UNL     1      -1.955   0.186   7.205  1.00  0.00    -0.009 C
HETATM    5  C7  UNL     1      -1.717   1.106   8.127  1.00  0.00    -0.056 C
HETATM    6  C10 UNL     1      -2.887   1.223   9.027  1.00  0.00     0.069 C
HETATM    7  C11 UNL     1      -3.808   0.119   8.673  1.00  0.00     0.141 C
HETATM    8  O6  UNL     1      -5.086   0.614   8.454  1.00  0.00    -0.349 OA
HETATM    9  C12 UNL     1      -6.040  -0.387   8.376  1.00  0.00     0.158 C
HETATM   10  C13 UNL     1      -6.050  -1.028   9.783  1.00  0.00     0.078 C
HETATM   11  C14 UNL     1      -7.377   0.349   8.328  1.00  0.00     0.078 C
HETATM   12  O7  UNL     1      -5.855  -1.365   7.509  1.00  0.00    -0.339 OA
HETATM   13  C15 UNL     1      -5.212  -1.208   6.303  1.00  0.00     0.124 C
HETATM   14  C27 UNL     1      -4.219  -0.092   6.222  1.00  0.00     0.060 C
ENDROOT
BRANCH  13  15
HETATM   15  C16 UNL     1      -6.230  -1.282   5.249  1.00  0.00     0.234 C
BRANCH  15  16
HETATM   16  O8  UNL     1      -5.796  -2.268   4.247  1.00  0.00    -0.307 OA
BRANCH  16  17
HETATM   17  C17 UNL     1      -6.487  -3.363   3.891  1.00  0.00     0.255 C
HETATM   18  C18 UNL     1      -7.120  -3.452   2.555  1.00  0.00     0.126 C
HETATM   19  O9  UNL     1      -6.578  -4.282   4.703  1.00  0.00    -0.266 OA
ENDBRANCH  16  17
ENDBRANCH  15  16
BRANCH  15  20
HETATM   20  C19 UNL     1      -6.713  -0.060   4.525  1.00  0.00     0.229 C
BRANCH  20  21
HETATM   21  O10 UNL     1      -6.311   1.154   4.914  1.00  0.00    -0.361 OA
ATOM     22  H10 UNL     1      -6.518   1.917   4.387  1.00  0.00     0.213 HD
ENDBRANCH  20  21
BRANCH  20  23
HETATM   23  O11 UNL     1      -6.077  -0.177   3.209  1.00  0.00    -0.278 OA
BRANCH  23  24
HETATM   24  C20 UNL     1      -5.247   0.740   2.660  1.00  0.00     0.257 C
HETATM   25  C21 UNL     1      -3.782   0.502   2.597  1.00  0.00     0.126 C
HETATM   26  O12 UNL     1      -5.663   1.811   2.191  1.00  0.00    -0.266 OA
ENDBRANCH  23  24
ENDBRANCH  20  23
BRANCH  20  27
HETATM   27  C22 UNL     1      -8.183  -0.122   4.224  1.00  0.00     0.212 C
BRANCH  27  28
HETATM   28  O13 UNL     1      -8.492  -0.798   3.054  1.00  0.00    -0.387 OA
ATOM     29  H13 UNL     1      -8.161  -0.381   2.267  1.00  0.00     0.210 HD
ENDBRANCH  27  28
BRANCH  27  30
HETATM   30  C23 UNL     1      -8.957  -0.923   5.301  1.00  0.00     0.152 C
BRANCH  30  31
HETATM   31  O14 UNL     1      -9.556  -2.041   4.796  1.00  0.00    -0.393 OA
ATOM     32  H14 UNL     1      -9.887  -2.618   5.475  1.00  0.00     0.210 HD
ENDBRANCH  30  31
BRANCH  30  33
HETATM   33  C24 UNL     1     -10.103  -0.033   5.816  1.00  0.00     0.036 C
BRANCH  33  34
HETATM   34  C25 UNL     1     -11.403  -0.804   5.745  1.00  0.00     0.029 C
BRANCH  34  35
HETATM   35  C26 UNL     1     -12.501   0.233   5.508  1.00  0.00     0.164 C
BRANCH  35  36
HETATM   36  O15 UNL     1     -12.715   0.996   6.630  1.00  0.00    -0.401 OA
ATOM     37  H15 UNL     1     -13.240   1.762   6.430  1.00  0.00     0.209 HD
ENDBRANCH  35  36
ENDBRANCH  34  35
ENDBRANCH  33  34
ENDBRANCH  30  33
ENDBRANCH  27  30
ENDBRANCH  20  27
ENDBRANCH  15  20
ENDBRANCH  13  15
BRANCH   1  38
HETATM   38  O2  UNL     1      -4.700  -3.562   6.719  1.00  0.00    -0.313 OA
BRANCH  38  39
HETATM   39  C2  UNL     1      -3.960  -4.699   6.606  1.00  0.00     0.255 C
HETATM   40  C1  UNL     1      -4.277  -5.881   7.428  1.00  0.00     0.126 C
HETATM   41  O1  UNL     1      -3.006  -4.750   5.805  1.00  0.00    -0.266 OA
ENDBRANCH  38  39
ENDBRANCH   1  38
BRANCH   5  42
HETATM   42  C8  UNL     1      -0.433   1.893   8.206  1.00  0.00     0.216 C
BRANCH  42  43
HETATM   43  O3  UNL     1       0.409   1.536   7.099  1.00  0.00    -0.292 OA
BRANCH  43  44
HETATM   44  C9  UNL     1       1.624   0.906   7.294  1.00  0.00     0.333 C
HETATM   45  O4  UNL     1       1.871   0.494   8.461  1.00  0.00    -0.624 OA
HETATM   46  O5  UNL     1       2.553   0.723   6.257  1.00  0.00    -0.624 OA
ENDBRANCH  43  44
ENDBRANCH  42  43
ENDBRANCH   5  42
TORSDOF 20
ENDMDL