MODEL 3
REMARK VINA RESULT: -7.047894462      1.790      4.174
REMARK  15 active torsions:
REMARK  status: ('A' for Active; 'I' for Inactive)
REMARK    1  A    between atoms: C2_2  and  C3_3
REMARK    2  A    between atoms: C5_5  and  O1_7
REMARK    3  A    between atoms: O1_7  and  C7_8
REMARK    4  A    between atoms: C9_10  and  O2_11
REMARK    5  A    between atoms: O2_11  and  C10_12
REMARK    6  A    between atoms: C10_12  and  C11_13
REMARK    7  A    between atoms: C11_13  and  C13_15
REMARK    8  A    between atoms: C16_20  and  O4_21
REMARK    9  A    between atoms: C17_23  and  O5_24
REMARK   10  A    between atoms: O5_24  and  C18_25
REMARK   11  A    between atoms: C20_29  and  O8_30
REMARK   12  A    between atoms: C21_32  and  O9_33
REMARK   13  A    between atoms: C22_35  and  O10_36
REMARK   14  A    between atoms: C23_38  and  O11_40
REMARK   15  A    between atoms: C25_42  and  O12_43
ROOT
HETATM    1  C3  UNL     1      -3.341   2.962   4.422  1.00  0.00     0.042 C
HETATM    2  C4  UNL     1      -4.410   2.985   5.467  1.00  0.00     0.051 C
HETATM    3  C5  UNL     1      -5.329   1.832   5.654  1.00  0.00     0.087 C
HETATM    4  C6  UNL     1      -6.690   2.403   6.055  1.00  0.00     0.049 C
HETATM    5  C17 UNL     1      -5.563   0.960   4.460  1.00  0.00     0.195 C
HETATM    6  C23 UNL     1      -4.936   1.496   3.183  1.00  0.00     0.109 C
HETATM    7  C24 UNL     1      -5.772   2.565   2.517  1.00  0.00     0.051 C
HETATM    8  C25 UNL     1      -3.513   1.927   3.396  1.00  0.00     0.162 C
ENDROOT
BRANCH   3   9
HETATM    9  O1  UNL     1      -4.768   1.093   6.636  1.00  0.00    -0.370 OA
BRANCH   9  10
HETATM   10  C7  UNL     1      -4.852  -0.195   6.865  1.00  0.00     0.158 C
HETATM   11  C8  UNL     1      -5.341  -0.619   8.232  1.00  0.00     0.095 C
HETATM   12  C9  UNL     1      -4.130  -0.541   9.177  1.00  0.00     0.262 C
HETATM   13  O3  UNL     1      -3.425  -1.714   8.904  1.00  0.00    -0.354 OA
HETATM   14  C14 UNL     1      -3.211  -1.978   7.583  1.00  0.00     0.151 C
HETATM   15  C15 UNL     1      -3.825  -3.290   7.111  1.00  0.00     0.042 C
HETATM   16  C16 UNL     1      -3.499  -0.830   6.658  1.00  0.00     0.176 C
BRANCH  12  17
HETATM   17  O2  UNL     1      -4.529  -0.567  10.475  1.00  0.00    -0.361 OA
BRANCH  17  18
HETATM   18  C10 UNL     1      -5.739  -0.154  10.858  1.00  0.00     0.176 C
BRANCH  18  19
HETATM   19  C11 UNL     1      -6.089  -0.008  12.294  1.00  0.00     0.019 C
HETATM   20  C12 UNL     1      -7.542  -0.472  12.551  1.00  0.00     0.013 C
BRANCH  19  21
HETATM   21  C13 UNL     1      -5.196  -0.592  13.313  1.00  0.00     0.121 C
HETATM   22 CL1  UNL     1      -6.229  -0.964  14.749  1.00  0.00    -0.130 Cl
ENDBRANCH  19  21
ENDBRANCH  18  19
ENDBRANCH  17  18
ENDBRANCH  12  17
BRANCH  16  23
HETATM   23  O4  UNL     1      -2.438   0.083   6.867  1.00  0.00    -0.390 OA
ATOM     24  H4  UNL     1      -1.809  -0.232   7.505  1.00  0.00     0.210 HD
ENDBRANCH  16  23
ENDBRANCH   9  10
ENDBRANCH   3   9
BRANCH   5  25
HETATM   25  O5  UNL     1      -6.904   0.906   4.145  1.00  0.00    -0.347 OA
BRANCH  25  26
HETATM   26  C18 UNL     1      -7.536  -0.313   4.354  1.00  0.00     0.301 C
HETATM   27  O6  UNL     1      -8.715  -0.278   3.577  1.00  0.00    -0.285 OA
HETATM   28  C19 UNL     1      -8.628  -0.492   2.224  1.00  0.00     0.292 C
HETATM   29  O7  UNL     1      -9.264   0.168   1.348  1.00  0.00    -0.262 OA
HETATM   30  C20 UNL     1      -7.727  -1.570   1.769  1.00  0.00     0.249 C
HETATM   31  C21 UNL     1      -7.261  -2.372   2.947  1.00  0.00     0.190 C
HETATM   32  C22 UNL     1      -6.699  -1.513   4.060  1.00  0.00     0.205 C
BRANCH  30  33
HETATM   33  O8  UNL     1      -6.675  -1.114   0.985  1.00  0.00    -0.383 OA
ATOM     34  H8  UNL     1      -6.013  -1.777   0.820  1.00  0.00     0.210 HD
ENDBRANCH  30  33
BRANCH  31  35
HETATM   35  O9  UNL     1      -6.236  -3.214   2.520  1.00  0.00    -0.390 OA
ATOM     36  H9  UNL     1      -6.626  -4.025   2.218  1.00  0.00     0.210 HD
ENDBRANCH  31  35
BRANCH  32  37
HETATM   37  O10 UNL     1      -6.705  -2.354   5.184  1.00  0.00    -0.388 OA
ATOM     38  H10 UNL     1      -5.819  -2.417   5.523  1.00  0.00     0.210 HD
ENDBRANCH  32  37
ENDBRANCH  25  26
ENDBRANCH   5  25
BRANCH   1  39
HETATM   39  C2  UNL     1      -3.010   4.328   3.956  1.00  0.00    -0.030 C
HETATM   40  C1  UNL     1      -3.802   5.344   4.093  1.00  0.00     0.007 C
ENDBRANCH   1  39
BRANCH   6  41
HETATM   41  O11 UNL     1      -4.884   0.448   2.277  1.00  0.00    -0.385 OA
ATOM     42  H11 UNL     1      -5.157   0.789   1.434  1.00  0.00     0.210 HD
ENDBRANCH   6  41
BRANCH   8  43
HETATM   43  O12 UNL     1      -2.842   0.749   3.829  1.00  0.00    -0.392 OA
ATOM     44  H12 UNL     1      -3.475   0.042   3.876  1.00  0.00     0.210 HD
ENDBRANCH   8  43
TORSDOF 15
ENDMDL