MODEL 3
REMARK VINA RESULT: -6.422833074      1.300      2.305
REMARK  17 active torsions:
REMARK  status: ('A' for Active; 'I' for Inactive)
REMARK    1  A    between atoms: C2_2  and  C3_3
REMARK    2  A    between atoms: C2_2  and  O6_23
REMARK    3  A    between atoms: C3_3  and  C4_4
REMARK    4  A    between atoms: C4_4  and  C5_5
REMARK    5  A    between atoms: C5_5  and  O1_7
REMARK    6  A    between atoms: O1_7  and  C7_8
REMARK    7  A    between atoms: C10_12  and  O3_13
REMARK    8  A    between atoms: C11_15  and  C12_17
REMARK    9  A    between atoms: C12_17  and  O4_18
REMARK   10  A    between atoms: C13_20  and  O5_21
REMARK   11  A    between atoms: O6_23  and  C14_24
REMARK   12  A    between atoms: C14_24  and  C15_25
REMARK   13  A    between atoms: C20_31  and  C21_32
REMARK   14  A    between atoms: C21_32  and  O8_33
REMARK   15  A    between atoms: C21_32  and  C22_35
REMARK   16  A    between atoms: C22_35  and  O9_36
REMARK   17  A    between atoms: C25_41  and  O11_42
ROOT
HETATM    1  O6  UNL     1      -3.624   3.140   4.549  1.00  0.00    -0.382 OA
ENDROOT
BRANCH   1   2
HETATM    2  C2  UNL     1      -4.671   3.849   4.004  1.00  0.00     0.117 C
HETATM    3  C1  UNL     1      -5.999   3.564   4.653  1.00  0.00     0.039 C
BRANCH   2   4
HETATM    4  C3  UNL     1      -4.699   3.616   2.513  1.00  0.00     0.034 C
BRANCH   4   5
HETATM    5  C4  UNL     1      -6.068   3.358   1.982  1.00  0.00     0.034 C
BRANCH   5   6
HETATM    6  C5  UNL     1      -6.056   2.081   1.184  1.00  0.00     0.120 C
HETATM    7  C6  UNL     1      -6.604   2.272  -0.208  1.00  0.00     0.039 C
BRANCH   6   8
HETATM    8  O1  UNL     1      -6.615   1.005   1.829  1.00  0.00    -0.354 OA
BRANCH   8   9
HETATM    9  C7  UNL     1      -7.963   0.827   1.535  1.00  0.00     0.292 C
HETATM   10  O2  UNL     1      -8.672   1.063   2.713  1.00  0.00    -0.351 OA
HETATM   11  C8  UNL     1      -7.992   0.436   3.742  1.00  0.00     0.152 C
HETATM   12  C9  UNL     1      -8.674   0.800   5.044  1.00  0.00     0.042 C
HETATM   13  C10 UNL     1      -7.989  -1.070   3.598  1.00  0.00     0.191 C
HETATM   14  C11 UNL     1      -7.623  -1.497   2.194  1.00  0.00     0.182 C
HETATM   15  F1  UNL     1      -6.252  -1.443   2.016  1.00  0.00    -0.235 F
HETATM   16  C13 UNL     1      -8.269  -0.617   1.151  1.00  0.00     0.217 C
BRANCH  13  17
HETATM   17  O3  UNL     1      -9.215  -1.550   4.009  1.00  0.00    -0.389 OA
ATOM     18  H3  UNL     1      -9.079  -2.378   4.455  1.00  0.00     0.210 HD
ENDBRANCH  13  17
BRANCH  14  19
HETATM   19  C12 UNL     1      -8.130  -2.911   2.003  1.00  0.00     0.213 C
BRANCH  19  20
HETATM   20  O4  UNL     1      -7.584  -3.757   2.966  1.00  0.00    -0.397 OA
ATOM     21  H4  UNL     1      -7.978  -4.619   2.910  1.00  0.00     0.209 HD
ENDBRANCH  19  20
ENDBRANCH  14  19
BRANCH  16  22
HETATM   22  O5  UNL     1      -7.787  -0.943  -0.093  1.00  0.00    -0.387 OA
ATOM     23  H5  UNL     1      -8.044  -0.316  -0.758  1.00  0.00     0.210 HD
ENDBRANCH  16  22
ENDBRANCH   8   9
ENDBRANCH   6   8
ENDBRANCH   5   6
ENDBRANCH   4   5
ENDBRANCH   2   4
ENDBRANCH   1   2
BRANCH   1  24
HETATM   24  C14 UNL     1      -3.758   2.891   5.904  1.00  0.00     0.202 C
BRANCH  24  25
HETATM   25  C15 UNL     1      -3.125   1.600   6.217  1.00  0.00    -0.053 C
HETATM   26  C16 UNL     1      -2.078   1.577   7.075  1.00  0.00    -0.021 C
HETATM   27  C17 UNL     1      -1.514   0.203   7.317  1.00  0.00     0.035 C
HETATM   28  C18 UNL     1      -2.668  -0.651   7.782  1.00  0.00     0.024 C
HETATM   29  C19 UNL     1      -2.280  -2.058   8.088  1.00  0.00     0.176 C
HETATM   30  C27 UNL     1      -3.823  -0.631   6.857  1.00  0.00    -0.002 C
HETATM   31  O7  UNL     1      -3.368  -2.724   8.582  1.00  0.00    -0.358 OA
HETATM   32  C20 UNL     1      -4.061  -3.523   7.716  1.00  0.00     0.290 C
HETATM   33  O10 UNL     1      -4.728  -2.878   6.709  1.00  0.00    -0.352 OA
HETATM   34  C23 UNL     1      -4.044  -1.896   6.060  1.00  0.00     0.136 C
HETATM   35  C24 UNL     1      -4.960  -1.361   4.948  1.00  0.00     0.065 C
HETATM   36  C25 UNL     1      -4.649   0.139   4.837  1.00  0.00     0.129 C
HETATM   37  C26 UNL     1      -3.491   0.298   5.703  1.00  0.00     0.056 C
HETATM   38  C28 UNL     1      -5.102  -0.298   7.552  1.00  0.00     0.019 C
BRANCH  32  39
HETATM   39  C21 UNL     1      -3.236  -4.714   7.217  1.00  0.00     0.196 C
BRANCH  39  40
HETATM   40  O8  UNL     1      -2.602  -4.360   6.034  1.00  0.00    -0.389 OA
ATOM     41  H8  UNL     1      -1.756  -3.979   6.240  1.00  0.00     0.210 HD
ENDBRANCH  39  40
BRANCH  39  42
HETATM   42  C22 UNL     1      -4.257  -5.788   6.851  1.00  0.00     0.200 C
BRANCH  42  43
HETATM   43  O9  UNL     1      -4.942  -5.492   5.691  1.00  0.00    -0.398 OA
ATOM     44  H9  UNL     1      -5.880  -5.438   5.826  1.00  0.00     0.209 HD
ENDBRANCH  42  43
ENDBRANCH  39  42
ENDBRANCH  32  39
BRANCH  36  45
HETATM   45  O11 UNL     1      -4.276   0.410   3.500  1.00  0.00    -0.395 OA
ATOM     46  H11 UNL     1      -3.910   1.286   3.469  1.00  0.00     0.210 HD
ENDBRANCH  36  45
ENDBRANCH  24  25
ENDBRANCH   1  24
TORSDOF 17
ENDMDL