MODEL 3
REMARK VINA RESULT: -8.125335724      2.311      4.473
REMARK  14 active torsions:
REMARK  status: ('A' for Active; 'I' for Inactive)
REMARK    1  A    between atoms: C2_2  and  O1_3
REMARK    2  A    between atoms: O1_3  and  C3_4
REMARK    3  A    between atoms: C3_4  and  C15_29
REMARK    4  A    between atoms: N1_5  and  N2_7
REMARK       I    between atoms: N2_7  and  C4_9
REMARK    5  A    between atoms: C4_9  and  C5_11
REMARK    6  A    between atoms: C8_17  and  N4_18
REMARK    7  A    between atoms: N4_18  and  C9_20
REMARK    8  A    between atoms: C15_29  and  C16_30
REMARK    9  A    between atoms: C15_29  and  C18_41
REMARK       I    between atoms: C16_30  and  N6_32
REMARK   10  A    between atoms: N6_32  and  N7_34
REMARK       I    between atoms: N7_34  and  C17_36
REMARK   11  A    between atoms: C18_41  and  O5_42
REMARK   12  A    between atoms: C18_41  and  C21_46
REMARK   13  A    between atoms: O5_42  and  C19_43
REMARK   14  A    between atoms: C21_46  and  O8_48
ROOT
HETATM    1  C3  UNL     1      -8.583   0.094   3.633  1.00  0.00     0.149 C
HETATM    2  N1  UNL     1      -7.549   0.185   4.257  1.00  0.00    -0.280 N
ATOM      3  H1  UNL     1      -6.943   0.771   3.682  1.00  0.00     0.189 HD
ENDROOT
BRANCH   1   4
HETATM    4  O1  UNL     1      -9.629  -0.659   4.154  1.00  0.00    -0.338 OA
BRANCH   4   5
HETATM    5  C2  UNL     1     -10.108  -0.647   5.450  1.00  0.00     0.172 C
HETATM    6  C1  UNL     1     -11.543  -0.248   5.606  1.00  0.00     0.034 C
ENDBRANCH   4   5
ENDBRANCH   1   4
BRANCH   1   7
HETATM    7  C15 UNL     1      -8.714   0.788   2.319  1.00  0.00     0.195 C
BRANCH   7   8
HETATM    8  C16 UNL     1      -9.892   1.679   2.242  1.00  0.00     0.251 C
HETATM    9  O4  UNL     1     -10.541   1.852   1.172  1.00  0.00    -0.271 OA
HETATM   10  N6  UNL     1     -10.325   2.370   3.390  1.00  0.00    -0.267 N
ATOM     11  H6  UNL     1      -9.822   2.246   4.269  1.00  0.00     0.190 HD
BRANCH  10  12
HETATM   12  N7  UNL     1     -11.425   3.217   3.346  1.00  0.00    -0.271 N
HETATM   13  C17 UNL     1     -12.712   2.817   3.814  1.00  0.00     0.200 C
HETATM   14  N8  UNL     1     -13.286   3.496   4.744  1.00  0.00    -0.372 N
HETATM   15  N9  UNL     1     -13.375   1.684   3.276  1.00  0.00    -0.062 NA
ATOM     16  H82 UNL     1     -12.809   4.311   5.131  1.00  0.00     0.158 HD
ATOM     17  H81 UNL     1     -14.206   3.210   5.078  1.00  0.00     0.158 HD
ATOM     18  H7  UNL     1     -11.308   4.156   2.968  1.00  0.00     0.189 HD
ENDBRANCH  10  12
ENDBRANCH   7   8
BRANCH   7  19
HETATM   19  C18 UNL     1      -7.482   1.613   1.996  1.00  0.00     0.252 C
BRANCH  19  20
HETATM   20  O5  UNL     1      -7.629   2.947   2.454  1.00  0.00    -0.305 OA
BRANCH  20  21
HETATM   21  C19 UNL     1      -6.769   3.549   3.364  1.00  0.00     0.255 C
HETATM   22  C20 UNL     1      -5.999   4.781   3.058  1.00  0.00     0.126 C
HETATM   23  O6  UNL     1      -6.693   2.972   4.464  1.00  0.00    -0.266 OA
ENDBRANCH  20  21
ENDBRANCH  19  20
BRANCH  19  24
HETATM   24  C21 UNL     1      -7.062   1.503   0.607  1.00  0.00     0.289 C
HETATM   25  O7  UNL     1      -6.830   0.391   0.106  1.00  0.00    -0.262 OA
BRANCH  24  26
HETATM   26  O8  UNL     1      -6.905   2.599  -0.204  1.00  0.00    -0.324 OA
HETATM   27  C22 UNL     1      -5.615   3.107  -0.484  1.00  0.00     0.213 C
ENDBRANCH  24  26
ENDBRANCH  19  24
ENDBRANCH   7  19
ENDBRANCH   1   7
BRANCH   2  28
HETATM   28  N2  UNL     1      -6.827  -0.111   5.326  1.00  0.00    -0.263 N
HETATM   29  C4  UNL     1      -5.614  -0.873   5.333  1.00  0.00     0.287 C
HETATM   30  O2  UNL     1      -5.215  -1.285   4.220  1.00  0.00    -0.264 OA
ATOM     31  H2  UNL     1      -7.165   0.234   6.225  1.00  0.00     0.190 HD
BRANCH  29  32
HETATM   32  C5  UNL     1      -4.850  -1.181   6.520  1.00  0.00     0.123 A
HETATM   33  C6  UNL     1      -3.942  -2.224   6.479  1.00  0.00     0.110 A
HETATM   34  C7  UNL     1      -3.211  -2.537   7.589  1.00  0.00     0.261 A
HETATM   35  O3  UNL     1      -2.383  -3.499   7.530  1.00  0.00    -0.268 OA
HETATM   36  N3  UNL     1      -3.390  -1.817   8.716  1.00  0.00    -0.156 N
HETATM   37  C8  UNL     1      -4.260  -0.802   8.789  1.00  0.00     0.686 A
ATOM     38  H3  UNL     1      -2.842  -2.055   9.544  1.00  0.00     0.187 HD
HETATM   39  N5  UNL     1      -4.976  -0.504   7.680  1.00  0.00    -0.186 N
ATOM     40  H5  UNL     1      -5.642   0.267   7.722  1.00  0.00     0.184 HD
BRANCH  37  41
HETATM   41  N4  UNL     1      -4.390  -0.151   9.901  1.00  0.00    -0.190 N
ATOM     42  H4  UNL     1      -3.629   0.453  10.212  1.00  0.00     0.184 HD
BRANCH  41  43
HETATM   43  C9  UNL     1      -5.563  -0.254  10.700  1.00  0.00     0.070 A
HETATM   44  C10 UNL     1      -6.790  -0.475  10.115  1.00  0.00     0.032 A
HETATM   45  C11 UNL     1      -7.930  -0.578  10.899  1.00  0.00     0.002 A
HETATM   46  C12 UNL     1      -7.788  -0.452  12.263  1.00  0.00     0.002 A
HETATM   47  C13 UNL     1      -6.549  -0.229  12.862  1.00  0.00     0.026 A
HETATM   48  C14 UNL     1      -5.425  -0.129  12.071  1.00  0.00     0.061 A
HETATM   49 CL1  UNL     1      -3.862   0.154  12.815  1.00  0.00    -0.082 Cl
ENDBRANCH  41  43
ENDBRANCH  37  41
ENDBRANCH  29  32
ENDBRANCH   2  28
TORSDOF 14
ENDMDL