MODEL 4
REMARK VINA RESULT: -8.043972883      1.007      1.518
REMARK  14 active torsions:
REMARK  status: ('A' for Active; 'I' for Inactive)
REMARK    1  A    between atoms: C2_2  and  C4_4
REMARK    2  A    between atoms: C4_4  and  N1_6
REMARK       I    between atoms: N1_6  and  C6_8
REMARK    3  A    between atoms: C6_8  and  C7_10
REMARK    4  A    between atoms: C7_10  and  C8_11
REMARK    5  A    between atoms: C7_10  and  N2_15
REMARK    6  A    between atoms: C8_11  and  C9_12
REMARK    7  A    between atoms: C11_17  and  C12_18
REMARK    8  A    between atoms: C12_18  and  N3_19
REMARK    9  A    between atoms: N3_19  and  O4_20
REMARK   10  A    between atoms: O4_20  and  C13_21
REMARK   11  A    between atoms: C13_21  and  C14_23
REMARK   12  A    between atoms: C14_23  and  O6_24
REMARK   13  A    between atoms: C14_23  and  N4_26
REMARK   14  A    between atoms: C14_23  and  C17_34
REMARK       I    between atoms: N4_26  and  C15_28
REMARK       I    between atoms: C15_28  and  N5_30
ROOT
HETATM    1  N4  UNL     1      -3.786  -1.069   7.246  1.00  0.00    -0.298 N
ATOM      2  H4  UNL     1      -4.043  -0.612   6.371  1.00  0.00     0.168 HD
HETATM    3  C15 UNL     1      -3.760  -2.479   7.290  1.00  0.00     0.332 C
HETATM    4  O7  UNL     1      -3.445  -3.042   8.368  1.00  0.00    -0.246 OA
HETATM    5  N5  UNL     1      -4.080  -3.265   6.153  1.00  0.00    -0.245 N
ATOM      6  H5  UNL     1      -4.333  -2.781   5.291  1.00  0.00     0.183 HD
HETATM    7  C16 UNL     1      -4.069  -4.653   6.145  1.00  0.00     0.185 C
HETATM    8  N6  UNL     1      -4.067  -5.826   6.159  1.00  0.00    -0.172 NA
ENDROOT
BRANCH   1   9
HETATM    9  C14 UNL     1      -3.459  -0.238   8.401  1.00  0.00     0.258 C
BRANCH   9  10
HETATM   10  C13 UNL     1      -3.039   1.119   8.002  1.00  0.00     0.355 C
HETATM   11  O5  UNL     1      -2.173   1.716   8.692  1.00  0.00    -0.256 OA
BRANCH  10  12
HETATM   12  O4  UNL     1      -3.530   1.786   6.916  1.00  0.00    -0.121 OA
BRANCH  12  13
HETATM   13  N3  UNL     1      -3.237   1.816   5.696  1.00  0.00    -0.284 NA
BRANCH  13  14
HETATM   14  C12 UNL     1      -2.941   1.839   4.538  1.00  0.00     0.237 C
BRANCH  14  15
HETATM   15  C11 UNL     1      -3.707   1.377   3.372  1.00  0.00     0.080 A
HETATM   16  C10 UNL     1      -4.697   0.409   3.476  1.00  0.00     0.121 A
HETATM   17  N2  UNL     1      -5.411  -0.025   2.456  1.00  0.00    -0.272 N
HETATM   18  C24 UNL     1      -5.142   0.524   1.229  1.00  0.00     0.333 A
HETATM   19  N7  UNL     1      -4.194   1.451   1.122  1.00  0.00    -0.274 N
HETATM   20  O9  UNL     1      -5.806   0.137   0.208  1.00  0.00    -0.246 OA
HETATM   21  C23 UNL     1      -3.452   1.914   2.139  1.00  0.00     0.263 A
ATOM     22  H7  UNL     1      -4.017   1.840   0.195  1.00  0.00     0.173 HD
HETATM   23  O8  UNL     1      -2.585   2.786   1.938  1.00  0.00    -0.267 OA
BRANCH  17  24
HETATM   24  C7  UNL     1      -6.445  -1.033   2.501  1.00  0.00     0.098 C
BRANCH  24  25
HETATM   25  C6  UNL     1      -7.805  -0.514   2.692  1.00  0.00     0.265 C
HETATM   26  N1  UNL     1      -8.233   0.156   3.863  1.00  0.00    -0.351 N
ATOM     27  H1  UNL     1      -7.559   0.288   4.617  1.00  0.00     0.163 HD
HETATM   28  O1  UNL     1      -8.659  -0.660   1.791  1.00  0.00    -0.266 OA
BRANCH  26  29
HETATM   29  C4  UNL     1      -9.568   0.663   4.050  1.00  0.00     0.084 C
HETATM   30  C5  UNL     1      -9.538   2.116   3.593  1.00  0.00     0.032 C
BRANCH  29  31
HETATM   31  C2  UNL     1     -10.052   0.549   5.477  1.00  0.00    -0.000 C
HETATM   32  C1  UNL     1     -10.917  -0.717   5.560  1.00  0.00     0.011 C
HETATM   33  C3  UNL     1      -8.894   0.326   6.423  1.00  0.00     0.011 C
ENDBRANCH  29  31
ENDBRANCH  26  29
ENDBRANCH  24  25
BRANCH  24  34
HETATM   34  C8  UNL     1      -6.105  -2.245   3.292  1.00  0.00     0.176 C
BRANCH  34  35
HETATM   35  C9  UNL     1      -6.881  -3.446   3.098  1.00  0.00     0.178 C
HETATM   36  O2  UNL     1      -7.480  -3.860   2.087  1.00  0.00    -0.648 OA
HETATM   37  O3  UNL     1      -6.991  -4.297   4.219  1.00  0.00    -0.648 OA
ENDBRANCH  34  35
ENDBRANCH  24  34
ENDBRANCH  17  24
ENDBRANCH  14  15
ENDBRANCH  13  14
ENDBRANCH  12  13
ENDBRANCH  10  12
ENDBRANCH   9  10
BRANCH   9  38
HETATM   38  O6  UNL     1      -2.387  -0.905   9.053  1.00  0.00    -0.359 OA
ATOM     39  H6  UNL     1      -2.701  -1.326   9.845  1.00  0.00     0.213 HD
ENDBRANCH   9  38
BRANCH   9  40
HETATM   40  C17 UNL     1      -4.583  -0.229   9.376  1.00  0.00     0.007 A
HETATM   41  C18 UNL     1      -4.359  -0.232  10.716  1.00  0.00     0.015 A
HETATM   42  C19 UNL     1      -5.468  -0.224  11.568  1.00  0.00     0.043 A
HETATM   43  C20 UNL     1      -6.758  -0.210  11.081  1.00  0.00     0.116 A
HETATM   44  F1  UNL     1      -7.828  -0.203  11.905  1.00  0.00    -0.206 F
HETATM   45  C21 UNL     1      -6.980  -0.207   9.726  1.00  0.00     0.043 A
HETATM   46  C22 UNL     1      -5.876  -0.216   8.905  1.00  0.00     0.015 A
ENDBRANCH   9  40
ENDBRANCH   1   9
TORSDOF 14
ENDMDL