MODEL 3
REMARK VINA RESULT: -8.492753508      1.374      2.018
REMARK  16 active torsions:
REMARK  status: ('A' for Active; 'I' for Inactive)
REMARK    1  A    between atoms: O1_2  and  C2_3
REMARK    2  A    between atoms: C6_7  and  O2_8
REMARK    3  A    between atoms: O2_8  and  C7_9
REMARK    4  A    between atoms: C7_9  and  C8_10
REMARK    5  A    between atoms: C8_10  and  O4_12
REMARK    6  A    between atoms: O4_12  and  C9_13
REMARK    7  A    between atoms: C9_13  and  C10_14
REMARK    8  A    between atoms: C11_15  and  O5_16
REMARK    9  A    between atoms: C15_21  and  O6_22
REMARK   10  A    between atoms: C18_27  and  C19_28
REMARK   11  A    between atoms: C21_32  and  C22_33
REMARK   12  A    between atoms: C22_33  and  O9_34
REMARK   13  A    between atoms: C22_33  and  C23_36
REMARK   14  A    between atoms: C23_36  and  O10_37
REMARK   15  A    between atoms: C24_39  and  O11_40
REMARK   16  A    between atoms: C25_42  and  O12_43
ROOT
HETATM    1  C10 UNL     1      -3.007  -0.486   6.793  1.00  0.00     0.033 A
HETATM    2  C11 UNL     1      -3.220  -1.841   6.954  1.00  0.00     0.077 A
HETATM    3  C12 UNL     1      -4.342  -2.422   6.417  1.00  0.00     0.049 A
HETATM    4  C13 UNL     1      -5.290  -1.669   5.700  1.00  0.00    -0.020 A
HETATM    5  C14 UNL     1      -5.083  -0.332   5.534  1.00  0.00     0.027 A
HETATM    6  C15 UNL     1      -3.931   0.265   6.091  1.00  0.00     0.089 A
HETATM    7  C16 UNL     1      -5.920   0.371   4.794  1.00  0.00     0.044 C
HETATM    8 CL1  UNL     1      -5.600   2.090   4.621  1.00  0.00    -0.087 Cl
HETATM    9  C17 UNL     1      -7.063  -0.251   4.104  1.00  0.00     0.106 A
HETATM   10  C18 UNL     1      -7.721   0.356   2.924  1.00  0.00     0.211 C
HETATM   11  O8  UNL     1      -9.068  -0.008   3.042  1.00  0.00    -0.366 OA
HETATM   12  C21 UNL     1      -9.304   0.238   4.363  1.00  0.00     0.192 C
HETATM   13  C24 UNL     1      -8.237  -0.547   5.090  1.00  0.00     0.141 A
HETATM   14  C25 UNL     1      -7.422  -1.599   4.475  1.00  0.00     0.130 A
HETATM   15  C26 UNL     1      -6.361  -2.248   5.231  1.00  0.00     0.027 C
ENDROOT
BRANCH   1  16
HETATM   16  C9  UNL     1      -1.764   0.120   7.315  1.00  0.00     0.223 C
BRANCH  16  17
HETATM   17  O4  UNL     1      -2.190   1.075   8.284  1.00  0.00    -0.315 OA
BRANCH  17  18
HETATM   18  C8  UNL     1      -1.627   1.118   9.563  1.00  0.00     0.283 C
HETATM   19  O3  UNL     1      -0.491   1.630   9.646  1.00  0.00    -0.263 OA
BRANCH  18  20
HETATM   20  C7  UNL     1      -2.397   0.557  10.709  1.00  0.00     0.286 C
BRANCH  20  21
HETATM   21  O2  UNL     1      -3.409  -0.282  10.406  1.00  0.00    -0.341 OA
BRANCH  21  22
HETATM   22  C6  UNL     1      -4.758  -0.259  10.509  1.00  0.00     0.072 A
HETATM   23  C5  UNL     1      -5.601  -0.247   9.428  1.00  0.00     0.037 A
HETATM   24  C4  UNL     1      -6.981  -0.224   9.636  1.00  0.00     0.005 A
HETATM   25  C3  UNL     1      -7.480  -0.215  10.910  1.00  0.00     0.037 A
HETATM   26  C2  UNL     1      -6.653  -0.223  12.025  1.00  0.00     0.070 A
HETATM   27  C27 UNL     1      -5.311  -0.247  11.800  1.00  0.00     0.073 A
BRANCH  26  28
HETATM   28  O1  UNL     1      -7.176  -0.209  13.310  1.00  0.00    -0.356 OA
HETATM   29  C1  UNL     1      -6.419  -0.864  14.345  1.00  0.00     0.210 C
ENDBRANCH  26  28
ENDBRANCH  21  22
ENDBRANCH  20  21
ENDBRANCH  18  20
ENDBRANCH  17  18
ENDBRANCH  16  17
ENDBRANCH   1  16
BRANCH   2  30
HETATM   30  O5  UNL     1      -2.297  -2.633   7.661  1.00  0.00    -0.360 OA
ATOM     31  H5  UNL     1      -1.638  -2.230   8.215  1.00  0.00     0.217 HD
ENDBRANCH   2  30
BRANCH   6  32
HETATM   32  O6  UNL     1      -3.805   1.623   5.879  1.00  0.00    -0.359 OA
ATOM     33  H6  UNL     1      -4.080   2.280   6.509  1.00  0.00     0.217 HD
ENDBRANCH   6  32
BRANCH  14  34
HETATM   34  O12 UNL     1      -7.956  -2.424   3.466  1.00  0.00    -0.381 OA
ATOM     35  H12 UNL     1      -8.674  -2.997   3.708  1.00  0.00     0.211 HD
ENDBRANCH  14  34
BRANCH  10  36
HETATM   36  C19 UNL     1      -7.160  -0.256   1.676  1.00  0.00     0.153 C
HETATM   37  C20 UNL     1      -5.722  -0.023   1.317  1.00  0.00     0.093 C
HETATM   38  O7  UNL     1      -7.843  -0.945   0.941  1.00  0.00    -0.296 OA
ENDBRANCH  10  36
BRANCH  13  39
HETATM   39  O11 UNL     1      -8.022  -0.252   6.414  1.00  0.00    -0.382 OA
ATOM     40  H11 UNL     1      -7.700   0.620   6.612  1.00  0.00     0.210 HD
ENDBRANCH  13  39
BRANCH  12  41
HETATM   41  C22 UNL     1     -10.670   0.008   4.845  1.00  0.00     0.173 C
BRANCH  41  42
HETATM   42  O9  UNL     1     -10.761  -1.303   5.374  1.00  0.00    -0.391 OA
ATOM     43  H9  UNL     1     -10.015  -1.812   5.079  1.00  0.00     0.210 HD
ENDBRANCH  41  42
BRANCH  41  44
HETATM   44  C23 UNL     1     -11.206   0.970   5.844  1.00  0.00     0.198 C
BRANCH  44  45
HETATM   45  O10 UNL     1     -12.389   0.526   6.426  1.00  0.00    -0.398 OA
ATOM     46  H10 UNL     1     -12.356   0.545   7.375  1.00  0.00     0.209 HD
ENDBRANCH  44  45
ENDBRANCH  41  44
ENDBRANCH  12  41
TORSDOF 16
ENDMDL