MODEL 1
REMARK VINA RESULT: -8.707107696      0.000      0.000
REMARK  18 active torsions:
REMARK  status: ('A' for Active; 'I' for Inactive)
REMARK    1  A    between atoms: O1_2  and  C2_3
REMARK    2  A    between atoms: C2_3  and  O2_4
REMARK    3  A    between atoms: C2_3  and  C3_6
REMARK    4  A    between atoms: C4_11  and  N3_12
REMARK       I    between atoms: N3_12  and  C5_14
REMARK    5  A    between atoms: C6_17  and  N5_18
REMARK    6  A    between atoms: N5_18  and  C7_20
REMARK    7  A    between atoms: C7_20  and  C16_39
REMARK    8  A    between atoms: N6_21  and  O4_23
REMARK    9  A    between atoms: O4_23  and  C8_24
REMARK   10  A    between atoms: C8_24  and  C10_26
REMARK   11  A    between atoms: C10_26  and  O6_28
REMARK   12  A    between atoms: O6_28  and  C11_29
REMARK   13  A    between atoms: C11_29  and  C13_31
REMARK   14  A    between atoms: C13_31  and  C14_33
REMARK   15  A    between atoms: C14_33  and  O7_34
REMARK   16  A    between atoms: C14_33  and  C15_36
REMARK   17  A    between atoms: C15_36  and  O8_37
REMARK   18  A    between atoms: C19_42  and  C20_43
ROOT
HETATM    1  C7  UNL     1      -6.801   0.060   7.944  1.00  0.00     0.136 C
HETATM    2  N6  UNL     1      -6.298  -0.764   7.115  1.00  0.00    -0.249 N
ATOM      3  H6  UNL     1      -6.477  -0.605   6.123  1.00  0.00     0.196 HD
ENDROOT
BRANCH   1   4
HETATM    4  N5  UNL     1      -7.580   1.157   7.500  1.00  0.00    -0.332 N
ATOM      5  H5  UNL     1      -8.010   1.765   8.197  1.00  0.00     0.168 HD
BRANCH   4   6
HETATM    6  C6  UNL     1      -7.768   1.420   6.253  1.00  0.00     0.123 A
HETATM    7  C4  UNL     1      -8.937   0.978   5.627  1.00  0.00     0.158 A
HETATM    8  N2  UNL     1      -9.205   1.205   4.355  1.00  0.00    -0.282 N
HETATM    9  N1  UNL     1      -8.493   1.843   3.464  1.00  0.00    -0.292 N
ATOM     10  H2  UNL     1     -10.092   0.830   4.020  1.00  0.00     0.188 HD
HETATM   11  C3  UNL     1      -7.308   2.424   3.638  1.00  0.00     0.123 A
ATOM     12  H1  UNL     1      -8.891   1.901   2.526  1.00  0.00     0.187 HD
HETATM   13  S1  UNL     1      -6.722   2.273   5.232  1.00  0.00    -0.049 SA
BRANCH   7  14
HETATM   14  N3  UNL     1      -9.813   0.307   6.343  1.00  0.00    -0.294 N
HETATM   15  C5  UNL     1     -11.031  -0.083   5.749  1.00  0.00     0.334 C
HETATM   16  N4  UNL     1     -12.215   0.696   5.806  1.00  0.00    -0.040 NA
HETATM   17  O3  UNL     1     -11.064  -1.186   5.134  1.00  0.00    -0.251 OA
ATOM     18  H3  UNL     1      -9.613   0.072   7.315  1.00  0.00     0.172 HD
ENDBRANCH   7  14
BRANCH  11  19
HETATM   19  C2  UNL     1      -6.587   3.126   2.533  1.00  0.00     0.316 C
BRANCH  19  20
HETATM   20  O1  UNL     1      -7.120   2.728   1.331  1.00  0.00    -0.360 OA
HETATM   21  C1  UNL     1      -6.215   2.570   0.313  1.00  0.00     0.205 C
ENDBRANCH  19  20
BRANCH  19  22
HETATM   22  O2  UNL     1      -6.676   4.515   2.716  1.00  0.00    -0.365 OA
ATOM     23  H2  UNL     1      -6.726   4.983   1.891  1.00  0.00     0.213 HD
ENDBRANCH  19  22
ENDBRANCH  11  19
ENDBRANCH   4   6
ENDBRANCH   1   4
BRANCH   1  24
HETATM   24  C16 UNL     1      -6.623  -0.083   9.377  1.00  0.00     0.010 A
HETATM   25  C17 UNL     1      -7.640  -0.251  10.278  1.00  0.00     0.016 A
HETATM   26  C18 UNL     1      -7.400  -0.398  11.643  1.00  0.00     0.019 A
HETATM   27  C19 UNL     1      -6.107  -0.375  12.105  1.00  0.00     0.040 A
HETATM   28  C21 UNL     1      -5.068  -0.206  11.203  1.00  0.00     0.019 A
HETATM   29  C22 UNL     1      -5.330  -0.063   9.865  1.00  0.00     0.016 A
BRANCH  27  30
HETATM   30  C20 UNL     1      -5.826  -0.526  13.538  1.00  0.00     0.209 C
HETATM   31  O9  UNL     1      -4.653  -0.499  13.930  1.00  0.00    -0.644 OA
HETATM   32  O10 UNL     1      -6.888  -0.693  14.424  1.00  0.00    -0.644 OA
ENDBRANCH  27  30
ENDBRANCH   1  24
BRANCH   2  33
HETATM   33  O4  UNL     1      -5.540  -1.841   7.452  1.00  0.00    -0.264 OA
BRANCH  33  34
HETATM   34  C8  UNL     1      -4.420  -2.286   6.712  1.00  0.00     0.247 C
HETATM   35  C9  UNL     1      -3.168  -1.955   7.483  1.00  0.00     0.053 C
BRANCH  34  36
HETATM   36  C10 UNL     1      -4.361  -1.556   5.410  1.00  0.00     0.290 C
HETATM   37  O5  UNL     1      -3.669  -0.494   5.321  1.00  0.00    -0.262 OA
BRANCH  36  38
HETATM   38  O6  UNL     1      -5.014  -1.954   4.269  1.00  0.00    -0.311 OA
BRANCH  38  39
HETATM   39  C11 UNL     1      -6.003  -1.155   3.663  1.00  0.00     0.164 C
HETATM   40  C12 UNL     1      -5.586  -0.640   2.308  1.00  0.00     0.043 C
BRANCH  39  41
HETATM   41  C13 UNL     1      -7.309  -1.867   3.500  1.00  0.00     0.229 C
HETATM   42  F1  UNL     1      -8.053  -1.883   4.656  1.00  0.00    -0.244 F
BRANCH  41  43
HETATM   43  C14 UNL     1      -7.093  -3.289   3.032  1.00  0.00     0.178 C
BRANCH  43  44
HETATM   44  O7  UNL     1      -7.111  -4.145   4.158  1.00  0.00    -0.390 OA
ATOM     45  H7  UNL     1      -7.446  -4.993   3.891  1.00  0.00     0.210 HD
ENDBRANCH  43  44
BRANCH  43  46
HETATM   46  C15 UNL     1      -8.226  -3.744   2.114  1.00  0.00     0.198 C
BRANCH  46  47
HETATM   47  O8  UNL     1      -8.515  -2.676   1.237  1.00  0.00    -0.398 OA
ATOM     48  H8  UNL     1      -7.824  -2.647   0.587  1.00  0.00     0.209 HD
ENDBRANCH  46  47
ENDBRANCH  43  46
ENDBRANCH  41  43
ENDBRANCH  39  41
ENDBRANCH  38  39
ENDBRANCH  36  38
ENDBRANCH  34  36
ENDBRANCH  33  34
ENDBRANCH   2  33
TORSDOF 18
ENDMDL