MODEL 3
REMARK VINA RESULT: -6.728282738      2.987      6.863
REMARK  18 active torsions:
REMARK  status: ('A' for Active; 'I' for Inactive)
REMARK    1  A    between atoms: C2_2  and  O2_4
REMARK    2  A    between atoms: O2_4  and  C3_5
REMARK    3  A    between atoms: C4_6  and  C5_7
REMARK    4  A    between atoms: C5_7  and  O3_8
REMARK    5  A    between atoms: C6_11  and  O5_12
REMARK    6  A    between atoms: O5_12  and  C7_13
REMARK    7  A    between atoms: C8_14  and  O6_15
REMARK    8  A    between atoms: C9_17  and  O7_18
REMARK    9  A    between atoms: C10_20  and  C11_21
REMARK   10  A    between atoms: C11_21  and  N1_22
REMARK   11  A    between atoms: C15_27  and  C16_28
REMARK   12  A    between atoms: C17_29  and  C18_30
REMARK   13  A    between atoms: C19_31  and  O8_32
REMARK   14  A    between atoms: C20_34  and  O9_35
REMARK   15  A    between atoms: C23_39  and  N2_40
REMARK   16  A    between atoms: N2_40  and  N3_42
REMARK   17  A    between atoms: N3_42  and  N4_43
REMARK   18  A    between atoms: C24_46  and  O10_47
ROOT
HETATM    1  C7  UNL     1      -4.628  -1.102   6.222  1.00  0.00     0.165 C
HETATM    2  C8  UNL     1      -5.594  -1.262   7.376  1.00  0.00     0.177 C
HETATM    3  C9  UNL     1      -5.425  -0.155   8.416  1.00  0.00     0.156 C
HETATM    4  C10 UNL     1      -3.942  -0.062   8.686  1.00  0.00     0.064 C
HETATM    5  C14 UNL     1      -3.313   0.598   7.464  1.00  0.00     0.101 C
HETATM    6 CL1  UNL     1      -1.683   0.007   7.165  1.00  0.00    -0.124 Cl
HETATM    7  C15 UNL     1      -4.150   0.339   6.205  1.00  0.00     0.058 C
ENDROOT
BRANCH   7   8
HETATM    8  C16 UNL     1      -3.228   0.593   5.067  1.00  0.00    -0.021 C
HETATM    9  C17 UNL     1      -3.392   1.465   4.113  1.00  0.00    -0.021 C
BRANCH   9  10
HETATM   10  C18 UNL     1      -4.521   2.400   3.936  1.00  0.00     0.065 C
HETATM   11  C19 UNL     1      -4.048   3.817   3.657  1.00  0.00     0.157 C
HETATM   12  C20 UNL     1      -5.205   4.467   2.946  1.00  0.00     0.153 C
HETATM   13  C21 UNL     1      -6.183   3.380   2.609  1.00  0.00     0.039 C
HETATM   14  C22 UNL     1      -6.723   3.595   1.218  1.00  0.00     0.015 C
HETATM   15  C23 UNL     1      -5.332   2.118   2.686  1.00  0.00     0.131 C
BRANCH  11  16
HETATM   16  O8  UNL     1      -2.919   3.844   2.864  1.00  0.00    -0.392 OA
ATOM     17  H8  UNL     1      -2.363   3.086   3.005  1.00  0.00     0.210 HD
ENDBRANCH  11  16
BRANCH  12  18
HETATM   18  O9  UNL     1      -5.869   5.393   3.773  1.00  0.00    -0.393 OA
ATOM     19  H9  UNL     1      -5.671   6.289   3.526  1.00  0.00     0.210 HD
ENDBRANCH  12  18
BRANCH  15  20
HETATM   20  N2  UNL     1      -4.433   2.140   1.565  1.00  0.00    -0.247 N
ATOM     21  H2  UNL     1      -3.921   3.002   1.381  1.00  0.00     0.197 HD
BRANCH  20  22
HETATM   22  N3  UNL     1      -4.243   1.190   0.817  1.00  0.00    -0.248 NA
BRANCH  22  23
HETATM   23  N4  UNL     1      -4.326   0.095   0.267  1.00  0.00    -0.261 N
ATOM     24  H42 UNL     1      -3.319  -0.058   0.227  1.00  0.00     0.193 HD
ATOM     25  H41 UNL     1      -4.694  -0.751  -0.168  1.00  0.00     0.193 HD
ENDBRANCH  22  23
ENDBRANCH  20  22
ENDBRANCH  15  20
ENDBRANCH   9  10
ENDBRANCH   7   8
BRANCH   1  26
HETATM   26  O5  UNL     1      -5.273  -1.441   5.067  1.00  0.00    -0.350 OA
BRANCH  26  27
HETATM   27  C6  UNL     1      -6.560  -1.914   5.255  1.00  0.00     0.292 C
HETATM   28  O4  UNL     1      -6.675  -3.127   4.584  1.00  0.00    -0.348 OA
HETATM   29  C4  UNL     1      -6.810  -2.873   3.238  1.00  0.00     0.180 C
HETATM   30  C3  UNL     1      -7.208  -1.433   3.083  1.00  0.00     0.196 C
HETATM   31  C24 UNL     1      -7.595  -1.079   4.502  1.00  0.00     0.205 C
BRANCH  29  32
HETATM   32  C5  UNL     1      -7.755  -3.825   2.541  1.00  0.00     0.198 C
BRANCH  32  33
HETATM   33  O3  UNL     1      -7.840  -5.060   3.137  1.00  0.00    -0.398 OA
ATOM     34  H3  UNL     1      -8.207  -5.734   2.577  1.00  0.00     0.209 HD
ENDBRANCH  32  33
ENDBRANCH  29  32
BRANCH  30  35
HETATM   35  O2  UNL     1      -8.216  -1.214   2.152  1.00  0.00    -0.311 OA
BRANCH  35  36
HETATM   36  C2  UNL     1      -8.273  -0.014   1.463  1.00  0.00     0.255 C
HETATM   37  C1  UNL     1      -9.255   1.045   1.766  1.00  0.00     0.126 C
HETATM   38  O1  UNL     1      -7.450   0.189   0.529  1.00  0.00    -0.266 OA
ENDBRANCH  35  36
ENDBRANCH  30  35
BRANCH  31  39
HETATM   39  O10 UNL     1      -8.855  -1.560   4.850  1.00  0.00    -0.388 OA
ATOM     40  H10 UNL     1      -9.059  -1.420   5.767  1.00  0.00     0.210 HD
ENDBRANCH  31  39
ENDBRANCH  26  27
ENDBRANCH   1  26
BRANCH   2  41
HETATM   41  O6  UNL     1      -5.259  -2.454   8.018  1.00  0.00    -0.390 OA
ATOM     42  H6  UNL     1      -4.375  -2.347   8.349  1.00  0.00     0.210 HD
ENDBRANCH   2  41
BRANCH   4  43
HETATM   43  C11 UNL     1      -3.677   0.724   9.935  1.00  0.00     0.280 C
BRANCH  43  44
HETATM   44  N1  UNL     1      -3.071  -0.171  10.909  1.00  0.00     0.080 N
HETATM   45  C12 UNL     1      -3.940  -0.246  12.101  1.00  0.00     0.309 C
HETATM   46  C13 UNL     1      -1.833   0.506  11.320  1.00  0.00     0.309 C
ENDBRANCH  43  44
ENDBRANCH   4  43
BRANCH   3  47
HETATM   47  O7  UNL     1      -6.192  -0.472   9.509  1.00  0.00    -0.392 OA
ATOM     48  H7  UNL     1      -5.949  -1.343   9.800  1.00  0.00     0.210 HD
ENDBRANCH   3  47
TORSDOF 18
ENDMDL