MODEL 4
REMARK VINA RESULT: -8.555074323      5.379      8.756
REMARK  20 active torsions:
REMARK  status: ('A' for Active; 'I' for Inactive)
REMARK    1  A    between atoms: C2_2  and  C3_4
REMARK    2  A    between atoms: C4_5  and  O2_6
REMARK    3  A    between atoms: C6_9  and  O3_10
REMARK    4  A    between atoms: C7_12  and  N1_13
REMARK       I    between atoms: N1_13  and  C8_15
REMARK    5  A    between atoms: C8_15  and  C9_17
REMARK    6  A    between atoms: C9_17  and  C10_18
REMARK    7  A    between atoms: C10_18  and  O6_20
REMARK    8  A    between atoms: O6_20  and  C11_21
REMARK    9  A    between atoms: C11_21  and  C12_22
REMARK   10  A    between atoms: C11_21  and  C23_43
REMARK   11  A    between atoms: C12_22  and  O7_23
REMARK   12  A    between atoms: O7_23  and  C13_24
REMARK   13  A    between atoms: C13_24  and  C14_26
REMARK   14  A    between atoms: N2_28  and  C16_29
REMARK   15  A    between atoms: C16_29  and  C17_30
REMARK   16  A    between atoms: C17_30  and  C18_31
REMARK   17  A    between atoms: C18_31  and  C19_32
REMARK   18  A    between atoms: C19_32  and  O9_35
REMARK   19  A    between atoms: N4_40  and  O10_41
REMARK   20  A    between atoms: C24_46  and  O13_47
ROOT
HETATM    1  C11 UNL     1      -6.642  -3.085   4.323  1.00  0.00     0.256 C
ENDROOT
BRANCH   1   2
HETATM    2  O6  UNL     1      -5.339  -3.223   4.867  1.00  0.00    -0.302 OA
BRANCH   2   3
HETATM    3  C10 UNL     1      -4.870  -4.374   5.474  1.00  0.00     0.268 C
HETATM    4  O5  UNL     1      -5.601  -5.375   5.433  1.00  0.00    -0.265 OA
BRANCH   3   5
HETATM    5  C9  UNL     1      -3.546  -4.378   6.136  1.00  0.00     0.214 C
BRANCH   5   6
HETATM    6  C8  UNL     1      -3.500  -3.531   7.341  1.00  0.00     0.231 C
HETATM    7  N1  UNL     1      -3.720  -2.146   7.274  1.00  0.00    -0.322 N
ATOM      8  H1  UNL     1      -3.914  -1.749   6.354  1.00  0.00     0.169 HD
HETATM    9  O4  UNL     1      -3.258  -4.064   8.446  1.00  0.00    -0.273 OA
BRANCH   7  10
HETATM   10  C7  UNL     1      -3.696  -1.253   8.368  1.00  0.00     0.102 A
HETATM   11  C6  UNL     1      -2.550  -0.524   8.658  1.00  0.00     0.098 A
HETATM   12  C5  UNL     1      -2.556   0.345   9.725  1.00  0.00     0.076 A
HETATM   13  C4  UNL     1      -3.669   0.529  10.536  1.00  0.00     0.085 A
HETATM   14  C3  UNL     1      -4.810  -0.189  10.258  1.00  0.00     0.078 A
HETATM   15  C24 UNL     1      -4.787  -1.063   9.175  1.00  0.00     0.112 A
BRANCH  11  16
HETATM   16  O3  UNL     1      -1.456  -0.709   7.855  1.00  0.00    -0.358 OA
ATOM     17  H3  UNL     1      -1.301  -0.201   7.067  1.00  0.00     0.217 HD
ENDBRANCH  11  16
BRANCH  13  18
HETATM   18  O2  UNL     1      -3.623   1.419  11.601  1.00  0.00    -0.360 OA
ATOM     19  H2  UNL     1      -3.829   2.338  11.482  1.00  0.00     0.217 HD
ENDBRANCH  13  18
BRANCH  14  20
HETATM   20  C2  UNL     1      -6.029  -0.076  11.036  1.00  0.00     0.161 C
HETATM   21  C1  UNL     1      -6.039  -0.211  12.508  1.00  0.00     0.097 C
HETATM   22  O1  UNL     1      -7.123   0.148  10.420  1.00  0.00    -0.293 OA
ENDBRANCH  14  20
BRANCH  15  23
HETATM   23  O13 UNL     1      -5.937  -1.802   8.876  1.00  0.00    -0.357 OA
ATOM     24  H13 UNL     1      -6.771  -1.350   8.821  1.00  0.00     0.217 HD
ENDBRANCH  15  23
ENDBRANCH   7  10
ENDBRANCH   5   6
ENDBRANCH   3   5
ENDBRANCH   2   3
ENDBRANCH   1   2
BRANCH   1  25
HETATM   25  C12 UNL     1      -7.438  -2.032   5.012  1.00  0.00     0.222 C
BRANCH  25  26
HETATM   26  O7  UNL     1      -6.680  -1.336   5.956  1.00  0.00    -0.313 OA
BRANCH  26  27
HETATM   27  C13 UNL     1      -6.339  -0.006   5.931  1.00  0.00     0.315 C
HETATM   28  O8  UNL     1      -6.431   0.655   6.995  1.00  0.00    -0.257 OA
BRANCH  27  29
HETATM   29  C14 UNL     1      -5.872   0.654   4.700  1.00  0.00     0.171 A
HETATM   30  C15 UNL     1      -6.576   1.683   4.104  1.00  0.00     0.133 A
HETATM   31  N2  UNL     1      -6.146   2.279   2.983  1.00  0.00    -0.338 N
HETATM   32  C22 UNL     1      -5.003   1.861   2.432  1.00  0.00     0.203 A
HETATM   33  N3  UNL     1      -4.282   0.844   2.997  1.00  0.00    -0.269 N
HETATM   34  N4  UNL     1      -4.730   0.258   4.122  1.00  0.00    -0.155 N
ATOM     35  H3  UNL     1      -3.411   0.533   2.568  1.00  0.00     0.190 HD
BRANCH  31  36
HETATM   36  C16 UNL     1      -6.898   3.343   2.388  1.00  0.00     0.223 C
BRANCH  36  37
HETATM   37  C17 UNL     1      -8.361   3.149   2.543  1.00  0.00    -0.083 C
BRANCH  37  38
HETATM   38  C18 UNL     1      -9.555   3.007   2.657  1.00  0.00    -0.067 C
BRANCH  38  39
HETATM   39  C19 UNL     1     -11.007   2.851   2.781  1.00  0.00     0.114 C
HETATM   40  C20 UNL     1     -11.607   2.235   1.517  1.00  0.00     0.060 C
HETATM   41  C21 UNL     1     -11.350   1.937   3.947  1.00  0.00     0.060 C
BRANCH  39  42
HETATM   42  O9  UNL     1     -11.533   4.125   2.964  1.00  0.00    -0.378 OA
ATOM     43  H9  UNL     1     -12.424   4.012   3.273  1.00  0.00     0.211 HD
ENDBRANCH  39  42
ENDBRANCH  38  39
ENDBRANCH  37  38
ENDBRANCH  36  37
ENDBRANCH  31  36
BRANCH  34  44
HETATM   44  O10 UNL     1      -3.957  -0.773   4.653  1.00  0.00    -0.267 OA
ATOM     45  H10 UNL     1      -3.009  -0.764   4.602  1.00  0.00     0.247 HD
ENDBRANCH  34  44
ENDBRANCH  27  29
ENDBRANCH  26  27
ENDBRANCH  25  26
ENDBRANCH   1  25
BRANCH   1  46
HETATM   46  C23 UNL     1      -6.498  -2.855   2.873  1.00  0.00     0.206 C
HETATM   47  O11 UNL     1      -5.726  -2.004   2.360  1.00  0.00    -0.646 OA
HETATM   48  O12 UNL     1      -7.255  -3.618   1.999  1.00  0.00    -0.646 OA
ENDBRANCH   1  46
TORSDOF 20
ENDMDL