MODEL 3
REMARK VINA RESULT: -8.189057969      1.574      2.597
REMARK  18 active torsions:
REMARK  status: ('A' for Active; 'I' for Inactive)
REMARK    1  A    between atoms: C2_2  and  O1_5
REMARK    2  A    between atoms: O1_5  and  C5_6
REMARK    3  A    between atoms: C5_6  and  C6_8
REMARK    4  A    between atoms: C6_8  and  N1_9
REMARK    5  A    between atoms: N1_9  and  C7_10
REMARK    6  A    between atoms: C7_10  and  O3_11
REMARK    7  A    between atoms: C7_10  and  C16_22
REMARK    8  A    between atoms: O3_11  and  C8_12
REMARK    9  A    between atoms: C8_12  and  O4_13
REMARK   10  A    between atoms: O4_13  and  C9_14
REMARK   11  A    between atoms: C9_14  and  C10_16
REMARK   12  A    between atoms: C17_26  and  C18_27
REMARK       I    between atoms: C18_27  and  N3_29
REMARK   13  A    between atoms: N3_29  and  C19_31
REMARK   14  A    between atoms: C19_31  and  C20_32
REMARK   15  A    between atoms: C19_31  and  C21_35
REMARK   16  A    between atoms: C21_35  and  O9_36
REMARK   17  A    between atoms: C21_35  and  O10_38
REMARK   18  A    between atoms: C23_41  and  C24_42
ROOT
HETATM    1  C16 UNL     1      -4.193  -0.973   5.611  1.00  0.00     0.307 C
HETATM    2  N2  UNL     1      -5.048   0.119   6.017  1.00  0.00    -0.042 N
ATOM      3  H21 UNL     1      -4.708   0.914   6.556  1.00  0.00     0.280 HD
ATOM      4  H22 UNL     1      -5.770   0.017   6.730  1.00  0.00     0.280 HD
HETATM    5  C17 UNL     1      -5.362   0.209   4.555  1.00  0.00     0.310 C
HETATM    6  C22 UNL     1      -5.266  -1.239   4.571  1.00  0.00     0.005 C
HETATM    7  C23 UNL     1      -5.695  -2.364   4.099  1.00  0.00     0.092 C
ENDROOT
BRANCH   1   8
HETATM    8  C7  UNL     1      -4.069  -2.059   6.636  1.00  0.00     0.229 C
BRANCH   8   9
HETATM    9  N1  UNL     1      -3.579  -3.115   6.338  1.00  0.00    -0.389 NA
BRANCH   9  10
HETATM   10  C6  UNL     1      -3.168  -4.339   6.004  1.00  0.00     0.267 C
BRANCH  10  11
HETATM   11  C5  UNL     1      -4.138  -5.468   6.276  1.00  0.00     0.312 C
HETATM   12  O2  UNL     1      -5.248  -5.422   5.713  1.00  0.00    -0.257 OA
BRANCH  11  13
HETATM   13  O1  UNL     1      -3.843  -6.524   7.107  1.00  0.00    -0.306 OA
BRANCH  13  14
HETATM   14  C2  UNL     1      -3.988  -6.490   8.510  1.00  0.00     0.060 C
HETATM   15  C1  UNL     1      -3.216  -5.366   9.138  1.00  0.00     0.046 C
HETATM   16  C3  UNL     1      -5.470  -6.209   8.770  1.00  0.00     0.046 C
HETATM   17  C4  UNL     1      -3.649  -7.776   9.189  1.00  0.00     0.046 C
ENDBRANCH  13  14
ENDBRANCH  11  13
ENDBRANCH  10  11
ENDBRANCH   9  10
ENDBRANCH   8   9
BRANCH   8  18
HETATM   18  O3  UNL     1      -4.558  -1.726   7.911  1.00  0.00    -0.300 OA
BRANCH  18  19
HETATM   19  C8  UNL     1      -3.703  -1.681   9.027  1.00  0.00     0.358 C
BRANCH  19  20
HETATM   20  O4  UNL     1      -3.635  -0.457   9.680  1.00  0.00    -0.291 OA
BRANCH  20  21
HETATM   21  C9  UNL     1      -3.660  -0.237  11.041  1.00  0.00     0.295 C
HETATM   22  O5  UNL     1      -2.595   0.035  11.609  1.00  0.00    -0.259 OA
BRANCH  21  23
HETATM   23  C10 UNL     1      -4.902  -0.317  11.818  1.00  0.00     0.039 A
HETATM   24  C11 UNL     1      -6.143  -0.159  11.243  1.00  0.00     0.017 A
HETATM   25  C12 UNL     1      -7.303  -0.238  11.990  1.00  0.00     0.001 A
HETATM   26  C13 UNL     1      -7.258  -0.479  13.344  1.00  0.00     0.000 A
HETATM   27  C14 UNL     1      -6.014  -0.638  13.927  1.00  0.00     0.001 A
HETATM   28  C15 UNL     1      -4.859  -0.558  13.175  1.00  0.00     0.017 A
ENDBRANCH  21  23
ENDBRANCH  20  21
ENDBRANCH  19  20
ENDBRANCH  18  19
ENDBRANCH   8  18
ENDBRANCH   1   8
BRANCH   5  29
HETATM   29  C18 UNL     1      -6.640   0.889   4.406  1.00  0.00     0.253 C
HETATM   30  O6  UNL     1      -6.924   1.843   5.165  1.00  0.00    -0.271 OA
HETATM   31  N3  UNL     1      -7.579   0.505   3.416  1.00  0.00    -0.340 N
ATOM     32  H3  UNL     1      -7.369  -0.270   2.786  1.00  0.00     0.163 HD
BRANCH  31  33
HETATM   33  C19 UNL     1      -8.827   1.208   3.299  1.00  0.00     0.240 C
BRANCH  33  34
HETATM   34  C20 UNL     1      -9.821   0.589   4.207  1.00  0.00     0.201 C
HETATM   35  O7  UNL     1      -9.822  -0.641   4.358  1.00  0.00    -0.646 OA
HETATM   36  O8  UNL     1     -10.763   1.345   4.903  1.00  0.00    -0.646 OA
ENDBRANCH  33  34
BRANCH  33  37
HETATM   37  C21 UNL     1      -9.308   1.100   1.862  1.00  0.00     0.287 C
BRANCH  37  38
HETATM   38  O9  UNL     1     -10.676   1.275   1.771  1.00  0.00    -0.369 OA
ATOM     39  H9  UNL     1     -10.897   1.980   1.176  1.00  0.00     0.212 HD
ENDBRANCH  37  38
BRANCH  37  40
HETATM   40  O10 UNL     1      -8.988  -0.150   1.326  1.00  0.00    -0.369 OA
ATOM     41  H10 UNL     1      -8.743  -0.071   0.413  1.00  0.00     0.212 HD
ENDBRANCH  37  40
ENDBRANCH  33  37
ENDBRANCH  31  33
ENDBRANCH   5  29
BRANCH   7  42
HETATM   42  C24 UNL     1      -6.731  -2.530   3.099  1.00  0.00     0.198 C
HETATM   43  O11 UNL     1      -6.668  -1.892   2.003  1.00  0.00    -0.644 OA
HETATM   44  O12 UNL     1      -7.828  -3.355   3.234  1.00  0.00    -0.644 OA
ENDBRANCH   7  42
TORSDOF 18
ENDMDL