MODEL 5
REMARK VINA RESULT: -6.700541278      2.802      4.827
REMARK  17 active torsions:
REMARK  status: ('A' for Active; 'I' for Inactive)
REMARK    1  A    between atoms: C2_2  and  C3_3
REMARK    2  A    between atoms: C3_3  and  O1_4
REMARK    3  A    between atoms: C3_3  and  C6_8
REMARK    4  A    between atoms: O1_4  and  C4_5
REMARK    5  A    between atoms: C6_8  and  N1_9
REMARK    6  A    between atoms: C6_8  and  C11_15
REMARK    7  A    between atoms: N1_9  and  O3_10
REMARK    8  A    between atoms: O3_10  and  C7_11
REMARK       I    between atoms: C11_15  and  N2_17
REMARK    9  A    between atoms: C12_19  and  C13_20
REMARK   10  A    between atoms: C18_27  and  C19_28
REMARK   11  A    between atoms: C19_28  and  O7_29
REMARK   12  A    between atoms: C19_28  and  C20_31
REMARK   13  A    between atoms: C20_31  and  O8_32
REMARK   14  A    between atoms: C20_31  and  C21_34
REMARK   15  A    between atoms: C21_34  and  O9_35
REMARK   16  A    between atoms: C21_34  and  C22_37
REMARK   17  A    between atoms: C22_37  and  O10_38
ROOT
HETATM    1  C13 UNL     1      -6.838   1.608   5.685  1.00  0.00     0.019 C
HETATM    2  C14 UNL     1      -6.532   1.448   4.447  1.00  0.00     0.167 C
HETATM    3  O5  UNL     1      -7.559   1.103   3.555  1.00  0.00    -0.309 OA
HETATM    4  C15 UNL     1      -7.364  -0.383   3.591  1.00  0.00     0.150 C
HETATM    5  C16 UNL     1      -5.884  -0.708   3.778  1.00  0.00     0.108 C
HETATM    6  C17 UNL     1      -5.339   0.382   2.762  1.00  0.00     0.246 C
HETATM    7  O6  UNL     1      -6.275   0.224   1.813  1.00  0.00    -0.353 OA
HETATM    8  C18 UNL     1      -7.383  -0.536   2.171  1.00  0.00     0.201 C
HETATM    9  N3  UNL     1      -5.362   1.497   3.702  1.00  0.00    -0.240 N
HETATM   10 CL1  UNL     1      -4.257   2.679   4.106  1.00  0.00     0.018 Cl
HETATM   11  S1  UNL     1      -8.250  -0.641   4.984  1.00  0.00    -0.123 SA
HETATM   12  C23 UNL     1      -8.227   1.004   5.958  1.00  0.00     0.121 C
ENDROOT
BRANCH   1  13
HETATM   13  C12 UNL     1      -5.785   1.983   6.531  1.00  0.00     0.103 C
HETATM   14  N2  UNL     1      -4.870   1.366   7.033  1.00  0.00    -0.335 N
HETATM   15  C11 UNL     1      -4.376   0.107   7.079  1.00  0.00     0.245 C
ATOM     16  H2  UNL     1      -4.293   1.990   7.597  1.00  0.00     0.168 HD
HETATM   17  O4  UNL     1      -3.874  -0.484   6.059  1.00  0.00    -0.271 OA
BRANCH  15  18
HETATM   18  C6  UNL     1      -4.349  -0.747   8.322  1.00  0.00     0.228 C
BRANCH  18  19
HETATM   19  C3  UNL     1      -5.140  -0.194   9.453  1.00  0.00     0.162 C
BRANCH  19  20
HETATM   20  C2  UNL     1      -6.574  -0.684   9.499  1.00  0.00     0.030 C
HETATM   21  C1  UNL     1      -7.105  -0.278  10.881  1.00  0.00     0.007 C
ENDBRANCH  19  20
BRANCH  19  22
HETATM   22  O1  UNL     1      -4.580  -0.630  10.710  1.00  0.00    -0.314 OA
BRANCH  22  23
HETATM   23  C4  UNL     1      -3.809   0.187  11.488  1.00  0.00     0.255 C
HETATM   24  C5  UNL     1      -2.974   1.290  10.936  1.00  0.00     0.126 C
HETATM   25  O2  UNL     1      -3.783   0.024  12.740  1.00  0.00    -0.266 OA
ENDBRANCH  22  23
ENDBRANCH  19  22
ENDBRANCH  18  19
BRANCH  18  26
HETATM   26  N1  UNL     1      -4.787  -2.091   8.039  1.00  0.00    -0.083 NA
BRANCH  26  27
HETATM   27  O3  UNL     1      -3.945  -3.024   8.510  1.00  0.00    -0.276 OA
BRANCH  27  28
HETATM   28  C7  UNL     1      -3.613  -3.882   7.469  1.00  0.00     0.073 C
HETATM   29  C8  UNL     1      -3.856  -5.296   7.946  1.00  0.00     0.047 C
HETATM   30  C9  UNL     1      -4.462  -3.657   6.238  1.00  0.00     0.047 C
HETATM   31  C10 UNL     1      -2.168  -3.690   7.089  1.00  0.00     0.047 C
ENDBRANCH  27  28
ENDBRANCH  26  27
ENDBRANCH  18  26
ENDBRANCH  15  18
ENDBRANCH   1  13
BRANCH   8  32
HETATM   32  C19 UNL     1      -7.711  -1.783   1.495  1.00  0.00     0.182 C
BRANCH  32  33
HETATM   33  O7  UNL     1      -8.562  -1.480   0.346  1.00  0.00    -0.390 OA
ATOM     34  H7  UNL     1      -8.020  -1.460  -0.434  1.00  0.00     0.210 HD
ENDBRANCH  32  33
BRANCH  32  35
HETATM   35  C20 UNL     1      -8.260  -2.967   2.187  1.00  0.00     0.180 C
BRANCH  35  36
HETATM   36  O8  UNL     1      -9.143  -3.660   1.244  1.00  0.00    -0.390 OA
ATOM     37  H8  UNL     1      -9.981  -3.212   1.255  1.00  0.00     0.210 HD
ENDBRANCH  35  36
BRANCH  35  38
HETATM   38  C21 UNL     1      -7.253  -4.057   2.477  1.00  0.00     0.173 C
BRANCH  38  39
HETATM   39  O9  UNL     1      -7.313  -4.387   3.844  1.00  0.00    -0.391 OA
ATOM     40  H9  UNL     1      -8.119  -4.858   4.014  1.00  0.00     0.210 HD
ENDBRANCH  38  39
BRANCH  38  41
HETATM   41  C22 UNL     1      -7.621  -5.294   1.658  1.00  0.00     0.198 C
BRANCH  41  42
HETATM   42  O10 UNL     1      -6.528  -6.192   1.645  1.00  0.00    -0.398 OA
ATOM     43  H10 UNL     1      -6.574  -6.733   0.866  1.00  0.00     0.209 HD
ENDBRANCH  41  42
ENDBRANCH  38  41
ENDBRANCH  35  38
ENDBRANCH  32  35
ENDBRANCH   8  32
TORSDOF 17
ENDMDL