MODEL 5
REMARK VINA RESULT: -8.261829560      2.351      3.745
REMARK  11 active torsions:
REMARK  status: ('A' for Active; 'I' for Inactive)
REMARK    1  A    between atoms: C4_7  and  C5_8
REMARK       I    between atoms: C5_8  and  N3_10
REMARK    2  A    between atoms: N3_10  and  C6_12
REMARK    3  A    between atoms: C6_12  and  C7_13
REMARK    4  A    between atoms: C6_12  and  C8_16
REMARK    5  A    between atoms: C8_16  and  O4_17
REMARK    6  A    between atoms: C8_16  and  C9_19
REMARK    7  A    between atoms: N4_20  and  N5_22
REMARK       I    between atoms: N5_22  and  C10_24
REMARK    8  A    between atoms: C10_24  and  C11_26
REMARK    9  A    between atoms: N6_28  and  C13_29
REMARK   10  A    between atoms: C18_35  and  C19_36
REMARK       I    between atoms: C19_36  and  N7_38
REMARK   11  A    between atoms: N7_38  and  C20_40
ROOT
HETATM    1  C20 UNL     1      -7.444   0.419   6.034  1.00  0.00     0.247 C
HETATM    2  C21 UNL     1      -8.740  -0.149   5.667  1.00  0.00     0.078 C
HETATM    3  N8  UNL     1      -9.766  -0.621   5.372  1.00  0.00    -0.196 NA
ENDROOT
BRANCH   1   4
HETATM    4  N7  UNL     1      -7.407   0.564   7.490  1.00  0.00    -0.344 N
HETATM    5  C19 UNL     1      -6.655  -0.347   8.245  1.00  0.00     0.254 C
HETATM    6  O6  UNL     1      -6.016  -1.264   7.617  1.00  0.00    -0.268 OA
ATOM      7  H7  UNL     1      -7.922   1.317   7.949  1.00  0.00     0.163 HD
BRANCH   5   8
HETATM    8  C18 UNL     1      -6.572  -0.277   9.688  1.00  0.00     0.062 A
HETATM    9  C13 UNL     1      -5.403  -0.336  10.374  1.00  0.00     0.094 A
HETATM   10  C14 UNL     1      -5.475  -0.343  11.778  1.00  0.00     0.063 A
HETATM   11 CL1  UNL     1      -4.000  -0.412  12.713  1.00  0.00    -0.082 Cl
HETATM   12  C15 UNL     1      -6.669  -0.292  12.452  1.00  0.00     0.026 A
HETATM   13  C16 UNL     1      -7.853  -0.230  11.716  1.00  0.00     0.003 A
HETATM   14  C17 UNL     1      -7.813  -0.222  10.350  1.00  0.00     0.019 A
BRANCH   9  15
HETATM   15  N6  UNL     1      -4.137  -0.310   9.733  1.00  0.00    -0.248 N
HETATM   16  C12 UNL     1      -3.408   0.843   9.552  1.00  0.00     0.155 A
HETATM   17  C11 UNL     1      -2.223   0.583   8.917  1.00  0.00     0.136 A
HETATM   18  N10 UNL     1      -2.247  -0.760   8.716  1.00  0.00    -0.279 N
HETATM   19  N9  UNL     1      -3.374  -1.243   9.203  1.00  0.00    -0.235 N
ATOM     20  H10 UNL     1      -1.514  -1.306   8.264  1.00  0.00     0.189 HD
ATOM     21  H9  UNL     1      -3.626  -2.231   9.173  1.00  0.00     0.209 HD
BRANCH  17  22
HETATM   22  C10 UNL     1      -1.178   1.517   8.552  1.00  0.00     0.289 C
HETATM   23  N5  UNL     1       0.172   1.186   8.779  1.00  0.00    -0.265 N
ATOM     24  H5  UNL     1       0.395   0.285   9.203  1.00  0.00     0.190 HD
HETATM   25  O5  UNL     1      -1.457   2.620   8.035  1.00  0.00    -0.264 OA
BRANCH  23  26
HETATM   26  N4  UNL     1       1.226   2.061   8.439  1.00  0.00    -0.310 N
HETATM   27  C9  UNL     1       2.206   2.251   9.272  1.00  0.00     0.114 C
ATOM     28  H4  UNL     1       1.220   2.544   7.541  1.00  0.00     0.185 HD
BRANCH  27  29
HETATM   29  C8  UNL     1       2.191   1.547  10.554  1.00  0.00     0.191 C
BRANCH  29  30
HETATM   30  C6  UNL     1       2.095   2.495  11.739  1.00  0.00     0.219 C
BRANCH  30  31
HETATM   31  N3  UNL     1       1.685   1.730  12.929  1.00  0.00    -0.338 N
HETATM   32  C5  UNL     1       2.645   1.419  13.892  1.00  0.00     0.271 C
HETATM   33  O1  UNL     1       3.848   1.815  13.690  1.00  0.00    -0.266 OA
ATOM     34  H3  UNL     1       0.716   1.433  13.047  1.00  0.00     0.163 HD
BRANCH  32  35
HETATM   35  C4  UNL     1       2.421   0.681  15.116  1.00  0.00     0.126 A
HETATM   36  N2  UNL     1       2.667  -0.655  15.297  1.00  0.00    -0.291 N
HETATM   37  N1  UNL     1       2.372  -1.021  16.525  1.00  0.00    -0.302 N
HETATM   38  C3  UNL     1       3.167  -1.549  14.271  1.00  0.00     0.178 C
HETATM   39  C2  UNL     1       1.919   0.010  17.237  1.00  0.00     0.030 A
ATOM     40  H1  UNL     1       2.476  -1.970  16.884  1.00  0.00     0.186 HD
HETATM   41  C1  UNL     1       1.486  -0.028  18.658  1.00  0.00     0.070 C
HETATM   42  C22 UNL     1       1.946   1.096  16.352  1.00  0.00    -0.004 A
HETATM   43  C23 UNL     1       1.522   2.454  16.732  1.00  0.00     0.053 C
ENDBRANCH  32  35
ENDBRANCH  30  31
BRANCH  30  44
HETATM   44  C7  UNL     1       1.032   3.489  11.477  1.00  0.00     0.199 C
HETATM   45  O2  UNL     1       1.232   4.721  11.473  1.00  0.00    -0.646 OA
HETATM   46  O3  UNL     1      -0.288   3.100  11.217  1.00  0.00    -0.646 OA
ENDBRANCH  30  44
ENDBRANCH  29  30
BRANCH  29  47
HETATM   47  O4  UNL     1       3.308   0.740  10.723  1.00  0.00    -0.388 OA
ATOM     48  H4  UNL     1       4.049   1.159  10.301  1.00  0.00     0.210 HD
ENDBRANCH  29  47
ENDBRANCH  27  29
ENDBRANCH  23  26
ENDBRANCH  17  22
ENDBRANCH   9  15
ENDBRANCH   5   8
ENDBRANCH   1   4
TORSDOF 11
ENDMDL