MODEL 2
REMARK VINA RESULT: -7.093527517      2.713      5.277
REMARK  14 active torsions:
REMARK  status: ('A' for Active; 'I' for Inactive)
REMARK    1  A    between atoms: O1_2  and  C2_3
REMARK    2  A    between atoms: C3_4  and  O2_5
REMARK    3  A    between atoms: C4_7  and  C5_8
REMARK    4  A    between atoms: C5_8  and  O3_9
REMARK    5  A    between atoms: C6_12  and  O5_13
REMARK    6  A    between atoms: O5_13  and  C7_14
REMARK    7  A    between atoms: C8_15  and  O6_16
REMARK    8  A    between atoms: O6_16  and  C9_17
REMARK    9  A    between atoms: C10_18  and  O7_19
REMARK   10  A    between atoms: C18_30  and  O10_31
REMARK   11  A    between atoms: C19_33  and  O11_34
REMARK   12  A    between atoms: C20_36  and  O12_37
REMARK   13  A    between atoms: O12_37  and  C21_38
REMARK   14  A    between atoms: C21_38  and  C22_39
ROOT
HETATM    1  C7  UNL     1      -4.439   1.417   5.585  1.00  0.00     0.189 C
HETATM    2  C8  UNL     1      -5.138   1.348   4.273  1.00  0.00     0.177 C
HETATM    3  C17 UNL     1      -4.027   1.594   3.252  1.00  0.00     0.205 C
HETATM    4  O9  UNL     1      -3.349   2.726   3.542  1.00  0.00    -0.356 OA
HETATM    5  C18 UNL     1      -3.784   3.568   4.509  1.00  0.00     0.288 C
HETATM    6  C19 UNL     1      -4.156   2.906   5.814  1.00  0.00     0.204 C
ENDROOT
BRANCH   1   7
HETATM    7  O5  UNL     1      -5.103   0.823   6.604  1.00  0.00    -0.348 OA
BRANCH   7   8
HETATM    8  C6  UNL     1      -4.299  -0.055   7.342  1.00  0.00     0.292 C
HETATM    9  O4  UNL     1      -3.836   0.720   8.406  1.00  0.00    -0.348 OA
HETATM   10  C4  UNL     1      -3.125  -0.027   9.341  1.00  0.00     0.179 C
HETATM   11  C3  UNL     1      -4.030  -1.025  10.028  1.00  0.00     0.180 C
HETATM   12  C2  UNL     1      -5.400  -1.027   9.363  1.00  0.00     0.185 C
HETATM   13  C20 UNL     1      -5.142  -1.164   7.874  1.00  0.00     0.208 C
BRANCH  10  14
HETATM   14  C5  UNL     1      -2.459   0.832  10.358  1.00  0.00     0.198 C
BRANCH  14  15
HETATM   15  O3  UNL     1      -3.205   1.964  10.689  1.00  0.00    -0.398 OA
ATOM     16  H3  UNL     1      -2.790   2.502  11.354  1.00  0.00     0.209 HD
ENDBRANCH  14  15
ENDBRANCH  10  14
BRANCH  11  17
HETATM   17  O2  UNL     1      -4.124  -0.658  11.366  1.00  0.00    -0.390 OA
ATOM     18  H2  UNL     1      -3.509  -1.147  11.899  1.00  0.00     0.210 HD
ENDBRANCH  11  17
BRANCH  12  19
HETATM   19  O1  UNL     1      -6.096   0.131   9.588  1.00  0.00    -0.385 OA
HETATM   20  C1  UNL     1      -7.394  -0.017  10.008  1.00  0.00     0.202 C
ENDBRANCH  12  19
BRANCH  13  21
HETATM   21  O12 UNL     1      -4.634  -2.423   7.566  1.00  0.00    -0.378 OA
BRANCH  21  22
HETATM   22  C21 UNL     1      -3.669  -2.456   6.605  1.00  0.00     0.179 C
BRANCH  22  23
HETATM   23  C22 UNL     1      -2.945  -3.774   6.556  1.00  0.00     0.111 C
HETATM   24 BR1  UNL     1      -4.056  -5.149   5.744  1.00  0.00    -0.094 Br
ENDBRANCH  22  23
ENDBRANCH  21  22
ENDBRANCH  13  21
ENDBRANCH   7   8
ENDBRANCH   1   7
BRANCH   2  25
HETATM   25  O6  UNL     1      -5.822   0.202   4.113  1.00  0.00    -0.370 OA
BRANCH  25  26
HETATM   26  C9  UNL     1      -7.159   0.285   3.858  1.00  0.00     0.187 C
HETATM   27  C10 UNL     1      -8.062   0.971   4.779  1.00  0.00     0.183 C
HETATM   28  C11 UNL     1      -9.407   0.246   4.622  1.00  0.00     0.083 C
HETATM   29  C12 UNL     1     -10.291   1.002   3.630  1.00  0.00     0.048 C
HETATM   30  C13 UNL     1     -10.164   0.212   5.932  1.00  0.00     0.048 C
HETATM   31  O8  UNL     1      -9.095  -1.007   4.191  1.00  0.00    -0.365 OA
HETATM   32  C14 UNL     1      -7.836  -1.071   3.674  1.00  0.00     0.083 C
HETATM   33  C15 UNL     1      -7.080  -2.156   4.424  1.00  0.00     0.048 C
HETATM   34  C16 UNL     1      -7.850  -1.483   2.217  1.00  0.00     0.048 C
BRANCH  27  35
HETATM   35  O7  UNL     1      -8.318   2.307   4.393  1.00  0.00    -0.390 OA
ATOM     36  H7  UNL     1      -9.075   2.675   4.834  1.00  0.00     0.210 HD
ENDBRANCH  27  35
ENDBRANCH  25  26
ENDBRANCH   2  25
BRANCH   6  37
HETATM   37  O11 UNL     1      -3.185   3.101   6.777  1.00  0.00    -0.388 OA
ATOM     38  H11 UNL     1      -2.328   3.239   6.391  1.00  0.00     0.210 HD
ENDBRANCH   6  37
BRANCH   5  39
HETATM   39  O10 UNL     1      -4.816   4.433   4.085  1.00  0.00    -0.369 OA
ATOM     40  H10 UNL     1      -5.125   5.020   4.765  1.00  0.00     0.212 HD
ENDBRANCH   5  39
TORSDOF 14
ENDMDL