MODEL 4
REMARK VINA RESULT: -8.233936906      1.206      1.570
REMARK  13 active torsions:
REMARK  status: ('A' for Active; 'I' for Inactive)
REMARK    1  A    between atoms: C2_2  and  N1_3
REMARK       I    between atoms: N1_3  and  C3_5
REMARK    2  A    between atoms: C3_5  and  C4_7
REMARK    3  A    between atoms: C4_7  and  C5_8
REMARK    4  A    between atoms: C4_7  and  C12_26
REMARK    5  A    between atoms: C5_8  and  N2_9
REMARK    6  A    between atoms: C7_13  and  C8_14
REMARK    7  A    between atoms: C12_26  and  O8_28
REMARK    8  A    between atoms: O8_28  and  C13_29
REMARK    9  A    between atoms: C15_31  and  O9_32
REMARK   10  A    between atoms: C16_34  and  C17_35
REMARK   11  A    between atoms: C18_36  and  C19_37
REMARK   12  A    between atoms: C19_37  and  O10_38
REMARK   13  A    between atoms: C20_40  and  O11_41
ROOT
HETATM    1  C4  UNL     1      -6.894  -0.601   4.355  1.00  0.00     0.196 C
ENDROOT
BRANCH   1   2
HETATM    2  C3  UNL     1      -6.351  -0.770   3.010  1.00  0.00     0.233 C
HETATM    3  N1  UNL     1      -6.144   0.394   2.169  1.00  0.00    -0.361 N
ATOM      4  H1  UNL     1      -6.378   1.320   2.526  1.00  0.00     0.162 HD
HETATM    5  O1  UNL     1      -6.029  -1.846   2.464  1.00  0.00    -0.273 OA
BRANCH   3   6
HETATM    6  C2  UNL     1      -5.624   0.264   0.864  1.00  0.00     0.118 C
HETATM    7  C1  UNL     1      -4.142   0.625   0.781  1.00  0.00     0.026 C
ENDBRANCH   3   6
ENDBRANCH   1   2
BRANCH   1   8
HETATM    8  C5  UNL     1      -7.414   0.728   4.737  1.00  0.00     0.163 C
BRANCH   8   9
HETATM    9  N2  UNL     1      -8.801   1.013   4.496  1.00  0.00    -0.247 N
HETATM   10  C6  UNL     1      -9.422   1.567   3.440  1.00  0.00     0.353 A
HETATM   11  O2  UNL     1      -8.836   2.019   2.421  1.00  0.00    -0.244 OA
HETATM   12  N3  UNL     1     -10.759   1.550   3.687  1.00  0.00    -0.180 N
HETATM   13  C7  UNL     1     -11.820   1.981   2.951  1.00  0.00     0.177 A
HETATM   14  N5  UNL     1     -10.954   0.996   4.875  1.00  0.00    -0.141 N
HETATM   15  C9  UNL     1     -13.114   1.816   3.502  1.00  0.00     0.143 A
HETATM   16 CL1  UNL     1     -14.512   2.349   2.607  1.00  0.00    -0.061 Cl
HETATM   17  N4  UNL     1     -13.236   1.253   4.696  1.00  0.00    -0.295 N
HETATM   18  C10 UNL     1     -12.202   0.831   5.417  1.00  0.00     0.351 A
ATOM     19  H4  UNL     1     -14.173   1.139   5.082  1.00  0.00     0.171 HD
HETATM   20  O5  UNL     1     -12.312   0.295   6.554  1.00  0.00    -0.244 OA
HETATM   21  C11 UNL     1      -9.770   0.657   5.393  1.00  0.00     0.356 A
HETATM   22  O6  UNL     1      -9.562   0.101   6.526  1.00  0.00    -0.244 OA
BRANCH  13  23
HETATM   23  C8  UNL     1     -11.700   2.590   1.656  1.00  0.00     0.232 C
HETATM   24  O3  UNL     1     -11.773   1.794   0.638  1.00  0.00    -0.643 OA
HETATM   25  O4  UNL     1     -11.517   3.886   1.321  1.00  0.00    -0.643 OA
ENDBRANCH  13  23
ENDBRANCH   8   9
ENDBRANCH   1   8
BRANCH   1  26
HETATM   26  C12 UNL     1      -5.885  -1.073   5.390  1.00  0.00     0.279 C
HETATM   27  O7  UNL     1      -5.661  -2.299   5.516  1.00  0.00    -0.264 OA
BRANCH  26  28
HETATM   28  O8  UNL     1      -5.201  -0.189   6.204  1.00  0.00    -0.278 OA
BRANCH  28  29
HETATM   29  C13 UNL     1      -5.426  -0.224   7.587  1.00  0.00     0.090 A
HETATM   30  C14 UNL     1      -6.642   0.077   8.114  1.00  0.00     0.075 A
HETATM   31  C15 UNL     1      -6.918   0.056   9.496  1.00  0.00     0.081 A
HETATM   32  C16 UNL     1      -5.907  -0.289  10.373  1.00  0.00     0.031 A
HETATM   33  C20 UNL     1      -4.660  -0.596   9.811  1.00  0.00     0.089 A
HETATM   34  C22 UNL     1      -4.420  -0.568   8.457  1.00  0.00     0.006 A
HETATM   35  C23 UNL     1      -3.073  -0.906   7.925  1.00  0.00     0.054 C
BRANCH  31  36
HETATM   36  O9  UNL     1      -8.141   0.370   9.874  1.00  0.00    -0.360 OA
ATOM     37  H9  UNL     1      -8.594  -0.243  10.440  1.00  0.00     0.217 HD
ENDBRANCH  31  36
BRANCH  32  38
HETATM   38  C17 UNL     1      -6.087  -0.340  11.807  1.00  0.00     0.015 C
HETATM   39  C18 UNL     1      -7.124  -0.618  12.518  1.00  0.00    -0.000 C
BRANCH  39  40
HETATM   40  C19 UNL     1      -7.000  -0.589  14.021  1.00  0.00     0.191 C
BRANCH  40  41
HETATM   41  O10 UNL     1      -5.724  -0.995  14.414  1.00  0.00    -0.397 OA
ATOM     42  H10 UNL     1      -5.604  -0.858  15.346  1.00  0.00     0.209 HD
ENDBRANCH  40  41
ENDBRANCH  39  40
ENDBRANCH  32  38
BRANCH  33  43
HETATM   43  O11 UNL     1      -3.650  -0.942  10.700  1.00  0.00    -0.354 OA
HETATM   44  C21 UNL     1      -2.842   0.143  11.173  1.00  0.00     0.210 C
ENDBRANCH  33  43
ENDBRANCH  28  29
ENDBRANCH  26  28
ENDBRANCH   1  26
TORSDOF 13
ENDMDL