MODEL 2
REMARK VINA RESULT: -8.380442553      0.964      1.284
REMARK  20 active torsions:
REMARK  status: ('A' for Active; 'I' for Inactive)
REMARK    1  A    between atoms: O1_2  and  C2_3
REMARK    2  A    between atoms: C3_4  and  O2_5
REMARK    3  A    between atoms: O2_5  and  C4_6
REMARK    4  A    between atoms: C4_6  and  C5_8
REMARK    5  A    between atoms: C8_11  and  N1_12
REMARK    6  A    between atoms: C14_21  and  O6_22
REMARK    7  A    between atoms: C14_21  and  C15_24
REMARK    8  A    between atoms: C15_24  and  O7_25
REMARK    9  A    between atoms: N2_27  and  C16_28
REMARK   10  A    between atoms: C16_28  and  O8_29
REMARK   11  A    between atoms: C16_28  and  C17_31
REMARK   12  A    between atoms: C17_31  and  O9_32
REMARK   13  A    between atoms: C17_31  and  N3_34
REMARK   14  A    between atoms: N3_34  and  O10_36
REMARK   15  A    between atoms: O10_36  and  C18_37
REMARK   16  A    between atoms: C18_37  and  C19_38
REMARK   17  A    between atoms: C18_37  and  C23_42
REMARK   18  A    between atoms: C19_38  and  C20_39
REMARK   19  A    between atoms: C23_42  and  O11_43
REMARK   20  A    between atoms: C23_42  and  O12_45
ROOT
HETATM    1  C2  UNL     1      -5.690   2.227   4.849  1.00  0.00     0.082 C
HETATM    2  C3  UNL     1      -5.941   0.923   5.142  1.00  0.00     0.113 C
HETATM    3  C11 UNL     1      -5.929   0.169   3.850  1.00  0.00     0.179 C
HETATM    4  C12 UNL     1      -6.471   1.286   2.991  1.00  0.00    -0.043 C
HETATM    5  C13 UNL     1      -7.487   0.855   2.363  1.00  0.00     0.041 C
HETATM    6  C14 UNL     1      -7.790  -0.594   2.690  1.00  0.00     0.177 C
HETATM    7  N2  UNL     1      -6.840  -0.910   3.709  1.00  0.00    -0.306 N
HETATM    8  C24 UNL     1      -5.515   2.367   3.354  1.00  0.00     0.103 C
ENDROOT
BRANCH   7   9
HETATM    9  C16 UNL     1      -6.734  -2.132   4.401  1.00  0.00     0.196 C
BRANCH   9  10
HETATM   10  O8  UNL     1      -7.617  -2.267   5.354  1.00  0.00    -0.343 OA
ATOM     11  H8  UNL     1      -8.124  -3.068   5.290  1.00  0.00     0.219 HD
ENDBRANCH   9  10
BRANCH   9  12
HETATM   12  C17 UNL     1      -5.839  -3.230   4.229  1.00  0.00     0.212 C
BRANCH  12  13
HETATM   13  O9  UNL     1      -5.687  -3.942   3.093  1.00  0.00    -0.342 OA
ATOM     14  H9  UNL     1      -5.379  -3.595   2.265  1.00  0.00     0.219 HD
ENDBRANCH  12  13
BRANCH  12  15
HETATM   15  N3  UNL     1      -5.107  -3.575   5.260  1.00  0.00    -0.241 N
ATOM     16  H3  UNL     1      -4.654  -2.792   5.732  1.00  0.00     0.196 HD
BRANCH  15  17
HETATM   17  O10 UNL     1      -4.855  -4.736   5.791  1.00  0.00    -0.268 OA
BRANCH  17  18
HETATM   18  C18 UNL     1      -4.029  -5.287   6.725  1.00  0.00     0.207 C
BRANCH  18  19
HETATM   19  C19 UNL     1      -4.647  -6.354   7.595  1.00  0.00     0.043 C
BRANCH  19  20
HETATM   20  C20 UNL     1      -3.845  -6.735   8.789  1.00  0.00    -0.020 C
HETATM   21  C21 UNL     1      -3.458  -8.210   8.593  1.00  0.00     0.009 C
HETATM   22  C22 UNL     1      -4.634  -6.692  10.076  1.00  0.00     0.009 C
ENDBRANCH  19  20
ENDBRANCH  18  19
BRANCH  18  23
HETATM   23  C23 UNL     1      -3.361  -4.194   7.533  1.00  0.00     0.285 C
BRANCH  23  24
HETATM   24  O11 UNL     1      -4.237  -3.370   8.197  1.00  0.00    -0.369 OA
ATOM     25  H11 UNL     1      -4.425  -3.639   9.089  1.00  0.00     0.212 HD
ENDBRANCH  23  24
BRANCH  23  26
HETATM   26  O12 UNL     1      -2.659  -3.377   6.619  1.00  0.00    -0.369 OA
ATOM     27  H12 UNL     1      -1.737  -3.445   6.838  1.00  0.00     0.212 HD
ENDBRANCH  23  26
ENDBRANCH  18  23
ENDBRANCH  17  18
ENDBRANCH  15  17
ENDBRANCH  12  15
ENDBRANCH   9  12
ENDBRANCH   7   9
BRANCH   6  28
HETATM   28  O6  UNL     1      -9.070  -0.714   3.160  1.00  0.00    -0.365 OA
ATOM     29  H6  UNL     1      -9.512  -1.434   2.726  1.00  0.00     0.213 HD
ENDBRANCH   6  28
BRANCH   6  30
HETATM   30  C15 UNL     1      -7.566  -1.397   1.412  1.00  0.00     0.229 C
BRANCH  30  31
HETATM   31  O7  UNL     1      -8.605  -2.295   1.304  1.00  0.00    -0.396 OA
ATOM     32  H7  UNL     1      -8.462  -2.800   0.512  1.00  0.00     0.209 HD
ENDBRANCH  30  31
ENDBRANCH   6  30
BRANCH   2  33
HETATM   33  O2  UNL     1      -6.143   0.556   6.450  1.00  0.00    -0.274 OA
BRANCH  33  34
HETATM   34  C4  UNL     1      -5.340  -0.185   7.270  1.00  0.00     0.301 C
HETATM   35  O3  UNL     1      -4.427  -0.855   6.724  1.00  0.00    -0.259 OA
BRANCH  34  36
HETATM   36  C5  UNL     1      -5.475  -0.245   8.710  1.00  0.00     0.078 A
HETATM   37  C6  UNL     1      -6.676  -0.431   9.356  1.00  0.00     0.023 A
HETATM   38  C7  UNL     1      -6.792  -0.481  10.723  1.00  0.00     0.037 A
HETATM   39  C8  UNL     1      -5.667  -0.342  11.523  1.00  0.00     0.105 A
HETATM   40  C9  UNL     1      -4.456  -0.157  10.883  1.00  0.00     0.079 A
HETATM   41  C10 UNL     1      -4.361  -0.108   9.502  1.00  0.00     0.135 A
HETATM   42  F1  UNL     1      -3.110   0.078   8.971  1.00  0.00    -0.205 F
BRANCH  39  43
HETATM   43  N1  UNL     1      -5.775  -0.392  12.938  1.00  0.00    -0.116 N
HETATM   44  O4  UNL     1      -4.756  -0.460  13.638  1.00  0.00    -0.532 OA
HETATM   45  O5  UNL     1      -7.011  -0.359  13.523  1.00  0.00    -0.532 OA
ENDBRANCH  39  43
ENDBRANCH  34  36
ENDBRANCH  33  34
ENDBRANCH   2  33
BRANCH   1  46
HETATM   46  O1  UNL     1      -5.613   3.237   5.752  1.00  0.00    -0.357 OA
HETATM   47  C1  UNL     1      -5.304   4.562   5.349  1.00  0.00     0.209 C
ENDBRANCH   1  46
TORSDOF 20
ENDMDL