MODEL 1
REMARK VINA RESULT: -7.561894566      0.000      0.000
REMARK  12 active torsions:
REMARK  status: ('A' for Active; 'I' for Inactive)
REMARK    1  A    between atoms: O1_2  and  N1_3
REMARK    2  A    between atoms: C2_5  and  C3_6
REMARK    3  A    between atoms: C4_7  and  S1_8
REMARK    4  A    between atoms: S1_8  and  C5_9
REMARK    5  A    between atoms: C5_9  and  C6_10
REMARK       I    between atoms: N2_16  and  C10_17
REMARK       I    between atoms: C10_17  and  N3_19
REMARK    6  A    between atoms: N3_19  and  N4_21
REMARK    7  A    between atoms: N4_21  and  C11_23
REMARK    8  A    between atoms: C12_27  and  C13_28
REMARK    9  A    between atoms: C14_31  and  C15_32
REMARK   10  A    between atoms: C15_32  and  S3_33
REMARK   11  A    between atoms: S3_33  and  C16_34
REMARK   12  A    between atoms: C17_37  and  O5_38
ROOT
HETATM    1  C3  UNL     1      -7.012   0.535   5.369  1.00  0.00     0.024 C
HETATM    2  C4  UNL     1      -6.350  -0.370   6.122  1.00  0.00     0.090 C
HETATM    3  N2  UNL     1      -6.248  -1.600   5.359  1.00  0.00    -0.272 N
HETATM    4  C10 UNL     1      -5.260  -2.561   5.534  1.00  0.00     0.343 C
HETATM    5  O2  UNL     1      -4.186  -2.244   6.193  1.00  0.00    -0.245 OA
HETATM    6  N3  UNL     1      -5.278  -3.887   5.083  1.00  0.00    -0.250 N
ATOM      7  H3  UNL     1      -6.093  -4.226   4.571  1.00  0.00     0.192 HD
HETATM    8  C12 UNL     1      -7.334  -1.522   4.332  1.00  0.00     0.230 C
HETATM    9  C14 UNL     1      -7.180  -0.052   4.045  1.00  0.00    -0.004 C
ENDROOT
BRANCH   9  10
HETATM   10  C15 UNL     1      -7.125   0.586   2.904  1.00  0.00     0.064 C
BRANCH  10  11
HETATM   11  S3  UNL     1      -8.475   0.893   1.803  1.00  0.00    -0.064 SA
BRANCH  11  12
HETATM   12  C16 UNL     1      -9.798   1.783   2.597  1.00  0.00     0.168 A
HETATM   13  N6  UNL     1     -10.476   1.309   3.659  1.00  0.00    -0.301 N
HETATM   14  C17 UNL     1     -11.475   2.015   4.240  1.00  0.00     0.239 A
ATOM     15  H6  UNL     1     -10.231   0.394   4.036  1.00  0.00     0.171 HD
HETATM   16  N7  UNL     1     -11.775   3.218   3.720  1.00  0.00    -0.155 N
HETATM   17  C19 UNL     1     -11.124   3.730   2.660  1.00  0.00     0.682 A
ATOM     18  H7  UNL     1     -12.524   3.764   4.146  1.00  0.00     0.188 HD
HETATM   19  N8  UNL     1     -11.438   4.891   2.183  1.00  0.00    -0.234 N
HETATM   20  N9  UNL     1     -10.134   2.988   2.115  1.00  0.00    -0.166 N
ATOM     21  H82 UNL     1     -12.186   5.451   2.595  1.00  0.00     0.174 HD
ATOM     22  H81 UNL     1     -10.946   5.280   1.379  1.00  0.00     0.174 HD
HETATM   23  C20 UNL     1      -9.407   3.500   0.973  1.00  0.00     0.177 C
BRANCH  14  24
HETATM   24  O5  UNL     1     -12.177   1.528   5.336  1.00  0.00    -0.327 OA
HETATM   25  C18 UNL     1     -12.140   0.178   5.711  1.00  0.00     0.213 C
ENDBRANCH  14  24
ENDBRANCH  11  12
ENDBRANCH  10  11
ENDBRANCH   9  10
BRANCH   1  26
HETATM   26  C2  UNL     1      -7.453   1.874   5.821  1.00  0.00     0.128 C
HETATM   27  N1  UNL     1      -6.802   2.901   5.934  1.00  0.00    -0.278 N
ATOM     28  H1  UNL     1      -7.488   3.574   6.276  1.00  0.00     0.193 HD
BRANCH  27  29
HETATM   29  O1  UNL     1      -5.734   3.591   5.858  1.00  0.00    -0.286 OA
HETATM   30  C1  UNL     1      -4.393   3.186   5.660  1.00  0.00     0.237 C
ENDBRANCH  27  29
ENDBRANCH   1  26
BRANCH   8  31
HETATM   31  C13 UNL     1      -7.055  -2.299   3.129  1.00  0.00     0.202 C
HETATM   32  O3  UNL     1      -8.038  -2.938   2.594  1.00  0.00    -0.646 OA
HETATM   33  O4  UNL     1      -5.858  -2.430   2.476  1.00  0.00    -0.646 OA
ENDBRANCH   8  31
BRANCH   2  34
HETATM   34  S1  UNL     1      -5.898  -0.064   7.807  1.00  0.00    -0.106 SA
BRANCH  34  35
HETATM   35  C5  UNL     1      -7.232  -0.269   8.947  1.00  0.00     0.127 C
BRANCH  35  36
HETATM   36  C6  UNL     1      -6.751  -0.277  10.388  1.00  0.00    -0.005 A
HETATM   37  C7  UNL     1      -7.495  -0.323  11.528  1.00  0.00     0.019 A
HETATM   38  C8  UNL     1      -6.843  -0.317  12.697  1.00  0.00     0.051 A
HETATM   39  C9  UNL     1      -5.473  -0.263  12.650  1.00  0.00     0.157 A
HETATM   40  F1  UNL     1      -4.603  -0.247  13.719  1.00  0.00    -0.198 F
HETATM   41  S2  UNL     1      -5.150  -0.225  10.977  1.00  0.00    -0.064 SA
ENDBRANCH  35  36
ENDBRANCH  34  35
ENDBRANCH   2  34
BRANCH   6  42
HETATM   42  N4  UNL     1      -4.193  -4.769   5.318  1.00  0.00    -0.293 N
ATOM     43  H4  UNL     1      -3.415  -4.823   4.662  1.00  0.00     0.187 HD
BRANCH  42  44
HETATM   44  C11 UNL     1      -4.212  -5.581   6.493  1.00  0.00     0.190 C
HETATM   45  N5  UNL     1      -3.814  -5.031   7.580  1.00  0.00    -0.394 N
ATOM     46  H52 UNL     1      -3.502  -4.059   7.589  1.00  0.00     0.156 HD
ATOM     47  H51 UNL     1      -3.827  -5.611   8.419  1.00  0.00     0.156 HD
ENDBRANCH  42  44
ENDBRANCH   6  42
TORSDOF 12
ENDMDL