MODEL 5
REMARK VINA RESULT: -7.420544794      0.530      1.008
REMARK  16 active torsions:
REMARK  status: ('A' for Active; 'I' for Inactive)
REMARK    1  A    between atoms: O1_2  and  C2_3
REMARK    2  A    between atoms: C2_3  and  O2_4
REMARK    3  A    between atoms: C2_3  and  C3_6
REMARK    4  A    between atoms: C4_7  and  C5_8
REMARK    5  A    between atoms: C5_8  and  O4_10
REMARK    6  A    between atoms: C7_12  and  O5_13
REMARK    7  A    between atoms: O5_13  and  C8_14
REMARK    8  A    between atoms: C8_14  and  C9_15
REMARK    9  A    between atoms: C9_15  and  C10_16
REMARK   10  A    between atoms: C16_23  and  O6_24
REMARK   11  A    between atoms: O6_24  and  C17_25
REMARK   12  A    between atoms: C19_29  and  O7_30
REMARK   13  A    between atoms: C21_33  and  O8_34
REMARK   14  A    between atoms: C22_36  and  C23_37
REMARK   15  A    between atoms: C24_40  and  O11_41
REMARK   16  A    between atoms: C24_40  and  N2_43
ROOT
HETATM    1  C3  UNL     1      -2.512   1.573   5.794  1.00  0.00     0.054 C
HETATM    2  C4  UNL     1      -3.610   1.285   6.487  1.00  0.00     0.075 C
HETATM    3  C7  UNL     1      -3.482   0.460   7.786  1.00  0.00     0.184 C
HETATM    4  C16 UNL     1      -2.751  -0.714   7.334  1.00  0.00     0.218 C
HETATM    5  C21 UNL     1      -1.514   0.139   7.497  1.00  0.00     0.182 C
HETATM    6  C22 UNL     1      -1.257   0.881   6.260  1.00  0.00     0.076 C
HETATM    7  C24 UNL     1      -2.295   1.026   8.506  1.00  0.00     0.273 C
ENDROOT
BRANCH   3   8
HETATM    8  O5  UNL     1      -4.648   0.499   8.445  1.00  0.00    -0.366 OA
BRANCH   8   9
HETATM    9  C8  UNL     1      -5.338  -0.586   8.764  1.00  0.00     0.174 C
BRANCH   9  10
HETATM   10  C9  UNL     1      -6.725  -0.246   9.276  1.00  0.00     0.065 C
BRANCH  10  11
HETATM   11  C10 UNL     1      -6.880  -0.398  10.728  1.00  0.00    -0.056 A
HETATM   12  C11 UNL     1      -8.062  -0.653  11.338  1.00  0.00     0.010 A
HETATM   13  C12 UNL     1      -8.077  -0.766  12.738  1.00  0.00     0.043 A
HETATM   14  C13 UNL     1      -6.920  -0.622  13.465  1.00  0.00     0.116 A
HETATM   15  F1  UNL     1      -6.909  -0.727  14.815  1.00  0.00    -0.206 F
HETATM   16  C14 UNL     1      -5.715  -0.361  12.818  1.00  0.00     0.043 A
HETATM   17  C15 UNL     1      -5.699  -0.252  11.469  1.00  0.00     0.010 A
ENDBRANCH  10  11
ENDBRANCH   9  10
ENDBRANCH   8   9
ENDBRANCH   3   8
BRANCH   2  18
HETATM   18  C5  UNL     1      -4.955   1.717   6.118  1.00  0.00     0.293 C
HETATM   19  O3  UNL     1      -5.391   2.852   6.147  1.00  0.00    -0.259 OA
BRANCH  18  20
HETATM   20  O4  UNL     1      -5.923   0.774   5.652  1.00  0.00    -0.323 OA
HETATM   21  C6  UNL     1      -7.315   1.097   5.805  1.00  0.00     0.213 C
ENDBRANCH  18  20
ENDBRANCH   2  18
BRANCH   4  22
HETATM   22  O6  UNL     1      -2.791  -1.908   8.062  1.00  0.00    -0.337 OA
BRANCH  22  23
HETATM   23  C17 UNL     1      -3.200  -3.140   7.598  1.00  0.00     0.089 A
HETATM   24  C18 UNL     1      -3.506  -4.290   8.277  1.00  0.00     0.127 A
HETATM   25  N1  UNL     1      -3.853  -5.225   7.390  1.00  0.00    -0.344 N
HETATM   26  C19 UNL     1      -3.784  -4.721   6.151  1.00  0.00     0.142 A
ATOM     27  H1  UNL     1      -4.128  -6.179   7.621  1.00  0.00     0.167 HD
HETATM   28  C20 UNL     1      -3.376  -3.412   6.257  1.00  0.00     0.094 A
BRANCH  26  29
HETATM   29  O7  UNL     1      -4.073  -5.397   4.954  1.00  0.00    -0.346 OA
ATOM     30  H7  UNL     1      -3.543  -5.408   4.166  1.00  0.00     0.219 HD
ENDBRANCH  26  29
ENDBRANCH  22  23
ENDBRANCH   4  22
BRANCH   7  31
HETATM   31  O11 UNL     1      -2.112   2.349   8.349  1.00  0.00    -0.355 OA
HETATM   32  C25 UNL     1      -1.944   3.201   9.354  1.00  0.00     0.205 C
ENDBRANCH   7  31
BRANCH   7  33
HETATM   33  N2  UNL     1      -1.938   0.631   9.840  1.00  0.00    -0.110 N
HETATM   34  O12 UNL     1      -0.809   0.841  10.320  1.00  0.00    -0.534 OA
HETATM   35  O13 UNL     1      -2.745  -0.019  10.746  1.00  0.00    -0.534 OA
ENDBRANCH   7  33
BRANCH   1  36
HETATM   36  C2  UNL     1      -2.444   2.360   4.588  1.00  0.00     0.190 C
BRANCH  36  37
HETATM   37  O1  UNL     1      -2.279   2.009   3.278  1.00  0.00    -0.335 OA
HETATM   38  C1  UNL     1      -1.058   2.236   2.545  1.00  0.00     0.212 C
ENDBRANCH  36  37
BRANCH  36  39
HETATM   39  O2  UNL     1      -2.552   3.667   4.676  1.00  0.00    -0.340 OA
ATOM     40  H2  UNL     1      -1.760   4.021   5.063  1.00  0.00     0.220 HD
ENDBRANCH  36  39
ENDBRANCH   1  36
BRANCH   5  41
HETATM   41  O8  UNL     1      -0.443  -0.478   8.111  1.00  0.00    -0.377 OA
ATOM     42  H8  UNL     1      -0.578  -1.388   8.350  1.00  0.00     0.211 HD
ENDBRANCH   5  41
BRANCH   6  43
HETATM   43  C23 UNL     1       0.021   1.569   6.145  1.00  0.00     0.209 C
HETATM   44  O9  UNL     1       1.178   0.926   6.476  1.00  0.00    -0.644 OA
HETATM   45  O10 UNL     1      -0.038   2.923   6.369  1.00  0.00    -0.644 OA
ENDBRANCH   6  43
TORSDOF 16
ENDMDL