MODEL 4
REMARK VINA RESULT: -7.763783267      4.852      7.911
REMARK  16 active torsions:
REMARK  status: ('A' for Active; 'I' for Inactive)
REMARK    1  A    between atoms: C3_5  and  N2_6
REMARK    2  A    between atoms: N2_6  and  C4_8
REMARK    3  A    between atoms: C7_11  and  O1_12
REMARK    4  A    between atoms: O1_12  and  C8_13
REMARK    5  A    between atoms: N3_16  and  O2_17
REMARK    6  A    between atoms: C12_20  and  C13_21
REMARK    7  A    between atoms: C13_21  and  O3_22
REMARK    8  A    between atoms: N5_28  and  C16_29
REMARK    9  A    between atoms: C16_29  and  C17_30
REMARK   10  A    between atoms: C16_29  and  C18_33
REMARK   11  A    between atoms: C17_30  and  O4_31
REMARK   12  A    between atoms: C18_33  and  N6_34
REMARK   13  A    between atoms: C19_36  and  C20_37
REMARK   14  A    between atoms: C20_37  and  O5_38
REMARK   15  A    between atoms: C20_37  and  N7_40
REMARK   16  A    between atoms: N7_40  and  C21_42
ROOT
HETATM    1  C21 UNL     1      -6.537  -1.889   4.512  1.00  0.00     0.684 A
HETATM    2  N8  UNL     1      -7.325  -2.410   3.582  1.00  0.00    -0.166 N
ATOM      3  H8  UNL     1      -8.048  -1.833   3.152  1.00  0.00     0.186 HD
HETATM    4  C22 UNL     1      -7.182  -3.686   3.199  1.00  0.00     0.205 A
HETATM    5  C23 UNL     1      -8.055  -4.222   2.185  1.00  0.00     0.137 C
HETATM    6  N9  UNL     1      -8.770  -4.636   1.367  1.00  0.00    -0.188 NA
HETATM    7  N10 UNL     1      -6.215  -4.441   3.780  1.00  0.00    -0.309 N
ATOM      8  H10 UNL     1      -6.093  -5.414   3.500  1.00  0.00     0.170 HD
HETATM    9  C24 UNL     1      -5.416  -3.913   4.723  1.00  0.00     0.195 A
HETATM   10 CL1  UNL     1      -4.150  -4.883   5.492  1.00  0.00    -0.044 Cl
HETATM   11  N11 UNL     1      -5.585  -2.629   5.084  1.00  0.00    -0.166 N
ATOM     12  H11 UNL     1      -4.984  -2.220   5.799  1.00  0.00     0.186 HD
ENDROOT
BRANCH   1  13
HETATM   13  N7  UNL     1      -6.681  -0.672   4.870  1.00  0.00    -0.195 N
ATOM     14  H7  UNL     1      -6.217   0.077   4.357  1.00  0.00     0.180 HD
BRANCH  13  15
HETATM   15  C20 UNL     1      -7.514  -0.370   6.015  1.00  0.00     0.274 C
BRANCH  15  16
HETATM   16  C19 UNL     1      -6.981   0.783   6.767  1.00  0.00     0.109 C
HETATM   17  N6  UNL     1      -6.283   0.590   7.812  1.00  0.00    -0.396 N
ATOM     18  H6  UNL     1      -5.915   1.387   8.331  1.00  0.00     0.158 HD
BRANCH  17  19
HETATM   19  C18 UNL     1      -6.012  -0.737   8.261  1.00  0.00     0.148 C
BRANCH  19  20
HETATM   20  C16 UNL     1      -5.302  -0.755   9.589  1.00  0.00     0.151 C
BRANCH  20  21
HETATM   21  N5  UNL     1      -4.048  -0.059   9.540  1.00  0.00    -0.257 N
HETATM   22  C2  UNL     1      -3.003  -0.300   8.756  1.00  0.00     0.111 A
HETATM   23  C1  UNL     1      -2.764  -1.302   7.713  1.00  0.00     0.091 C
HETATM   24  N1  UNL     1      -2.055   0.626   9.084  1.00  0.00    -0.178 N
HETATM   25  C3  UNL     1      -2.516   1.415  10.049  1.00  0.00     0.698 A
ATOM     26  H1  UNL     1      -1.133   0.701   8.653  1.00  0.00     0.185 HD
HETATM   27  N4  UNL     1      -3.746   0.986  10.326  1.00  0.00    -0.128 N
ATOM     28  H4  UNL     1      -4.364   1.390  11.029  1.00  0.00     0.206 HD
BRANCH  25  29
HETATM   29  N2  UNL     1      -1.830   2.384  10.559  1.00  0.00    -0.190 N
ATOM     30  H2  UNL     1      -2.050   3.339  10.276  1.00  0.00     0.184 HD
BRANCH  29  31
HETATM   31  C4  UNL     1      -0.776   2.175  11.502  1.00  0.00     0.049 A
HETATM   32  C5  UNL     1      -0.316   0.896  11.765  1.00  0.00     0.033 A
HETATM   33  C6  UNL     1       0.710   0.656  12.679  1.00  0.00     0.039 A
HETATM   34  C7  UNL     1       1.267   1.737  13.327  1.00  0.00     0.076 A
HETATM   35  C14 UNL     1       0.805   3.007  13.061  1.00  0.00     0.039 A
HETATM   36  C15 UNL     1      -0.214   3.247  12.154  1.00  0.00     0.033 A
BRANCH  34  37
HETATM   37  O1  UNL     1       2.289   1.593  14.251  1.00  0.00    -0.310 OA
BRANCH  37  38
HETATM   38  C8  UNL     1       2.003   1.120  15.521  1.00  0.00     0.087 A
HETATM   39  C9  UNL     1       1.275   1.872  16.427  1.00  0.00     0.057 A
HETATM   40  C10 UNL     1       0.989   1.401  17.694  1.00  0.00     0.125 A
HETATM   41  N3  UNL     1       1.428   0.187  18.049  1.00  0.00    -0.246 N
HETATM   42  C11 UNL     1       2.147  -0.588  17.194  1.00  0.00     0.134 A
HETATM   43  C12 UNL     1       2.445  -0.126  15.908  1.00  0.00     0.017 A
BRANCH  41  44
HETATM   44  O2  UNL     1       1.181  -0.353  19.302  1.00  0.00    -0.284 OA
ATOM     45  H2  UNL     1       1.736  -1.023  19.684  1.00  0.00     0.245 HD
ENDBRANCH  41  44
BRANCH  43  46
HETATM   46  C13 UNL     1       3.224  -0.932  14.938  1.00  0.00     0.207 C
BRANCH  46  47
HETATM   47  O3  UNL     1       2.474  -1.997  14.453  1.00  0.00    -0.396 OA
ATOM     48  H3  UNL     1       2.623  -2.783  14.964  1.00  0.00     0.209 HD
ENDBRANCH  46  47
ENDBRANCH  43  46
ENDBRANCH  37  38
ENDBRANCH  34  37
ENDBRANCH  29  31
ENDBRANCH  25  29
ENDBRANCH  20  21
BRANCH  20  49
HETATM   49  C17 UNL     1      -6.165  -0.309  10.738  1.00  0.00     0.193 C
BRANCH  49  50
HETATM   50  O4  UNL     1      -7.521  -0.281  10.319  1.00  0.00    -0.399 OA
ATOM     51  H4  UNL     1      -7.762   0.612  10.098  1.00  0.00     0.209 HD
ENDBRANCH  49  50
ENDBRANCH  20  49
ENDBRANCH  19  20
ENDBRANCH  17  19
ENDBRANCH  15  16
BRANCH  15  52
HETATM   52  O5  UNL     1      -8.792  -0.081   5.479  1.00  0.00    -0.371 OA
ATOM     53  H5  UNL     1      -9.058  -0.746   4.855  1.00  0.00     0.212 HD
ENDBRANCH  15  52
ENDBRANCH  13  15
ENDBRANCH   1  13
TORSDOF 16
ENDMDL