MODEL 2
REMARK VINA RESULT: -6.760957222      1.174      1.368
REMARK  15 active torsions:
REMARK  status: ('A' for Active; 'I' for Inactive)
REMARK    1  A    between atoms: O1_2  and  N1_3
REMARK       I    between atoms: N1_3  and  C2_5
REMARK    2  A    between atoms: C2_5  and  C3_7
REMARK    3  A    between atoms: C4_8  and  N2_9
REMARK    4  A    between atoms: N2_9  and  C5_11
REMARK    5  A    between atoms: C5_11  and  C6_12
REMARK    6  A    between atoms: C6_12  and  N3_13
REMARK    7  A    between atoms: C6_12  and  C12_22
REMARK       I    between atoms: N3_13  and  C7_15
REMARK    8  A    between atoms: C7_15  and  O4_17
REMARK    9  A    between atoms: O4_17  and  C8_18
REMARK   10  A    between atoms: C12_22  and  O6_24
REMARK   11  A    between atoms: C17_35  and  C18_36
REMARK   12  A    between atoms: C18_36  and  O7_37
REMARK   13  A    between atoms: C18_36  and  N7_39
REMARK       I    between atoms: N7_39  and  C19_41
REMARK   14  A    between atoms: C19_41  and  C20_43
REMARK   15  A    between atoms: C20_43  and  O9_46
ROOT
HETATM    1  C3  UNL     1      -3.688   0.344  10.268  1.00  0.00     0.124 A
HETATM    2  C4  UNL     1      -3.852  -0.389   9.113  1.00  0.00     0.136 A
HETATM    3  N4  UNL     1      -3.201   0.328   8.145  1.00  0.00    -0.280 N
ATOM      4  H4  UNL     1      -3.136   0.051   7.165  1.00  0.00     0.189 HD
HETATM    5  N5  UNL     1      -2.668   1.431   8.652  1.00  0.00    -0.263 N
HETATM    6  C14 UNL     1      -2.946   1.477   9.968  1.00  0.00     0.142 A
HETATM    7  N6  UNL     1      -2.437   2.521  10.772  1.00  0.00    -0.352 N
ATOM      8  H6  UNL     1      -2.662   2.550  11.766  1.00  0.00     0.166 HD
HETATM    9  C15 UNL     1      -1.701   3.424  10.265  1.00  0.00     0.085 C
HETATM   10  C16 UNL     1      -1.321   3.458   8.856  1.00  0.00     0.149 C
HETATM   11 CL1  UNL     1       0.460   3.041   8.865  1.00  0.00    -0.117 Cl
HETATM   12  C17 UNL     1      -1.958   2.495   7.971  1.00  0.00     0.182 C
ENDROOT
BRANCH   2  13
HETATM   13  N2  UNL     1      -4.528  -1.621   8.895  1.00  0.00    -0.372 N
ATOM     14  H2  UNL     1      -5.522  -1.717   9.105  1.00  0.00     0.161 HD
BRANCH  13  15
HETATM   15  C5  UNL     1      -3.773  -2.728   8.371  1.00  0.00     0.156 C
BRANCH  15  16
HETATM   16  C6  UNL     1      -3.684  -2.762   6.863  1.00  0.00     0.204 C
BRANCH  16  17
HETATM   17  N3  UNL     1      -5.011  -2.351   6.356  1.00  0.00    -0.321 N
HETATM   18  C7  UNL     1      -5.152  -1.136   5.639  1.00  0.00     0.362 C
HETATM   19  O3  UNL     1      -4.199  -0.364   5.399  1.00  0.00    -0.238 OA
ATOM     20  H3  UNL     1      -5.826  -2.942   6.523  1.00  0.00     0.165 HD
BRANCH  18  21
HETATM   21  O4  UNL     1      -6.403  -0.783   5.183  1.00  0.00    -0.294 OA
BRANCH  21  22
HETATM   22  C8  UNL     1      -7.221   0.186   5.775  1.00  0.00     0.061 C
HETATM   23  C9  UNL     1      -6.945   0.338   7.258  1.00  0.00     0.046 C
HETATM   24  C10 UNL     1      -8.663  -0.254   5.628  1.00  0.00     0.046 C
HETATM   25  C11 UNL     1      -7.091   1.555   5.162  1.00  0.00     0.046 C
ENDBRANCH  21  22
ENDBRANCH  18  21
ENDBRANCH  16  17
BRANCH  16  26
HETATM   26  C12 UNL     1      -3.460  -4.159   6.445  1.00  0.00     0.283 C
HETATM   27  O5  UNL     1      -2.332  -4.512   6.048  1.00  0.00    -0.263 OA
BRANCH  26  28
HETATM   28  O6  UNL     1      -4.480  -5.073   6.488  1.00  0.00    -0.325 OA
HETATM   29  C13 UNL     1      -4.378  -6.169   7.378  1.00  0.00     0.213 C
ENDBRANCH  26  28
ENDBRANCH  16  26
ENDBRANCH  15  16
ENDBRANCH  13  15
ENDBRANCH   2  13
BRANCH   1  30
HETATM   30  C2  UNL     1      -4.221  -0.029  11.589  1.00  0.00     0.282 C
HETATM   31  N1  UNL     1      -5.563  -0.356  11.849  1.00  0.00    -0.231 N
ATOM     32  H1  UNL     1      -6.246  -0.345  11.093  1.00  0.00     0.197 HD
HETATM   33  O2  UNL     1      -3.440  -0.071  12.601  1.00  0.00    -0.265 OA
BRANCH  31  34
HETATM   34  O1  UNL     1      -5.947  -0.684  13.098  1.00  0.00    -0.282 OA
HETATM   35  C1  UNL     1      -7.318  -0.438  13.176  1.00  0.00     0.237 C
ENDBRANCH  31  34
ENDBRANCH   1  30
BRANCH  12  36
HETATM   36  C18 UNL     1      -1.080   1.922   6.865  1.00  0.00     0.247 C
BRANCH  36  37
HETATM   37  O7  UNL     1      -0.871   0.567   7.280  1.00  0.00    -0.374 OA
ATOM     38  H7  UNL     1      -0.349   0.201   6.576  1.00  0.00     0.212 HD
ENDBRANCH  36  37
BRANCH  36  39
HETATM   39  N7  UNL     1      -1.766   1.834   5.618  1.00  0.00    -0.330 N
HETATM   40  C19 UNL     1      -1.186   1.829   4.330  1.00  0.00     0.253 C
HETATM   41  O8  UNL     1       0.058   1.902   4.212  1.00  0.00    -0.270 OA
ATOM     42  H7  UNL     1      -2.783   1.768   5.661  1.00  0.00     0.165 HD
BRANCH  40  43
HETATM   43  C20 UNL     1      -2.009   1.739   3.109  1.00  0.00     0.131 C
HETATM   44  C21 UNL     1      -1.223   1.129   1.967  1.00  0.00     0.056 C
HETATM   45  C22 UNL     1      -2.398   3.176   2.747  1.00  0.00     0.056 C
BRANCH  43  46
HETATM   46  O9  UNL     1      -3.170   1.028   3.287  1.00  0.00    -0.381 OA
ATOM     47  H9  UNL     1      -3.713   1.364   3.990  1.00  0.00     0.211 HD
ENDBRANCH  43  46
ENDBRANCH  40  43
ENDBRANCH  36  39
ENDBRANCH  12  36
TORSDOF 15
ENDMDL