MODEL 2
REMARK VINA RESULT: -7.407884576      4.241      5.913
REMARK  16 active torsions:
REMARK  status: ('A' for Active; 'I' for Inactive)
REMARK    1  A    between atoms: C2_2  and  O1_4
REMARK    2  A    between atoms: O1_4  and  C4_5
REMARK    3  A    between atoms: C4_5  and  C5_6
REMARK    4  A    between atoms: C5_6  and  O3_8
REMARK    5  A    between atoms: O3_8  and  C6_9
REMARK    6  A    between atoms: C7_10  and  C8_11
REMARK    7  A    between atoms: C9_12  and  C10_13
REMARK    8  A    between atoms: C14_19  and  O4_20
REMARK    9  A    between atoms: O4_20  and  C15_21
REMARK   10  A    between atoms: C18_25  and  O6_26
REMARK   11  A    between atoms: O6_26  and  C19_27
REMARK   12  A    between atoms: C21_30  and  O8_31
REMARK   13  A    between atoms: C22_33  and  O9_34
REMARK   14  A    between atoms: C23_36  and  O10_37
REMARK   15  A    between atoms: C24_39  and  O11_40
REMARK   16  A    between atoms: C25_42  and  O12_43
ROOT
HETATM    1  C6  UNL     1      -3.114   0.055  11.170  1.00  0.00     0.170 C
HETATM    2  C7  UNL     1      -2.123   1.142  11.408  1.00  0.00     0.041 C
HETATM    3  C11 UNL     1      -2.158   2.270  10.411  1.00  0.00     0.033 C
HETATM    4  C12 UNL     1      -1.959   1.707   9.007  1.00  0.00     0.125 C
HETATM    5  C13 UNL     1      -1.884   2.861   8.122  1.00  0.00     0.066 C
HETATM    6  N1  UNL     1      -1.805   3.801   7.423  1.00  0.00    -0.197 NA
HETATM    7  C14 UNL     1      -3.159   0.859   8.747  1.00  0.00     0.173 C
HETATM    8  C25 UNL     1      -3.290  -0.277   9.722  1.00  0.00     0.178 C
ENDROOT
BRANCH   7   9
HETATM    9  O4  UNL     1      -3.193   0.313   7.481  1.00  0.00    -0.349 OA
BRANCH   9  10
HETATM   10  C15 UNL     1      -4.096   0.977   6.696  1.00  0.00     0.292 C
HETATM   11  O5  UNL     1      -5.329   1.154   7.324  1.00  0.00    -0.351 OA
HETATM   12  C16 UNL     1      -6.268   0.419   6.623  1.00  0.00     0.152 C
HETATM   13  C17 UNL     1      -7.659   0.957   6.704  1.00  0.00     0.042 C
HETATM   14  C18 UNL     1      -5.796   0.472   5.160  1.00  0.00     0.187 C
HETATM   15  C24 UNL     1      -4.313   0.310   5.379  1.00  0.00     0.204 C
BRANCH  14  16
HETATM   16  O6  UNL     1      -6.269  -0.592   4.454  1.00  0.00    -0.348 OA
BRANCH  16  17
HETATM   17  C19 UNL     1      -7.250  -0.338   3.539  1.00  0.00     0.291 C
HETATM   18  O7  UNL     1      -8.243  -1.285   3.720  1.00  0.00    -0.356 OA
HETATM   19  C20 UNL     1      -7.720  -2.528   3.348  1.00  0.00     0.205 C
HETATM   20  C21 UNL     1      -7.708  -2.561   1.828  1.00  0.00     0.173 C
HETATM   21  C22 UNL     1      -7.749  -1.143   1.285  1.00  0.00     0.182 C
HETATM   22  C23 UNL     1      -6.871  -0.227   2.131  1.00  0.00     0.204 C
BRANCH  20  23
HETATM   23  O8  UNL     1      -8.875  -3.197   1.426  1.00  0.00    -0.391 OA
ATOM     24  H8  UNL     1      -8.688  -3.622   0.597  1.00  0.00     0.210 HD
ENDBRANCH  20  23
BRANCH  21  25
HETATM   25  O9  UNL     1      -9.050  -0.670   1.169  1.00  0.00    -0.390 OA
ATOM     26  H9  UNL     1      -9.160   0.171   1.596  1.00  0.00     0.210 HD
ENDBRANCH  21  25
BRANCH  22  27
HETATM   27  O10 UNL     1      -5.551  -0.670   1.868  1.00  0.00    -0.388 OA
ATOM     28  H10 UNL     1      -5.483  -1.211   1.091  1.00  0.00     0.210 HD
ENDBRANCH  22  27
ENDBRANCH  16  17
ENDBRANCH  14  16
BRANCH  15  29
HETATM   29  O11 UNL     1      -4.060  -1.072   5.452  1.00  0.00    -0.388 OA
ATOM     30  H11 UNL     1      -4.753  -1.529   5.914  1.00  0.00     0.210 HD
ENDBRANCH  15  29
ENDBRANCH   9  10
ENDBRANCH   7   9
BRANCH   2  31
HETATM   31  C8  UNL     1      -0.715   0.722  11.521  1.00  0.00    -0.022 C
HETATM   32  C9  UNL     1       0.200   1.194  12.318  1.00  0.00    -0.015 C
BRANCH  32  33
HETATM   33  C10 UNL     1       1.590   0.616  12.270  1.00  0.00     0.141 C
HETATM   34 CL1  UNL     1       1.985  -0.205  13.798  1.00  0.00    -0.126 Cl
ENDBRANCH  32  33
ENDBRANCH   2  31
BRANCH   8  35
HETATM   35  O12 UNL     1      -4.535  -0.927   9.580  1.00  0.00    -0.390 OA
ATOM     36  H12 UNL     1      -4.932  -0.616   8.775  1.00  0.00     0.210 HD
ENDBRANCH   8  35
BRANCH   1  37
HETATM   37  O3  UNL     1      -4.406   0.351  11.634  1.00  0.00    -0.311 OA
BRANCH  37  38
HETATM   38  C5  UNL     1      -4.982  -0.290  12.718  1.00  0.00     0.283 C
HETATM   39  O2  UNL     1      -4.207  -1.083  13.301  1.00  0.00    -0.263 OA
BRANCH  38  40
HETATM   40  C4  UNL     1      -6.391  -0.029  13.114  1.00  0.00     0.279 C
BRANCH  40  41
HETATM   41  O1  UNL     1      -7.179   0.435  12.106  1.00  0.00    -0.377 OA
BRANCH  41  42
HETATM   42  C2  UNL     1      -7.671  -0.478  11.218  1.00  0.00     0.114 C
HETATM   43  C1  UNL     1      -8.737  -1.310  11.868  1.00  0.00     0.039 C
HETATM   44  C3  UNL     1      -8.325   0.281  10.039  1.00  0.00     0.039 C
ENDBRANCH  41  42
ENDBRANCH  40  41
ENDBRANCH  38  40
ENDBRANCH  37  38
ENDBRANCH   1  37
TORSDOF 16
ENDMDL