MODEL 4
REMARK VINA RESULT: -7.442962152      6.008     11.780
REMARK  16 active torsions:
REMARK  status: ('A' for Active; 'I' for Inactive)
REMARK    1  A    between atoms: O1_2  and  C2_3
REMARK    2  A    between atoms: C4_6  and  C5_7
REMARK    3  A    between atoms: C7_11  and  O5_12
REMARK    4  A    between atoms: O5_12  and  C8_13
REMARK    5  A    between atoms: C9_15  and  S1_16
REMARK    6  A    between atoms: S1_16  and  C10_17
REMARK    7  A    between atoms: C10_17  and  C11_18
REMARK    8  A    between atoms: C12_19  and  C14_21
REMARK    9  A    between atoms: C14_21  and  C16_23
REMARK   10  A    between atoms: C16_23  and  C17_24
REMARK   11  A    between atoms: C17_24  and  C19_26
REMARK   12  A    between atoms: C20_29  and  O9_30
REMARK   13  A    between atoms: C21_32  and  O10_33
REMARK   14  A    between atoms: C22_35  and  O11_36
REMARK   15  A    between atoms: C24_40  and  O13_41
REMARK   16  A    between atoms: C25_43  and  O14_44
ROOT
HETATM    1  C8  UNL     1       0.589   0.716  12.340  1.00  0.00     0.295 C
HETATM    2  O6  UNL     1      -0.765   0.555  12.142  1.00  0.00    -0.340 OA
HETATM    3  C9  UNL     1      -1.271   1.179  11.048  1.00  0.00     0.217 C
HETATM    4  C20 UNL     1      -0.792   2.534  10.676  1.00  0.00     0.188 C
HETATM    5  C21 UNL     1       0.624   2.793  11.054  1.00  0.00     0.183 C
HETATM    6  C22 UNL     1       0.937   2.187  12.383  1.00  0.00     0.204 C
ENDROOT
BRANCH   1   7
HETATM    7  O5  UNL     1       1.002   0.143  13.563  1.00  0.00    -0.326 OA
BRANCH   7   8
HETATM    8  C7  UNL     1       2.312  -0.259  13.427  1.00  0.00     0.300 C
HETATM    9  O4  UNL     1       2.443  -1.561  13.941  1.00  0.00    -0.326 OA
HETATM   10  C6  UNL     1       3.196  -1.126  15.023  1.00  0.00     0.300 C
HETATM   11  O3  UNL     1       2.520  -0.928  16.225  1.00  0.00    -0.325 OA
HETATM   12  C23 UNL     1       3.279   0.286  14.451  1.00  0.00     0.235 C
HETATM   13  C5  UNL     1       2.961   0.345  16.584  1.00  0.00     0.299 C
HETATM   14  O12 UNL     1       2.769   1.089  15.440  1.00  0.00    -0.342 OA
BRANCH  13  15
HETATM   15  C4  UNL     1       2.223   0.892  17.774  1.00  0.00     0.027 C
HETATM   16  C3  UNL     1       1.876   2.167  17.869  1.00  0.00     0.148 C
HETATM   17  O2  UNL     1       1.196   2.650  18.969  1.00  0.00    -0.329 OA
HETATM   18  C2  UNL     1       1.575   2.135  20.255  1.00  0.00     0.295 C
HETATM   19  C25 UNL     1       1.914   0.700  20.254  1.00  0.00     0.206 C
HETATM   20  C24 UNL     1       1.856   0.003  18.916  1.00  0.00     0.187 C
BRANCH  18  21
HETATM   21  O1  UNL     1       0.575   2.513  21.153  1.00  0.00    -0.363 OA
HETATM   22  C1  UNL     1      -0.151   3.600  20.714  1.00  0.00     0.204 C
ENDBRANCH  18  21
BRANCH  19  23
HETATM   23  O14 UNL     1       3.236   0.510  20.732  1.00  0.00    -0.388 OA
ATOM     24  H14 UNL     1       3.651  -0.209  20.270  1.00  0.00     0.210 HD
ENDBRANCH  19  23
BRANCH  20  25
HETATM   25  O13 UNL     1       0.587  -0.489  18.680  1.00  0.00    -0.388 OA
ATOM     26  H13 UNL     1       0.512  -1.328  19.119  1.00  0.00     0.210 HD
ENDBRANCH  20  25
ENDBRANCH  13  15
ENDBRANCH   7   8
ENDBRANCH   1   7
BRANCH   6  27
HETATM   27  O11 UNL     1       0.095   2.797  13.334  1.00  0.00    -0.388 OA
ATOM     28  H11 UNL     1       0.444   3.663  13.514  1.00  0.00     0.210 HD
ENDBRANCH   6  27
BRANCH   3  29
HETATM   29  S1  UNL     1      -3.068   1.186  11.049  1.00  0.00    -0.131 SA
BRANCH  29  30
HETATM   30  C10 UNL     1      -3.858  -0.296  11.600  1.00  0.00     0.104 C
BRANCH  30  31
HETATM   31  C11 UNL     1      -4.972  -0.197  12.551  1.00  0.00    -0.014 C
HETATM   32  C12 UNL     1      -6.238  -0.407  12.291  1.00  0.00    -0.083 C
HETATM   33  C13 UNL     1      -7.209  -0.236  13.457  1.00  0.00     0.043 C
BRANCH  32  34
HETATM   34  C14 UNL     1      -6.820  -0.786  10.982  1.00  0.00     0.010 C
HETATM   35  C15 UNL     1      -8.290  -0.364  11.017  1.00  0.00     0.015 C
BRANCH  34  36
HETATM   36  C16 UNL     1      -6.088  -0.052   9.894  1.00  0.00     0.023 C
BRANCH  36  37
HETATM   37  C17 UNL     1      -5.984  -0.762   8.584  1.00  0.00     0.083 C
HETATM   38  C18 UNL     1      -6.012   0.376   7.527  1.00  0.00     0.021 C
BRANCH  37  39
HETATM   39  C19 UNL     1      -4.742  -1.511   8.316  1.00  0.00     0.176 C
HETATM   40  O7  UNL     1      -4.829  -2.793   8.299  1.00  0.00    -0.648 OA
HETATM   41  O8  UNL     1      -3.513  -0.951   8.087  1.00  0.00    -0.648 OA
ENDBRANCH  37  39
ENDBRANCH  36  37
ENDBRANCH  34  36
ENDBRANCH  32  34
ENDBRANCH  30  31
ENDBRANCH  29  30
ENDBRANCH   3  29
BRANCH   5  42
HETATM   42  O10 UNL     1       0.886   4.171  11.051  1.00  0.00    -0.390 OA
ATOM     43  H10 UNL     1       1.674   4.357  10.555  1.00  0.00     0.210 HD
ENDBRANCH   5  42
BRANCH   4  44
HETATM   44  O9  UNL     1      -1.673   3.543  11.086  1.00  0.00    -0.389 OA
ATOM     45  H9  UNL     1      -1.311   4.413  10.961  1.00  0.00     0.210 HD
ENDBRANCH   4  44
TORSDOF 16
ENDMDL