MODEL 1
REMARK VINA RESULT: -7.258214668      0.000      0.000
REMARK  15 active torsions:
REMARK  status: ('A' for Active; 'I' for Inactive)
REMARK    1  A    between atoms: C3_4  and  C4_5
REMARK    2  A    between atoms: C4_5  and  O2_6
REMARK    3  A    between atoms: O2_6  and  C5_7
REMARK    4  A    between atoms: C6_8  and  O3_9
REMARK    5  A    between atoms: O3_9  and  C7_10
REMARK    6  A    between atoms: C10_14  and  N1_15
REMARK    7  A    between atoms: C12_20  and  N2_21
REMARK    8  A    between atoms: C13_26  and  C14_27
REMARK    9  A    between atoms: C14_27  and  O6_28
REMARK   10  A    between atoms: C15_30  and  O7_31
REMARK   11  A    between atoms: O7_31  and  C16_32
REMARK   12  A    between atoms: C19_36  and  O9_37
REMARK   13  A    between atoms: O9_37  and  C20_38
REMARK   14  A    between atoms: C25_44  and  O11_45
REMARK   15  A    between atoms: C27_48  and  N3_49
ROOT
HETATM    1  C5  UNL     1      -3.399  -0.312   8.792  1.00  0.00     0.208 C
HETATM    2  C6  UNL     1      -2.306   0.473   8.035  1.00  0.00     0.295 C
HETATM    3  O5  UNL     1      -2.998   1.566   7.491  1.00  0.00    -0.348 OA
HETATM    4  C13 UNL     1      -3.564   1.049   6.299  1.00  0.00     0.180 C
HETATM    5  C15 UNL     1      -4.575  -0.001   6.597  1.00  0.00     0.187 C
HETATM    6  C25 UNL     1      -4.701  -0.310   8.075  1.00  0.00     0.183 C
ENDROOT
BRANCH   2   7
HETATM    7  O3  UNL     1      -1.323   0.815   8.900  1.00  0.00    -0.327 OA
BRANCH   7   8
HETATM    8  C7  UNL     1      -0.891   2.121   8.878  1.00  0.00     0.293 C
HETATM    9  O4  UNL     1       0.444   2.300   8.645  1.00  0.00    -0.352 OA
HETATM   10  C8  UNL     1       0.704   3.513   8.021  1.00  0.00     0.151 C
HETATM   11  C9  UNL     1       2.181   3.844   8.151  1.00  0.00     0.042 C
HETATM   12  C10 UNL     1      -0.191   4.546   8.632  1.00  0.00     0.214 C
HETATM   13  C11 UNL     1      -0.536   4.215  10.076  1.00  0.00     0.073 C
HETATM   14  C12 UNL     1      -1.216   2.862  10.168  1.00  0.00     0.240 C
BRANCH  12  15
HETATM   15  N1  UNL     1       0.470   5.820   8.596  1.00  0.00    -0.072 N
ATOM     16  H13 UNL     1       0.508   6.262   9.515  1.00  0.00     0.274 HD
ATOM     17  H12 UNL     1       1.473   5.732   8.437  1.00  0.00     0.274 HD
ATOM     18  H11 UNL     1       0.018   6.411   7.900  1.00  0.00     0.274 HD
ENDBRANCH  12  15
BRANCH  14  19
HETATM   19  N2  UNL     1      -2.643   3.115  10.283  1.00  0.00    -0.070 N
ATOM     20  H23 UNL     1      -2.931   3.907   9.710  1.00  0.00     0.274 HD
ATOM     21  H22 UNL     1      -3.191   2.385   9.828  1.00  0.00     0.274 HD
ATOM     22  H21 UNL     1      -2.918   3.238  11.258  1.00  0.00     0.274 HD
ENDBRANCH  14  19
ENDBRANCH   7   8
ENDBRANCH   2   7
BRANCH   1  23
HETATM   23  O2  UNL     1      -3.530   0.314  10.022  1.00  0.00    -0.376 OA
BRANCH  23  24
HETATM   24  C4  UNL     1      -4.383  -0.283  10.897  1.00  0.00     0.200 C
BRANCH  24  25
HETATM   25  C3  UNL     1      -4.986   0.587  11.965  1.00  0.00     0.147 C
HETATM   26  O1  UNL     1      -6.357   0.602  11.769  1.00  0.00    -0.377 OA
HETATM   27  C2  UNL     1      -7.004  -0.012  12.793  1.00  0.00     0.148 C
HETATM   28  C1  UNL     1      -8.153  -0.865  12.295  1.00  0.00     0.042 C
HETATM   29  C27 UNL     1      -5.983  -0.893  13.484  1.00  0.00     0.214 C
HETATM   30  C26 UNL     1      -4.757  -0.019  13.339  1.00  0.00     0.069 C
BRANCH  29  31
HETATM   31  N3  UNL     1      -6.329  -1.110  14.876  1.00  0.00    -0.072 N
ATOM     32  H33 UNL     1      -6.983  -0.404  15.214  1.00  0.00     0.274 HD
ATOM     33  H32 UNL     1      -6.918  -1.935  14.991  1.00  0.00     0.274 HD
ATOM     34  H31 UNL     1      -5.496  -1.159  15.462  1.00  0.00     0.274 HD
ENDBRANCH  29  31
ENDBRANCH  24  25
ENDBRANCH  23  24
ENDBRANCH   1  23
BRANCH   6  35
HETATM   35  O11 UNL     1      -5.330  -1.571   8.244  1.00  0.00    -0.390 OA
ATOM     36  H11 UNL     1      -6.270  -1.447   8.297  1.00  0.00     0.210 HD
ENDBRANCH   6  35
BRANCH   4  37
HETATM   37  C14 UNL     1      -4.215   2.179   5.539  1.00  0.00     0.198 C
BRANCH  37  38
HETATM   38  O6  UNL     1      -5.351   2.599   6.226  1.00  0.00    -0.398 OA
ATOM     39  H6  UNL     1      -6.051   2.760   5.605  1.00  0.00     0.209 HD
ENDBRANCH  37  38
ENDBRANCH   4  37
BRANCH   5  40
HETATM   40  O7  UNL     1      -4.287  -1.168   5.894  1.00  0.00    -0.347 OA
BRANCH  40  41
HETATM   41  C16 UNL     1      -5.236  -1.598   5.034  1.00  0.00     0.298 C
HETATM   42  O8  UNL     1      -6.550  -1.748   5.634  1.00  0.00    -0.330 OA
HETATM   43  C17 UNL     1      -7.225  -2.586   4.714  1.00  0.00     0.137 C
HETATM   44  C18 UNL     1      -6.361  -3.391   4.143  1.00  0.00     0.034 C
HETATM   45  C19 UNL     1      -5.010  -3.074   4.716  1.00  0.00     0.204 C
BRANCH  45  46
HETATM   46  O9  UNL     1      -4.971  -3.736   5.932  1.00  0.00    -0.347 OA
BRANCH  46  47
HETATM   47  C20 UNL     1      -4.299  -4.924   5.946  1.00  0.00     0.260 C
HETATM   48  C21 UNL     1      -4.882  -5.775   7.060  1.00  0.00     0.061 C
HETATM   49  C22 UNL     1      -3.935  -5.804   8.248  1.00  0.00     0.007 C
HETATM   50  C23 UNL     1      -3.498  -4.400   8.566  1.00  0.00     0.026 C
HETATM   51  C24 UNL     1      -2.938  -3.769   7.339  1.00  0.00     0.171 C
HETATM   52  O10 UNL     1      -2.977  -4.665   6.277  1.00  0.00    -0.361 OA
ENDBRANCH  46  47
ENDBRANCH  45  46
ENDBRANCH  40  41
ENDBRANCH   5  40
TORSDOF 15
ENDMDL