MODEL 5
REMARK VINA RESULT: -6.894511373      2.583     10.900
REMARK  16 active torsions:
REMARK  status: ('A' for Active; 'I' for Inactive)
REMARK    1  A    between atoms: O1_2  and  C2_3
REMARK    2  A    between atoms: C5_7  and  O3_8
REMARK    3  A    between atoms: O3_8  and  C6_9
REMARK    4  A    between atoms: C7_11  and  O5_12
REMARK    5  A    between atoms: O5_12  and  C8_13
REMARK    6  A    between atoms: C11_16  and  C12_17
REMARK    7  A    between atoms: C18_24  and  C19_25
REMARK    8  A    between atoms: C19_25  and  O7_26
REMARK    9  A    between atoms: C20_28  and  O8_29
REMARK   10  A    between atoms: C21_31  and  O9_32
REMARK   11  A    between atoms: O9_32  and  C22_33
REMARK   12  A    between atoms: C23_35  and  C24_36
REMARK   13  A    between atoms: C24_36  and  O11_37
REMARK   14  A    between atoms: C25_39  and  O12_40
REMARK   15  A    between atoms: C26_42  and  O13_43
REMARK   16  A    between atoms: C27_45  and  O14_46
ROOT
HETATM    1  C2  UNL     1      -8.058   0.940   1.762  1.00  0.00     0.183 C
HETATM    2  C3  UNL     1      -7.410   2.114   2.417  1.00  0.00     0.152 C
HETATM    3  C4  UNL     1      -7.026   3.186   1.402  1.00  0.00     0.042 C
HETATM    4  O2  UNL     1      -8.318   2.626   3.361  1.00  0.00    -0.351 OA
HETATM    5  C5  UNL     1      -8.942   1.445   3.842  1.00  0.00     0.295 C
HETATM    6  C21 UNL     1      -9.427   0.930   2.472  1.00  0.00     0.211 C
ENDROOT
BRANCH   5   7
HETATM    7  O3  UNL     1      -7.897   0.663   4.290  1.00  0.00    -0.326 OA
BRANCH   7   8
HETATM    8  C6  UNL     1      -8.122   0.020   5.505  1.00  0.00     0.299 C
HETATM    9  O4  UNL     1      -7.180   0.321   6.434  1.00  0.00    -0.305 OA
HETATM   10  C7  UNL     1      -6.077  -0.371   6.700  1.00  0.00     0.421 C
HETATM   11  O6  UNL     1      -6.200  -1.806   6.465  1.00  0.00    -0.328 OA
HETATM   12  C18 UNL     1      -6.618  -1.811   5.115  1.00  0.00     0.184 C
HETATM   13  C20 UNL     1      -8.096  -1.486   5.221  1.00  0.00     0.204 C
BRANCH  10  14
HETATM   14  O5  UNL     1      -5.580  -0.130   7.951  1.00  0.00    -0.297 OA
BRANCH  14  15
HETATM   15  C8  UNL     1      -4.465   0.240   8.565  1.00  0.00     0.074 A
HETATM   16  C9  UNL     1      -3.299   0.528   7.839  1.00  0.00     0.037 A
HETATM   17  C10 UNL     1      -2.131   0.939   8.429  1.00  0.00     0.011 A
HETATM   18  C11 UNL     1      -2.045   1.091   9.790  1.00  0.00    -0.050 A
HETATM   19  C16 UNL     1      -3.167   0.810  10.524  1.00  0.00     0.011 A
HETATM   20  C17 UNL     1      -4.354   0.397   9.936  1.00  0.00     0.037 A
BRANCH  18  21
HETATM   21  C12 UNL     1      -0.800   1.551  10.475  1.00  0.00    -0.024 C
HETATM   22  C13 UNL     1       0.417   1.098   9.721  1.00  0.00     0.019 C
HETATM   23  C14 UNL     1      -0.831   3.066  10.549  1.00  0.00     0.019 C
HETATM   24  C15 UNL     1      -0.736   0.966  11.873  1.00  0.00     0.019 C
ENDBRANCH  18  21
ENDBRANCH  14  15
ENDBRANCH  10  14
BRANCH  12  25
HETATM   25  C19 UNL     1      -6.225  -2.991   4.342  1.00  0.00     0.199 C
BRANCH  25  26
HETATM   26  O7  UNL     1      -6.962  -4.138   4.484  1.00  0.00    -0.398 OA
ATOM     27  H7  UNL     1      -7.650  -4.314   3.853  1.00  0.00     0.209 HD
ENDBRANCH  25  26
ENDBRANCH  12  25
BRANCH  13  28
HETATM   28  O8  UNL     1      -8.869  -1.874   4.174  1.00  0.00    -0.388 OA
ATOM     29  H8  UNL     1      -8.781  -1.332   3.398  1.00  0.00     0.210 HD
ENDBRANCH  13  28
ENDBRANCH   7   8
ENDBRANCH   5   7
BRANCH   6  30
HETATM   30  O9  UNL     1     -10.231   1.883   1.916  1.00  0.00    -0.346 OA
BRANCH  30  31
HETATM   31  C22 UNL     1     -11.460   2.109   2.484  1.00  0.00     0.292 C
HETATM   32  O10 UNL     1     -12.371   1.352   1.656  1.00  0.00    -0.348 OA
HETATM   33  C23 UNL     1     -13.642   1.895   1.814  1.00  0.00     0.179 C
HETATM   34  C25 UNL     1     -13.786   3.178   1.017  1.00  0.00     0.180 C
HETATM   35  C26 UNL     1     -12.387   3.768   0.954  1.00  0.00     0.183 C
HETATM   36  C27 UNL     1     -11.800   3.562   2.359  1.00  0.00     0.204 C
BRANCH  33  37
HETATM   37  C24 UNL     1     -14.648   0.906   1.298  1.00  0.00     0.198 C
BRANCH  37  38
HETATM   38  O11 UNL     1     -14.115  -0.318   0.952  1.00  0.00    -0.398 OA
ATOM     39  H11 UNL     1     -14.702  -1.052   1.083  1.00  0.00     0.209 HD
ENDBRANCH  37  38
ENDBRANCH  33  37
BRANCH  34  40
HETATM   40  O12 UNL     1     -14.590   4.081   1.716  1.00  0.00    -0.390 OA
ATOM     41  H12 UNL     1     -14.119   4.413   2.472  1.00  0.00     0.210 HD
ENDBRANCH  34  40
BRANCH  35  42
HETATM   42  O13 UNL     1     -12.403   5.085   0.573  1.00  0.00    -0.390 OA
ATOM     43  H13 UNL     1     -12.313   5.671   1.315  1.00  0.00     0.210 HD
ENDBRANCH  35  42
BRANCH  36  44
HETATM   44  O14 UNL     1     -10.686   4.402   2.429  1.00  0.00    -0.388 OA
ATOM     45  H14 UNL     1     -10.034   4.114   3.058  1.00  0.00     0.210 HD
ENDBRANCH  36  44
ENDBRANCH  30  31
ENDBRANCH   6  30
BRANCH   1  46
HETATM   46  O1  UNL     1      -7.477  -0.263   1.987  1.00  0.00    -0.385 OA
HETATM   47  C1  UNL     1      -7.919  -1.195   1.041  1.00  0.00     0.202 C
ENDBRANCH   1  46
TORSDOF 16
ENDMDL