MODEL 4
REMARK VINA RESULT: -6.768023627      2.746      6.710
REMARK  17 active torsions:
REMARK  status: ('A' for Active; 'I' for Inactive)
REMARK    1  A    between atoms: C2_2  and  C3_3
REMARK    2  A    between atoms: C4_4  and  C5_5
REMARK    3  A    between atoms: C5_5  and  C6_7
REMARK    4  A    between atoms: C7_9  and  O3_10
REMARK    5  A    between atoms: O3_10  and  C8_11
REMARK    6  A    between atoms: C9_12  and  O4_13
REMARK    7  A    between atoms: C11_16  and  O5_17
REMARK    8  A    between atoms: C13_19  and  O6_20
REMARK    9  A    between atoms: C14_22  and  O7_23
REMARK   10  A    between atoms: O7_23  and  C15_24
REMARK   11  A    between atoms: C16_25  and  O8_26
REMARK   12  A    between atoms: C18_29  and  O9_30
REMARK   13  A    between atoms: C20_32  and  O10_33
REMARK   14  A    between atoms: O10_33  and  C21_34
REMARK   15  A    between atoms: C23_37  and  O12_38
REMARK   16  A    between atoms: C24_40  and  O13_41
REMARK   17  A    between atoms: C27_45  and  O14_46
ROOT
HETATM    1  C8  UNL     1      -4.451   0.447   3.630  1.00  0.00     0.185 C
HETATM    2  C9  UNL     1      -4.533  -0.484   2.423  1.00  0.00     0.152 C
HETATM    3  C10 UNL     1      -3.486   0.072   1.449  1.00  0.00     0.069 C
HETATM    4  C11 UNL     1      -3.965   1.415   1.008  1.00  0.00     0.154 C
HETATM    5  C13 UNL     1      -3.942   2.346   2.206  1.00  0.00     0.178 C
HETATM    6  C14 UNL     1      -4.959   1.829   3.238  1.00  0.00     0.185 C
ENDROOT
BRANCH   1   7
HETATM    7  O3  UNL     1      -5.113  -0.119   4.682  1.00  0.00    -0.348 OA
BRANCH   7   8
HETATM    8  C7  UNL     1      -4.297  -0.558   5.704  1.00  0.00     0.290 C
HETATM    9  O2  UNL     1      -4.463  -1.925   5.892  1.00  0.00    -0.343 OA
HETATM   10  C6  UNL     1      -3.629  -2.399   6.920  1.00  0.00     0.227 C
HETATM   11  C27 UNL     1      -4.245  -1.807   8.183  1.00  0.00     0.161 C
HETATM   12  C25 UNL     1      -3.900  -0.333   8.154  1.00  0.00     0.047 C
HETATM   13  C24 UNL     1      -4.616   0.246   6.944  1.00  0.00     0.179 C
HETATM   14  C26 UNL     1      -4.439   0.324   9.385  1.00  0.00     0.015 C
BRANCH  10  15
HETATM   15  C5  UNL     1      -3.686  -3.870   6.889  1.00  0.00     0.180 C
HETATM   16  O1  UNL     1      -3.662  -4.504   5.777  1.00  0.00    -0.290 OA
BRANCH  15  17
HETATM   17  C4  UNL     1      -3.771  -4.663   8.097  1.00  0.00     0.049 C
HETATM   18  C3  UNL     1      -4.414  -5.803   8.226  1.00  0.00    -0.023 C
BRANCH  18  19
HETATM   19  C2  UNL     1      -4.471  -6.578   9.487  1.00  0.00     0.023 C
HETATM   20  C1  UNL     1      -3.759  -7.920   9.333  1.00  0.00     0.009 C
ENDBRANCH  18  19
ENDBRANCH  15  17
ENDBRANCH  10  15
BRANCH  11  21
HETATM   21  O14 UNL     1      -5.635  -1.937   8.031  1.00  0.00    -0.392 OA
ATOM     22  H14 UNL     1      -6.019  -1.214   8.513  1.00  0.00     0.210 HD
ENDBRANCH  11  21
BRANCH  13  23
HETATM   23  O13 UNL     1      -5.958   0.285   7.247  1.00  0.00    -0.390 OA
ATOM     24  H13 UNL     1      -6.383   1.095   6.988  1.00  0.00     0.210 HD
ENDBRANCH  13  23
ENDBRANCH   7   8
ENDBRANCH   1   7
BRANCH   2  25
HETATM   25  O4  UNL     1      -4.069  -1.735   2.819  1.00  0.00    -0.393 OA
ATOM     26  H4  UNL     1      -4.745  -2.372   2.618  1.00  0.00     0.210 HD
ENDBRANCH   2  25
BRANCH   6  27
HETATM   27  O7  UNL     1      -6.163   1.818   2.600  1.00  0.00    -0.370 OA
BRANCH  27  28
HETATM   28  C15 UNL     1      -7.158   2.589   3.132  1.00  0.00     0.186 C
HETATM   29  C16 UNL     1      -7.978   3.324   2.104  1.00  0.00     0.175 C
HETATM   30  C17 UNL     1      -9.057   2.509   1.506  1.00  0.00     0.042 C
HETATM   31  C18 UNL     1      -9.765   1.729   2.289  1.00  0.00     0.076 C
HETATM   32  C20 UNL     1      -9.453   1.701   3.721  1.00  0.00     0.219 C
HETATM   33  C23 UNL     1      -7.982   1.720   4.044  1.00  0.00     0.186 C
BRANCH  29  34
HETATM   34  O8  UNL     1      -8.517   4.457   2.720  1.00  0.00    -0.389 OA
ATOM     35  H8  UNL     1      -9.128   4.855   2.111  1.00  0.00     0.210 HD
ENDBRANCH  29  34
BRANCH  31  36
HETATM   36  O9  UNL     1     -10.802   0.930   1.791  1.00  0.00    -0.358 OA
HETATM   37  C19 UNL     1     -11.997   1.495   1.282  1.00  0.00     0.209 C
ENDBRANCH  31  36
BRANCH  32  38
HETATM   38  O10 UNL     1      -9.958   0.469   4.248  1.00  0.00    -0.307 OA
BRANCH  38  39
HETATM   39  C21 UNL     1     -10.595   0.381   5.465  1.00  0.00     0.255 C
HETATM   40  C22 UNL     1     -12.076   0.351   5.512  1.00  0.00     0.126 C
HETATM   41  O11 UNL     1      -9.947   0.328   6.527  1.00  0.00    -0.266 OA
ENDBRANCH  38  39
ENDBRANCH  32  38
BRANCH  33  42
HETATM   42  O12 UNL     1      -7.888   2.136   5.389  1.00  0.00    -0.390 OA
ATOM     43  H12 UNL     1      -8.503   1.672   5.945  1.00  0.00     0.210 HD
ENDBRANCH  33  42
ENDBRANCH  27  28
ENDBRANCH   6  27
BRANCH   5  44
HETATM   44  O6  UNL     1      -2.672   2.442   2.757  1.00  0.00    -0.390 OA
ATOM     45  H6  UNL     1      -2.682   2.283   3.694  1.00  0.00     0.210 HD
ENDBRANCH   5  44
BRANCH   4  46
HETATM   46  O5  UNL     1      -5.220   1.420   0.461  1.00  0.00    -0.388 OA
HETATM   47  C12 UNL     1      -5.404   2.373  -0.522  1.00  0.00     0.202 C
ENDBRANCH   4  46
TORSDOF 17
ENDMDL