MODEL 1
REMARK VINA RESULT: -7.573086073      0.000      0.000
REMARK  14 active torsions:
REMARK  status: ('A' for Active; 'I' for Inactive)
REMARK       I    between atoms: C2_2  and  N1_4
REMARK    1  A    between atoms: N1_4  and  N2_6
REMARK    2  A    between atoms: N2_6  and  S1_8
REMARK    3  A    between atoms: S1_8  and  C3_11
REMARK    4  A    between atoms: C5_13  and  S2_14
REMARK    5  A    between atoms: S2_14  and  N3_15
REMARK    6  A    between atoms: C6_20  and  N4_21
REMARK    7  A    between atoms: N4_21  and  N5_23
REMARK    8  A    between atoms: N5_23  and  N6_25
REMARK    9  A    between atoms: C7_28  and  N7_29
REMARK   10  A    between atoms: C8_32  and  N8_33
REMARK   11  A    between atoms: N8_33  and  C9_35
REMARK   12  A    between atoms: C9_35  and  C10_36
REMARK   13  A    between atoms: C14_40  and  S3_41
REMARK   14  A    between atoms: C16_45  and  O10_46
ROOT
HETATM    1  C3  UNL     1      -5.112  -1.970   5.730  1.00  0.00     0.111 A
HETATM    2  C4  UNL     1      -5.792  -2.488   4.664  1.00  0.00     0.055 A
HETATM    3  C5  UNL     1      -6.603  -1.632   3.916  1.00  0.00     0.111 A
HETATM    4  C6  UNL     1      -6.706  -0.292   4.246  1.00  0.00     0.108 A
HETATM    5  C7  UNL     1      -6.013   0.234   5.306  1.00  0.00     0.160 A
HETATM    6  C8  UNL     1      -5.213  -0.589   6.048  1.00  0.00     0.091 A
ENDROOT
BRANCH   6   7
HETATM    7  N8  UNL     1      -4.460  -0.127   7.116  1.00  0.00    -0.362 N
ATOM      8  H8  UNL     1      -3.484  -0.392   6.988  1.00  0.00     0.165 HD
BRANCH   7   9
HETATM    9  C9  UNL     1      -4.601   0.572   8.292  1.00  0.00     0.102 C
BRANCH   9  10
HETATM   10  C10 UNL     1      -4.105   0.263   9.623  1.00  0.00     0.014 A
HETATM   11  C11 UNL     1      -4.807  -0.174  10.702  1.00  0.00     0.016 A
HETATM   12  C12 UNL     1      -4.324  -0.183  12.012  1.00  0.00     0.003 A
HETATM   13  C13 UNL     1      -3.043   0.296  12.222  1.00  0.00     0.026 A
HETATM   14  C14 UNL     1      -2.278   0.768  11.194  1.00  0.00     0.092 A
HETATM   15  C16 UNL     1      -2.808   0.741   9.937  1.00  0.00     0.098 A
BRANCH  14  16
HETATM   16  S3  UNL     1      -0.603   1.221  11.367  1.00  0.00     0.174 S
HETATM   17  C15 UNL     1      -0.511   2.886  11.998  1.00  0.00     0.167 C
HETATM   18  O8  UNL     1      -0.076   0.363  12.551  1.00  0.00    -0.223 OA
HETATM   19  O9  UNL     1       0.266   0.944  10.238  1.00  0.00    -0.223 OA
ENDBRANCH  14  16
BRANCH  15  20
HETATM   20  O10 UNL     1      -2.039   1.179   8.832  1.00  0.00    -0.358 OA
ATOM     21  H10 UNL     1      -1.431   1.885   9.014  1.00  0.00     0.217 HD
ENDBRANCH  15  20
ENDBRANCH   9  10
ENDBRANCH   7   9
ENDBRANCH   6   7
BRANCH   1  22
HETATM   22  S1  UNL     1      -4.253  -3.041   6.814  1.00  0.00     0.278 S
HETATM   23  O2  UNL     1      -4.894  -2.873   8.155  1.00  0.00    -0.199 OA
HETATM   24  O3  UNL     1      -2.824  -2.489   7.019  1.00  0.00    -0.199 OA
BRANCH  22  25
HETATM   25  N2  UNL     1      -4.188  -4.624   6.241  1.00  0.00    -0.220 N
ATOM     26  H2  UNL     1      -4.443  -4.901   5.293  1.00  0.00     0.200 HD
BRANCH  25  27
HETATM   27  N1  UNL     1      -3.739  -5.524   7.236  1.00  0.00    -0.261 N
HETATM   28  C2  UNL     1      -4.612  -6.402   7.894  1.00  0.00     0.232 C
HETATM   29  C1  UNL     1      -4.116  -7.335   8.937  1.00  0.00     0.119 C
HETATM   30  O1  UNL     1      -5.863  -6.468   7.630  1.00  0.00    -0.272 OA
ATOM     31  H1  UNL     1      -2.749  -5.534   7.483  1.00  0.00     0.190 HD
ENDBRANCH  25  27
ENDBRANCH  22  25
ENDBRANCH   1  22
BRANCH   5  32
HETATM   32  N7  UNL     1      -6.251   1.603   5.649  1.00  0.00    -0.111 N
HETATM   33  O6  UNL     1      -7.427   1.853   6.124  1.00  0.00    -0.532 OA
HETATM   34  O7  UNL     1      -5.451   2.665   5.558  1.00  0.00    -0.532 OA
ENDBRANCH   5  32
BRANCH   4  35
HETATM   35  N4  UNL     1      -7.589   0.547   3.434  1.00  0.00    -0.283 N
ATOM     36  H4  UNL     1      -7.275   1.015   2.584  1.00  0.00     0.188 HD
BRANCH  35  37
HETATM   37  N5  UNL     1      -8.791   0.647   3.877  1.00  0.00    -0.249 N
ATOM     38  H5  UNL     1      -9.249  -0.209   4.190  1.00  0.00     0.207 HD
BRANCH  37  39
HETATM   39  N6  UNL     1      -9.511   1.823   3.961  1.00  0.00    -0.331 N
ATOM     40  H62 UNL     1      -9.035   2.669   3.647  1.00  0.00     0.178 HD
ATOM     41  H61 UNL     1     -10.466   1.902   4.310  1.00  0.00     0.178 HD
ENDBRANCH  37  39
ENDBRANCH  35  37
ENDBRANCH   4  35
BRANCH   3  42
HETATM   42  S2  UNL     1      -7.451  -2.284   2.539  1.00  0.00     0.259 S
HETATM   43  O4  UNL     1      -8.947  -2.177   2.885  1.00  0.00    -0.201 OA
HETATM   44  O5  UNL     1      -7.092  -1.543   1.326  1.00  0.00    -0.201 OA
BRANCH  42  45
HETATM   45  N3  UNL     1      -7.070  -3.966   2.360  1.00  0.00    -0.324 N
ATOM     46  H32 UNL     1      -6.962  -4.438   1.462  1.00  0.00     0.169 HD
ATOM     47  H31 UNL     1      -6.973  -4.396   3.279  1.00  0.00     0.169 HD
ENDBRANCH  42  45
ENDBRANCH   3  42
TORSDOF 14
ENDMDL