MODEL 1
REMARK VINA RESULT: -8.127053755      0.000      0.000
REMARK  16 active torsions:
REMARK  status: ('A' for Active; 'I' for Inactive)
REMARK    1  A    between atoms: C2_2  and  O1_3
REMARK    2  A    between atoms: O1_3  and  C3_4
REMARK    3  A    between atoms: C4_5  and  O2_6
REMARK    4  A    between atoms: C5_8  and  C6_9
REMARK    5  A    between atoms: C6_9  and  O3_10
REMARK    6  A    between atoms: O3_10  and  C7_11
REMARK    7  A    between atoms: C8_13  and  C9_14
REMARK    8  A    between atoms: C9_14  and  O5_15
REMARK    9  A    between atoms: C10_17  and  O6_18
REMARK   10  A    between atoms: C11_20  and  O7_21
REMARK   11  A    between atoms: C12_23  and  O8_24
REMARK   12  A    between atoms: C13_27  and  O10_28
REMARK   13  A    between atoms: O10_28  and  C14_29
REMARK   14  A    between atoms: C17_32  and  O11_33
REMARK   15  A    between atoms: O11_33  and  C18_34
REMARK   16  A    between atoms: C27_45  and  O14_46
ROOT
HETATM    1  C3  UNL     1      -7.793  -2.186   2.467  1.00  0.00     0.186 C
HETATM    2  C4  UNL     1      -8.340  -1.010   1.684  1.00  0.00     0.180 C
HETATM    3  C5  UNL     1      -7.788   0.318   2.136  1.00  0.00     0.180 C
HETATM    4  O9  UNL     1      -7.526   0.257   3.485  1.00  0.00    -0.348 OA
HETATM    5  C13 UNL     1      -6.479  -0.578   3.837  1.00  0.00     0.292 C
HETATM    6  C27 UNL     1      -6.451  -1.862   3.074  1.00  0.00     0.204 C
ENDROOT
BRANCH   3   7
HETATM    7  C6  UNL     1      -8.864   1.363   1.944  1.00  0.00     0.205 C
BRANCH   7   8
HETATM    8  O3  UNL     1     -10.091   0.979   2.473  1.00  0.00    -0.356 OA
BRANCH   8   9
HETATM    9  C7  UNL     1     -10.528   1.911   3.410  1.00  0.00     0.291 C
HETATM   10  O4  UNL     1     -10.424   1.507   4.709  1.00  0.00    -0.348 OA
HETATM   11  C8  UNL     1     -11.382   0.686   5.212  1.00  0.00     0.179 C
HETATM   12  C10 UNL     1     -12.622   0.548   4.358  1.00  0.00     0.180 C
HETATM   13  C11 UNL     1     -13.029   1.873   3.754  1.00  0.00     0.183 C
HETATM   14  C12 UNL     1     -11.877   2.477   3.019  1.00  0.00     0.204 C
BRANCH  11  15
HETATM   15  C9  UNL     1     -10.880  -0.667   5.640  1.00  0.00     0.198 C
BRANCH  15  16
HETATM   16  O5  UNL     1      -9.759  -1.093   4.964  1.00  0.00    -0.398 OA
ATOM     17  H5  UNL     1      -9.807  -1.990   4.657  1.00  0.00     0.209 HD
ENDBRANCH  15  16
ENDBRANCH  11  15
BRANCH  12  18
HETATM   18  O6  UNL     1     -13.714   0.103   5.110  1.00  0.00    -0.390 OA
ATOM     19  H6  UNL     1     -14.395   0.764   5.159  1.00  0.00     0.210 HD
ENDBRANCH  12  18
BRANCH  13  20
HETATM   20  O7  UNL     1     -14.108   1.656   2.923  1.00  0.00    -0.390 OA
ATOM     21  H7  UNL     1     -14.063   2.279   2.207  1.00  0.00     0.210 HD
ENDBRANCH  13  20
BRANCH  14  22
HETATM   22  O8  UNL     1     -12.120   2.254   1.641  1.00  0.00    -0.388 OA
ATOM     23  H8  UNL     1     -12.818   2.820   1.335  1.00  0.00     0.210 HD
ENDBRANCH  14  22
ENDBRANCH   8   9
ENDBRANCH   7   8
ENDBRANCH   3   7
BRANCH   2  24
HETATM   24  O2  UNL     1      -7.974  -1.117   0.320  1.00  0.00    -0.390 OA
ATOM     25  H2  UNL     1      -8.718  -1.403  -0.199  1.00  0.00     0.210 HD
ENDBRANCH   2  24
BRANCH   1  26
HETATM   26  O1  UNL     1      -7.804  -3.280   1.673  1.00  0.00    -0.381 OA
BRANCH  26  27
HETATM   27  C2  UNL     1      -7.723  -4.498   2.249  1.00  0.00     0.164 C
HETATM   28  C1  UNL     1      -9.036  -5.241   1.972  1.00  0.00     0.033 C
ENDBRANCH  26  27
ENDBRANCH   1  26
BRANCH   5  29
HETATM   29  O10 UNL     1      -6.657  -0.856   5.204  1.00  0.00    -0.351 OA
BRANCH  29  30
HETATM   30  C14 UNL     1      -5.656  -0.336   5.990  1.00  0.00     0.156 C
HETATM   31  C15 UNL     1      -4.968  -1.511   6.687  1.00  0.00     0.037 C
HETATM   32  C16 UNL     1      -4.545  -1.123   8.107  1.00  0.00     0.037 C
HETATM   33  C17 UNL     1      -5.785  -0.934   8.989  1.00  0.00     0.153 C
HETATM   34  C24 UNL     1      -6.901  -0.536   8.070  1.00  0.00     0.184 C
HETATM   35  O12 UNL     1      -7.875   0.241   8.674  1.00  0.00    -0.356 OA
HETATM   36  C26 UNL     1      -6.306   0.481   7.084  1.00  0.00     0.184 C
HETATM   37  C25 UNL     1      -8.447   0.883   7.570  1.00  0.00     0.339 C
HETATM   38  O13 UNL     1      -7.430   1.155   6.679  1.00  0.00    -0.356 OA
BRANCH  33  39
HETATM   39  O11 UNL     1      -5.607   0.033   9.947  1.00  0.00    -0.378 OA
BRANCH  39  40
HETATM   40  C18 UNL     1      -5.847  -0.442  11.220  1.00  0.00     0.122 C
HETATM   41  C19 UNL     1      -7.170   0.032  11.794  1.00  0.00     0.032 C
HETATM   42  C20 UNL     1      -7.413  -0.738  13.069  1.00  0.00     0.002 C
HETATM   43  C21 UNL     1      -6.311  -0.598  14.073  1.00  0.00     0.000 C
HETATM   44  C22 UNL     1      -4.947  -0.746  13.473  1.00  0.00     0.002 C
HETATM   45  C23 UNL     1      -4.773   0.048  12.200  1.00  0.00     0.032 C
ENDBRANCH  39  40
ENDBRANCH  33  39
ENDBRANCH  29  30
ENDBRANCH   5  29
BRANCH   6  46
HETATM   46  O14 UNL     1      -5.469  -1.751   2.075  1.00  0.00    -0.388 OA
ATOM     47  H14 UNL     1      -4.675  -1.365   2.426  1.00  0.00     0.210 HD
ENDBRANCH   6  46
TORSDOF 16
ENDMDL