MODEL 2
REMARK VINA RESULT: -7.852964085      1.572      2.490
REMARK  16 active torsions:
REMARK  status: ('A' for Active; 'I' for Inactive)
REMARK    1  A    between atoms: O1_2  and  C2_3
REMARK    2  A    between atoms: C3_4  and  O2_5
REMARK    3  A    between atoms: O2_5  and  C4_6
REMARK    4  A    between atoms: C4_6  and  C5_7
REMARK    5  A    between atoms: C6_8  and  O3_9
REMARK    6  A    between atoms: C7_11  and  O4_12
REMARK    7  A    between atoms: O4_12  and  C8_13
REMARK    8  A    between atoms: C9_14  and  O5_15
REMARK    9  A    between atoms: C11_19  and  O7_20
REMARK   10  A    between atoms: O7_20  and  C12_21
REMARK   11  A    between atoms: C19_29  and  S1_30
REMARK   12  A    between atoms: C21_32  and  O9_33
REMARK   13  A    between atoms: C22_36  and  C23_37
REMARK   14  A    between atoms: C23_37  and  O11_38
REMARK   15  A    between atoms: C24_40  and  O12_41
REMARK   16  A    between atoms: C25_43  and  N1_44
ROOT
HETATM    1  C5  UNL     1      -3.544  -0.353   6.695  1.00  0.00     0.071 C
HETATM    2  C6  UNL     1      -3.562   1.050   7.320  1.00  0.00     0.157 C
HETATM    3  C7  UNL     1      -2.724   0.830   8.556  1.00  0.00     0.167 C
HETATM    4  C19 UNL     1      -1.532   0.147   7.975  1.00  0.00     0.107 C
HETATM    5  C21 UNL     1      -2.250  -0.992   7.221  1.00  0.00     0.143 C
ENDROOT
BRANCH   1   6
HETATM    6  C4  UNL     1      -4.747  -1.071   7.191  1.00  0.00     0.180 C
BRANCH   6   7
HETATM    7  O2  UNL     1      -5.555  -1.677   6.270  1.00  0.00    -0.358 OA
BRANCH   7   8
HETATM    8  C3  UNL     1      -6.446  -0.873   5.610  1.00  0.00     0.291 C
HETATM    9  C2  UNL     1      -6.224  -0.914   4.139  1.00  0.00     0.208 C
HETATM   10  C25 UNL     1      -7.409  -1.605   3.438  1.00  0.00     0.248 C
HETATM   11  C24 UNL     1      -8.625  -0.773   3.707  1.00  0.00     0.182 C
HETATM   12  C22 UNL     1      -8.581  -0.404   5.184  1.00  0.00     0.179 C
HETATM   13  O10 UNL     1      -7.788  -1.326   5.874  1.00  0.00    -0.349 OA
BRANCH   9  14
HETATM   14  O1  UNL     1      -5.116  -1.645   3.732  1.00  0.00    -0.384 OA
HETATM   15  C1  UNL     1      -4.492  -0.907   2.712  1.00  0.00     0.202 C
ENDBRANCH   9  14
BRANCH  10  16
HETATM   16  N1  UNL     1      -7.596  -2.930   3.937  1.00  0.00    -0.070 N
ATOM     17  H13 UNL     1      -7.382  -3.633   3.228  1.00  0.00     0.274 HD
ATOM     18  H12 UNL     1      -6.881  -3.179   4.621  1.00  0.00     0.274 HD
ATOM     19  H11 UNL     1      -8.536  -3.050   4.314  1.00  0.00     0.274 HD
ENDBRANCH  10  16
BRANCH  11  20
HETATM   20  O12 UNL     1      -8.567   0.355   2.895  1.00  0.00    -0.391 OA
ATOM     21  H12 UNL     1      -9.304   0.934   3.047  1.00  0.00     0.210 HD
ENDBRANCH  11  20
BRANCH  12  22
HETATM   22  C23 UNL     1     -10.001  -0.345   5.682  1.00  0.00     0.198 C
BRANCH  22  23
HETATM   23  O11 UNL     1     -10.640  -1.551   5.462  1.00  0.00    -0.398 OA
ATOM     24  H11 UNL     1     -10.969  -1.906   6.279  1.00  0.00     0.209 HD
ENDBRANCH  22  23
ENDBRANCH  12  22
ENDBRANCH   7   8
ENDBRANCH   6   7
ENDBRANCH   1   6
BRANCH   2  25
HETATM   25  O3  UNL     1      -3.027   1.941   6.424  1.00  0.00    -0.392 OA
ATOM     26  H3  UNL     1      -2.271   2.357   6.820  1.00  0.00     0.210 HD
ENDBRANCH   2  25
BRANCH   5  27
HETATM   27  O9  UNL     1      -2.549  -2.019   8.116  1.00  0.00    -0.394 OA
ATOM     28  H9  UNL     1      -2.108  -2.819   7.856  1.00  0.00     0.210 HD
ENDBRANCH   5  27
BRANCH   3  29
HETATM   29  O4  UNL     1      -2.516   2.032   9.176  1.00  0.00    -0.369 OA
BRANCH  29  30
HETATM   30  C8  UNL     1      -2.033   1.971  10.442  1.00  0.00     0.208 C
HETATM   31  C9  UNL     1      -0.533   1.857  10.553  1.00  0.00     0.175 C
HETATM   32  C10 UNL     1      -0.350   0.950  11.721  1.00  0.00     0.205 C
HETATM   33  O6  UNL     1      -1.571   0.495  12.161  1.00  0.00    -0.356 OA
HETATM   34  C11 UNL     1      -2.522   0.774  11.165  1.00  0.00     0.295 C
BRANCH  31  35
HETATM   35  O5  UNL     1       0.016   3.123  10.721  1.00  0.00    -0.391 OA
ATOM     36  H5  UNL     1       0.800   3.059  11.253  1.00  0.00     0.210 HD
ENDBRANCH  31  35
BRANCH  34  37
HETATM   37  O7  UNL     1      -3.728   0.872  11.801  1.00  0.00    -0.319 OA
BRANCH  37  38
HETATM   38  C12 UNL     1      -4.589  -0.213  11.568  1.00  0.00     0.333 C
HETATM   39  C13 UNL     1      -5.487  -0.404  12.629  1.00  0.00    -0.124 C
HETATM   40  C14 UNL     1      -6.158  -0.707  13.822  1.00  0.00     0.085 C
HETATM   41  C15 UNL     1      -7.673  -0.490  13.497  1.00  0.00     0.011 C
HETATM   42  C16 UNL     1      -8.095  -0.895  12.140  1.00  0.00     0.003 C
HETATM   43  C17 UNL     1      -7.814  -0.053  10.932  1.00  0.00     0.026 C
HETATM   44  C18 UNL     1      -6.528  -0.450  10.195  1.00  0.00     0.172 C
HETATM   45  O8  UNL     1      -5.367   0.166  10.424  1.00  0.00    -0.351 OA
ENDBRANCH  37  38
ENDBRANCH  34  37
ENDBRANCH  29  30
ENDBRANCH   3  29
BRANCH   4  46
HETATM   46  S1  UNL     1      -0.612   1.119   6.786  1.00  0.00    -0.163 SA
HETATM   47  C20 UNL     1       1.166   0.857   6.888  1.00  0.00     0.090 C
ENDBRANCH   4  46
TORSDOF 16
ENDMDL