MODEL 4
REMARK VINA RESULT: -6.399645129      1.766      4.159
REMARK  15 active torsions:
REMARK  status: ('A' for Active; 'I' for Inactive)
REMARK    1  A    between atoms: O1_2  and  C2_3
REMARK    2  A    between atoms: C5_7  and  O3_8
REMARK    3  A    between atoms: O3_8  and  C6_9
REMARK    4  A    between atoms: C7_10  and  C8_11
REMARK    5  A    between atoms: C8_11  and  O4_12
REMARK    6  A    between atoms: C9_15  and  O6_16
REMARK    7  A    between atoms: O6_16  and  C10_17
REMARK    8  A    between atoms: C11_18  and  O7_19
REMARK    9  A    between atoms: C13_21  and  N1_22
REMARK   10  A    between atoms: C15_27  and  N2_28
REMARK   11  A    between atoms: C16_32  and  O8_33
REMARK   12  A    between atoms: O8_33  and  C17_34
REMARK   13  A    between atoms: C22_40  and  S1_41
REMARK   14  A    between atoms: C23_43  and  O9_44
REMARK   15  A    between atoms: C24_46  and  O10_47
ROOT
HETATM    1  C6  UNL     1      -5.761   0.752   3.626  1.00  0.00     0.183 C
HETATM    2  C7  UNL     1      -4.396   0.264   3.380  1.00  0.00     0.179 C
HETATM    3  O5  UNL     1      -3.372   0.845   4.095  1.00  0.00    -0.350 OA
HETATM    4  C9  UNL     1      -3.722   1.265   5.353  1.00  0.00     0.278 C
HETATM    5  C22 UNL     1      -4.723   2.380   5.186  1.00  0.00     0.146 C
HETATM    6  C23 UNL     1      -5.994   1.801   4.636  1.00  0.00     0.169 C
ENDROOT
BRANCH   4   7
HETATM    7  O6  UNL     1      -2.558   1.856   5.899  1.00  0.00    -0.349 OA
BRANCH   7   8
HETATM    8  C10 UNL     1      -2.759   2.349   7.162  1.00  0.00     0.186 C
HETATM    9  C11 UNL     1      -1.749   3.496   7.334  1.00  0.00     0.182 C
HETATM   10  C13 UNL     1      -0.494   2.870   7.932  1.00  0.00     0.216 C
HETATM   11  C14 UNL     1      -0.792   2.658   9.398  1.00  0.00     0.071 C
HETATM   12  C15 UNL     1      -2.031   1.840   9.518  1.00  0.00     0.217 C
HETATM   13  C16 UNL     1      -2.533   1.285   8.196  1.00  0.00     0.186 C
BRANCH   9  14
HETATM   14  O7  UNL     1      -2.235   4.496   8.142  1.00  0.00    -0.386 OA
HETATM   15  C12 UNL     1      -2.827   5.467   7.337  1.00  0.00     0.202 C
ENDBRANCH   9  14
BRANCH  10  16
HETATM   16  N1  UNL     1       0.675   3.691   7.729  1.00  0.00    -0.072 N
ATOM     17  H13 UNL     1       0.444   4.683   7.786  1.00  0.00     0.274 HD
ATOM     18  H12 UNL     1       1.312   3.629   8.524  1.00  0.00     0.274 HD
ATOM     19  H11 UNL     1       1.153   3.472   6.855  1.00  0.00     0.274 HD
ENDBRANCH  10  16
BRANCH  12  20
HETATM   20  N2  UNL     1      -3.110   2.491  10.215  1.00  0.00    -0.072 N
ATOM     21  H23 UNL     1      -3.379   1.950  11.037  1.00  0.00     0.274 HD
ATOM     22  H22 UNL     1      -2.779   3.343  10.666  1.00  0.00     0.274 HD
ATOM     23  H21 UNL     1      -3.927   2.689   9.638  1.00  0.00     0.274 HD
ENDBRANCH  12  20
BRANCH  13  24
HETATM   24  O8  UNL     1      -3.705   0.581   8.517  1.00  0.00    -0.347 OA
BRANCH  24  25
HETATM   25  C17 UNL     1      -3.440  -0.765   8.637  1.00  0.00     0.358 C
HETATM   26  C18 UNL     1      -2.471  -1.283   7.630  1.00  0.00     0.066 C
HETATM   27  C19 UNL     1      -2.904  -2.735   7.458  1.00  0.00     0.035 C
HETATM   28  C20 UNL     1      -4.045  -2.922   8.450  1.00  0.00     0.275 C
HETATM   29  N3  UNL     1      -4.619  -1.588   8.450  1.00  0.00     0.113 N
HETATM   30  C21 UNL     1      -5.252  -1.383   7.182  1.00  0.00     0.313 C
ENDBRANCH  24  25
ENDBRANCH  13  24
ENDBRANCH   7   8
ENDBRANCH   4   7
BRANCH   5  31
HETATM   31  S1  UNL     1      -4.048   3.580   4.006  1.00  0.00    -0.073 SA
HETATM   32  S2  UNL     1      -5.581   4.489   2.863  1.00  0.00    -0.013 SA
ENDBRANCH   5  31
BRANCH   2  33
HETATM   33  C8  UNL     1      -4.049   0.436   1.914  1.00  0.00     0.198 C
BRANCH  33  34
HETATM   34  O4  UNL     1      -2.996  -0.356   1.496  1.00  0.00    -0.398 OA
ATOM     35  H4  UNL     1      -2.824  -0.301   0.564  1.00  0.00     0.209 HD
ENDBRANCH  33  34
ENDBRANCH   2  33
BRANCH   6  36
HETATM   36  O9  UNL     1      -6.683   1.300   5.777  1.00  0.00    -0.392 OA
ATOM     37  H9  UNL     1      -7.300   1.932   6.126  1.00  0.00     0.210 HD
ENDBRANCH   6  36
BRANCH   1  38
HETATM   38  O3  UNL     1      -6.612  -0.334   3.993  1.00  0.00    -0.370 OA
BRANCH  38  39
HETATM   39  C5  UNL     1      -6.761  -1.270   3.014  1.00  0.00     0.184 C
HETATM   40  C3  UNL     1      -8.147  -1.270   2.394  1.00  0.00     0.152 C
HETATM   41  O2  UNL     1      -8.571  -2.571   2.298  1.00  0.00    -0.351 OA
HETATM   42  C4  UNL     1      -8.087  -0.716   0.966  1.00  0.00     0.042 C
HETATM   43  C2  UNL     1      -7.474  -3.411   2.465  1.00  0.00     0.290 C
HETATM   44  C24 UNL     1      -6.722  -2.672   3.582  1.00  0.00     0.204 C
BRANCH  43  45
HETATM   45  O1  UNL     1      -7.814  -4.685   2.831  1.00  0.00    -0.363 OA
HETATM   46  C1  UNL     1      -8.910  -5.065   2.025  1.00  0.00     0.204 C
ENDBRANCH  43  45
BRANCH  44  47
HETATM   47  O10 UNL     1      -7.517  -2.669   4.738  1.00  0.00    -0.388 OA
ATOM     48  H10 UNL     1      -7.049  -2.219   5.431  1.00  0.00     0.210 HD
ENDBRANCH  44  47
ENDBRANCH  38  39
ENDBRANCH   1  38
TORSDOF 15
ENDMDL