MODEL 3
REMARK VINA RESULT: -8.230615596      2.518      3.394
REMARK  19 active torsions:
REMARK  status: ('A' for Active; 'I' for Inactive)
REMARK    1  A    between atoms: C2_2  and  O2_4
REMARK    2  A    between atoms: O2_4  and  C3_5
REMARK    3  A    between atoms: C4_6  and  O3_7
REMARK    4  A    between atoms: C5_9  and  O4_10
REMARK    5  A    between atoms: O4_10  and  C6_11
REMARK    6  A    between atoms: C6_11  and  C7_13
REMARK    7  A    between atoms: C8_14  and  C9_15
REMARK    8  A    between atoms: C9_15  and  O6_18
REMARK    9  A    between atoms: C12_20  and  O7_21
REMARK   10  A    between atoms: C13_23  and  O8_24
REMARK   11  A    between atoms: C14_26  and  C15_27
REMARK   12  A    between atoms: C15_27  and  O9_28
REMARK   13  A    between atoms: C15_27  and  C23_37
REMARK   14  A    between atoms: O9_28  and  C16_29
REMARK   15  A    between atoms: C16_29  and  C17_31
REMARK   16  A    between atoms: C23_37  and  O12_39
REMARK   17  A    between atoms: O12_39  and  C24_40
REMARK       I    between atoms: C24_40  and  N1_42
REMARK   18  A    between atoms: N1_42  and  N2_44
REMARK   19  A    between atoms: N2_44  and  C25_46
ROOT
HETATM    1  C3  UNL     1      -6.336  -1.233   5.078  1.00  0.00     0.172 C
HETATM    2  C4  UNL     1      -5.805  -1.046   3.622  1.00  0.00     0.180 C
HETATM    3  C5  UNL     1      -5.869   0.442   3.412  1.00  0.00     0.194 C
HETATM    4  C12 UNL     1      -5.085   1.257   4.380  1.00  0.00     0.179 C
HETATM    5  C13 UNL     1      -5.045   0.776   5.784  1.00  0.00     0.159 C
HETATM    6  C14 UNL     1      -5.239  -0.712   5.931  1.00  0.00     0.088 C
ENDROOT
BRANCH   6   7
HETATM    7  C15 UNL     1      -5.312  -1.197   7.334  1.00  0.00     0.241 C
BRANCH   7   8
HETATM    8  O9  UNL     1      -5.464  -0.243   8.325  1.00  0.00    -0.301 OA
BRANCH   8   9
HETATM    9  C16 UNL     1      -6.528  -0.083   9.174  1.00  0.00     0.294 C
HETATM   10  O10 UNL     1      -7.624   0.225   8.603  1.00  0.00    -0.259 OA
BRANCH   9  11
HETATM   11  C17 UNL     1      -6.466  -0.241  10.620  1.00  0.00     0.039 A
HETATM   12  C18 UNL     1      -5.239  -0.206  11.246  1.00  0.00     0.017 A
HETATM   13  C19 UNL     1      -5.083  -0.344  12.609  1.00  0.00     0.001 A
HETATM   14  C20 UNL     1      -6.217  -0.525  13.377  1.00  0.00     0.000 A
HETATM   15  C21 UNL     1      -7.456  -0.565  12.795  1.00  0.00     0.001 A
HETATM   16  C22 UNL     1      -7.566  -0.421  11.408  1.00  0.00     0.017 A
ENDBRANCH   9  11
ENDBRANCH   8   9
ENDBRANCH   7   8
BRANCH   7  17
HETATM   17  C23 UNL     1      -4.229  -2.183   7.644  1.00  0.00     0.298 C
HETATM   18  O11 UNL     1      -3.768  -2.321   8.785  1.00  0.00    -0.262 OA
BRANCH  17  19
HETATM   19  O12 UNL     1      -3.734  -2.959   6.630  1.00  0.00    -0.224 OA
BRANCH  19  20
HETATM   20  C24 UNL     1      -3.641  -4.357   6.746  1.00  0.00     0.387 C
HETATM   21  O13 UNL     1      -2.968  -4.923   5.845  1.00  0.00    -0.236 OA
HETATM   22  N1  UNL     1      -4.250  -5.094   7.787  1.00  0.00    -0.243 N
ATOM     23  H1  UNL     1      -4.792  -4.620   8.509  1.00  0.00     0.192 HD
BRANCH  22  24
HETATM   24  N2  UNL     1      -4.097  -6.475   7.811  1.00  0.00    -0.273 N
ATOM     25  H2  UNL     1      -3.707  -6.957   7.002  1.00  0.00     0.189 HD
BRANCH  24  26
HETATM   26  C25 UNL     1      -4.487  -7.225   8.967  1.00  0.00     0.368 C
HETATM   27  O14 UNL     1      -3.660  -7.980   9.543  1.00  0.00    -0.282 OA
ENDBRANCH  24  26
ENDBRANCH  22  24
ENDBRANCH  19  20
ENDBRANCH  17  19
ENDBRANCH   7  17
ENDBRANCH   6   7
BRANCH   1  28
HETATM   28  O2  UNL     1      -7.481  -0.413   5.199  1.00  0.00    -0.313 OA
BRANCH  28  29
HETATM   29  C2  UNL     1      -8.778  -0.777   4.981  1.00  0.00     0.255 C
HETATM   30  C1  UNL     1      -9.851  -0.375   5.913  1.00  0.00     0.126 C
HETATM   31  O1  UNL     1      -9.012  -1.472   3.945  1.00  0.00    -0.266 OA
ENDBRANCH  28  29
ENDBRANCH   1  28
BRANCH   5  32
HETATM   32  O8  UNL     1      -5.972   1.503   6.525  1.00  0.00    -0.392 OA
ATOM     33  H8  UNL     1      -5.599   2.354   6.721  1.00  0.00     0.210 HD
ENDBRANCH   5  32
BRANCH   2  34
HETATM   34  O3  UNL     1      -4.514  -1.525   3.614  1.00  0.00    -0.390 OA
ATOM     35  H3  UNL     1      -3.998  -0.912   4.125  1.00  0.00     0.210 HD
ENDBRANCH   2  34
BRANCH   4  36
HETATM   36  O7  UNL     1      -5.475   2.621   4.332  1.00  0.00    -0.390 OA
ATOM     37  H7  UNL     1      -4.774   3.187   4.633  1.00  0.00     0.210 HD
ENDBRANCH   4  36
BRANCH   3  38
HETATM   38  O4  UNL     1      -5.659   0.798   2.061  1.00  0.00    -0.307 OA
BRANCH  38  39
HETATM   39  C6  UNL     1      -6.686   0.884   1.132  1.00  0.00     0.283 C
HETATM   40  O5  UNL     1      -6.491   0.259   0.039  1.00  0.00    -0.260 OA
BRANCH  39  41
HETATM   41  C7  UNL     1      -7.926   1.615   1.320  1.00  0.00     0.081 C
HETATM   42  C8  UNL     1      -9.069   1.048   1.629  1.00  0.00     0.016 C
BRANCH  42  43
HETATM   43  C9  UNL     1     -10.331   1.765   1.825  1.00  0.00     0.069 C
HETATM   44  C10 UNL     1     -10.422   3.107   1.180  1.00  0.00     0.050 C
HETATM   45  C11 UNL     1     -10.653   1.968   3.310  1.00  0.00     0.050 C
BRANCH  43  46
HETATM   46  O6  UNL     1     -11.376   0.989   1.283  1.00  0.00    -0.387 OA
ATOM     47  H6  UNL     1     -11.704   1.427   0.506  1.00  0.00     0.211 HD
ENDBRANCH  43  46
ENDBRANCH  42  43
ENDBRANCH  39  41
ENDBRANCH  38  39
ENDBRANCH   3  38
TORSDOF 19
ENDMDL