MODEL 1
REMARK VINA RESULT: -7.142563990      0.000      0.000
REMARK  14 active torsions:
REMARK  status: ('A' for Active; 'I' for Inactive)
REMARK    1  A    between atoms: O1_2  and  C2_3
REMARK    2  A    between atoms: C2_3  and  C3_5
REMARK    3  A    between atoms: C3_5  and  C4_6
REMARK    4  A    between atoms: C3_5  and  C10_17
REMARK    5  A    between atoms: C5_7  and  C6_8
REMARK       I    between atoms: C6_8  and  N1_10
REMARK    6  A    between atoms: N1_10  and  C7_12
REMARK    7  A    between atoms: C7_12  and  C9_14
REMARK    8  A    between atoms: C12_20  and  O7_21
REMARK    9  A    between atoms: C15_26  and  O9_27
REMARK   10  A    between atoms: O9_27  and  C16_28
REMARK   11  A    between atoms: C17_29  and  O10_30
REMARK   12  A    between atoms: C19_32  and  O11_33
REMARK   13  A    between atoms: C20_35  and  C21_36
REMARK   14  A    between atoms: C21_36  and  O12_37
ROOT
HETATM    1  C10 UNL     1      -5.031  -0.534   7.313  1.00  0.00     0.133 C
HETATM    2  O6  UNL     1      -4.354   0.225   8.260  1.00  0.00    -0.371 OA
HETATM    3  C11 UNL     1      -3.019   0.212   8.084  1.00  0.00     0.203 C
HETATM    4  C12 UNL     1      -2.685  -0.386   6.767  1.00  0.00     0.174 C
HETATM    5  C13 UNL     1      -4.037  -0.862   6.254  1.00  0.00     0.190 C
HETATM    6  O8  UNL     1      -4.278  -0.031   5.144  1.00  0.00    -0.377 OA
HETATM    7  C14 UNL     1      -4.856   1.115   5.669  1.00  0.00     0.203 C
HETATM    8  C15 UNL     1      -5.958   0.401   6.543  1.00  0.00     0.184 C
ENDROOT
BRANCH   8   9
HETATM    9  O9  UNL     1      -6.698  -0.345   5.631  1.00  0.00    -0.372 OA
BRANCH   9  10
HETATM   10  C16 UNL     1      -7.897   0.243   5.231  1.00  0.00     0.163 C
HETATM   11  C17 UNL     1      -9.038  -0.429   5.915  1.00  0.00     0.182 C
HETATM   12  C19 UNL     1      -9.307  -1.699   5.108  1.00  0.00     0.186 C
HETATM   13  C20 UNL     1      -8.956  -1.322   3.685  1.00  0.00     0.120 C
HETATM   14  O13 UNL     1      -9.877  -0.465   3.084  1.00  0.00    -0.364 OA
HETATM   15  C25 UNL     1      -8.015  -0.149   3.757  1.00  0.00     0.090 C
HETATM   16  C22 UNL     1      -8.951   0.591   2.900  1.00  0.00     0.064 C
HETATM   17  C23 UNL     1      -8.560   0.584   1.412  1.00  0.00     0.046 C
HETATM   18  C24 UNL     1      -9.546   1.876   3.331  1.00  0.00     0.046 C
BRANCH  11  19
HETATM   19  O10 UNL     1     -10.228   0.286   5.885  1.00  0.00    -0.385 OA
HETATM   20  C18 UNL     1     -11.319  -0.357   6.394  1.00  0.00     0.202 C
ENDBRANCH  11  19
BRANCH  12  21
HETATM   21  O11 UNL     1      -8.554  -2.752   5.586  1.00  0.00    -0.390 OA
ATOM     22  H11 UNL     1      -8.484  -3.439   4.935  1.00  0.00     0.210 HD
ENDBRANCH  12  21
BRANCH  13  23
HETATM   23  C21 UNL     1      -8.483  -2.451   2.826  1.00  0.00     0.205 C
BRANCH  23  24
HETATM   24  O12 UNL     1      -9.420  -2.849   1.885  1.00  0.00    -0.398 OA
ATOM     25  H12 UNL     1      -9.214  -3.685   1.483  1.00  0.00     0.209 HD
ENDBRANCH  23  24
ENDBRANCH  13  23
ENDBRANCH   9  10
ENDBRANCH   8   9
BRANCH   1  26
HETATM   26  C3  UNL     1      -5.785  -1.650   7.922  1.00  0.00     0.148 C
BRANCH  26  27
HETATM   27  C2  UNL     1      -6.058  -1.291   9.379  1.00  0.00     0.269 C
HETATM   28  O2  UNL     1      -5.309  -1.496  10.322  1.00  0.00    -0.264 OA
BRANCH  27  29
HETATM   29  O1  UNL     1      -7.284  -0.660   9.680  1.00  0.00    -0.326 OA
HETATM   30  C1  UNL     1      -8.027  -1.004  10.832  1.00  0.00     0.213 C
ENDBRANCH  27  29
ENDBRANCH  26  27
BRANCH  26  31
HETATM   31  C4  UNL     1      -5.320  -3.005   7.927  1.00  0.00    -0.004 C
HETATM   32  C5  UNL     1      -4.203  -3.635   8.047  1.00  0.00     0.071 C
BRANCH  32  33
HETATM   33  C6  UNL     1      -4.171  -5.128   7.993  1.00  0.00     0.241 C
HETATM   34  O3  UNL     1      -3.694  -5.656   6.970  1.00  0.00    -0.269 OA
HETATM   35  N1  UNL     1      -4.651  -5.937   9.040  1.00  0.00    -0.344 N
ATOM     36  H1  UNL     1      -5.038  -5.486   9.869  1.00  0.00     0.163 HD
BRANCH  35  37
HETATM   37  C7  UNL     1      -4.618  -7.380   8.987  1.00  0.00     0.181 C
HETATM   38  C8  UNL     1      -5.903  -7.896   8.429  1.00  0.00     0.043 C
BRANCH  37  39
HETATM   39  C9  UNL     1      -4.366  -7.976  10.320  1.00  0.00     0.196 C
HETATM   40  O4  UNL     1      -3.740  -7.364  11.218  1.00  0.00    -0.646 OA
HETATM   41  O5  UNL     1      -4.823  -9.251  10.613  1.00  0.00    -0.646 OA
ENDBRANCH  37  39
ENDBRANCH  35  37
ENDBRANCH  32  33
ENDBRANCH  26  31
ENDBRANCH   1  26
BRANCH   4  42
HETATM   42  O7  UNL     1      -2.063   0.506   5.907  1.00  0.00    -0.391 OA
ATOM     43  H7  UNL     1      -2.555   0.659   5.108  1.00  0.00     0.210 HD
ENDBRANCH   4  42
TORSDOF 14
ENDMDL