MODEL 3
REMARK VINA RESULT: -6.309727549      2.333      4.780
REMARK  16 active torsions:
REMARK  status: ('A' for Active; 'I' for Inactive)
REMARK    1  A    between atoms: O1_2  and  C2_3
REMARK    2  A    between atoms: C2_3  and  C3_5
REMARK    3  A    between atoms: C3_5  and  C4_6
REMARK    4  A    between atoms: C4_6  and  N1_7
REMARK    5  A    between atoms: C4_6  and  C10_16
REMARK       I    between atoms: N1_7  and  C5_9
REMARK    6  A    between atoms: C5_9  and  O4_11
REMARK    7  A    between atoms: O4_11  and  C6_12
REMARK    8  A    between atoms: C10_16  and  N2_17
REMARK    9  A    between atoms: C10_16  and  C19_35
REMARK   10  A    between atoms: C12_20  and  C13_21
REMARK   11  A    between atoms: C14_24  and  O7_25
REMARK   12  A    between atoms: C15_27  and  O8_28
REMARK       I    between atoms: N3_31  and  C17_32
REMARK   13  A    between atoms: C19_35  and  C20_36
REMARK   14  A    between atoms: C19_35  and  C22_40
REMARK   15  A    between atoms: C20_36  and  C21_37
REMARK   16  A    between atoms: C22_40  and  O13_42
ROOT
HETATM    1  C10 UNL     1      -6.109  -2.011   6.331  1.00  0.00     0.025 C
ENDROOT
BRANCH   1   2
HETATM    2  C4  UNL     1      -4.795  -2.659   6.600  1.00  0.00     0.142 C
BRANCH   2   3
HETATM    3  C3  UNL     1      -4.690  -4.085   6.134  1.00  0.00     0.142 C
BRANCH   3   4
HETATM    4  C2  UNL     1      -3.928  -4.936   7.057  1.00  0.00     0.260 C
HETATM    5  O2  UNL     1      -2.993  -4.436   7.735  1.00  0.00    -0.265 OA
BRANCH   4   6
HETATM    6  O1  UNL     1      -4.190  -6.285   7.222  1.00  0.00    -0.326 OA
HETATM    7  C1  UNL     1      -4.926  -6.784   8.320  1.00  0.00     0.213 C
ENDBRANCH   4   6
ENDBRANCH   3   4
ENDBRANCH   2   3
BRANCH   2   8
HETATM    8  N1  UNL     1      -3.668  -1.857   6.152  1.00  0.00    -0.327 N
HETATM    9  C5  UNL     1      -2.929  -0.978   6.982  1.00  0.00     0.361 C
HETATM   10  O3  UNL     1      -3.247  -0.866   8.191  1.00  0.00    -0.238 OA
ATOM     11  H1  UNL     1      -3.391  -1.932   5.173  1.00  0.00     0.165 HD
BRANCH   9  12
HETATM   12  O4  UNL     1      -1.864  -0.237   6.508  1.00  0.00    -0.294 OA
BRANCH  12  13
HETATM   13  C6  UNL     1      -2.016   0.824   5.584  1.00  0.00     0.061 C
HETATM   14  C7  UNL     1      -1.050   1.929   5.859  1.00  0.00     0.046 C
HETATM   15  C8  UNL     1      -1.774   0.341   4.164  1.00  0.00     0.046 C
HETATM   16  C9  UNL     1      -3.420   1.403   5.624  1.00  0.00     0.046 C
ENDBRANCH  12  13
ENDBRANCH   9  12
ENDBRANCH   2   8
ENDBRANCH   1   2
BRANCH   1  17
HETATM   17  N2  UNL     1      -6.869  -2.593   5.252  1.00  0.00    -0.349 N
HETATM   18  C11 UNL     1      -7.090  -2.117   4.104  1.00  0.00     0.103 C
HETATM   19  C12 UNL     1      -6.609  -0.816   3.575  1.00  0.00     0.185 C
HETATM   20  N3  UNL     1      -7.903  -2.924   3.223  1.00  0.00    -0.304 N
HETATM   21  C14 UNL     1      -7.625  -0.187   2.642  1.00  0.00     0.170 C
HETATM   22  C15 UNL     1      -8.153  -1.159   1.627  1.00  0.00     0.166 C
HETATM   23  C16 UNL     1      -8.861  -2.277   2.314  1.00  0.00     0.167 C
HETATM   24  C17 UNL     1      -7.828  -4.336   3.186  1.00  0.00     0.221 C
HETATM   25  C18 UNL     1      -8.678  -5.127   2.272  1.00  0.00     0.117 C
HETATM   26  O9  UNL     1      -7.031  -4.925   3.941  1.00  0.00    -0.273 OA
ATOM     27  H2  UNL     1      -7.281  -3.507   5.441  1.00  0.00     0.166 HD
BRANCH  19  28
HETATM   28  C13 UNL     1      -5.299  -0.919   2.896  1.00  0.00     0.187 C
HETATM   29  O5  UNL     1      -4.559  -1.900   3.139  1.00  0.00    -0.647 OA
HETATM   30  O6  UNL     1      -4.853   0.047   1.989  1.00  0.00    -0.647 OA
ENDBRANCH  19  28
BRANCH  21  31
HETATM   31  O7  UNL     1      -6.994   0.846   1.938  1.00  0.00    -0.392 OA
ATOM     32  H7  UNL     1      -7.024   0.637   1.012  1.00  0.00     0.210 HD
ENDBRANCH  21  31
BRANCH  22  33
HETATM   33  O8  UNL     1      -9.122  -0.451   0.876  1.00  0.00    -0.391 OA
ATOM     34  H8  UNL     1      -9.712  -1.107   0.527  1.00  0.00     0.210 HD
ENDBRANCH  22  33
ENDBRANCH   1  17
BRANCH   1  35
HETATM   35  C19 UNL     1      -6.925  -1.501   7.446  1.00  0.00     0.143 C
BRANCH  35  36
HETATM   36  C20 UNL     1      -7.065   0.035   7.302  1.00  0.00     0.133 C
BRANCH  36  37
HETATM   37  C21 UNL     1      -8.500   0.286   7.010  1.00  0.00     0.173 C
HETATM   38  O10 UNL     1      -8.857   0.768   5.881  1.00  0.00    -0.648 OA
HETATM   39  O11 UNL     1      -9.542   0.035   7.884  1.00  0.00    -0.648 OA
ENDBRANCH  36  37
ENDBRANCH  35  36
BRANCH  35  40
HETATM   40  C22 UNL     1      -6.543  -1.835   8.808  1.00  0.00     0.268 C
HETATM   41  O12 UNL     1      -6.039  -2.950   9.073  1.00  0.00    -0.264 OA
BRANCH  40  42
HETATM   42  O13 UNL     1      -6.723  -0.936   9.841  1.00  0.00    -0.326 OA
HETATM   43  C23 UNL     1      -7.667  -1.049  10.863  1.00  0.00     0.213 C
ENDBRANCH  40  42
ENDBRANCH  35  40
ENDBRANCH   1  35
TORSDOF 16
ENDMDL