MODEL 2
REMARK VINA RESULT: -6.685204738      2.543      3.679
REMARK  18 active torsions:
REMARK  status: ('A' for Active; 'I' for Inactive)
REMARK    1  A    between atoms: C2_2  and  O1_3
REMARK    2  A    between atoms: O1_3  and  C3_4
REMARK    3  A    between atoms: C3_4  and  C4_5
REMARK    4  A    between atoms: C5_7  and  O3_8
REMARK    5  A    between atoms: O3_8  and  C6_9
REMARK    6  A    between atoms: C6_9  and  C7_10
REMARK    7  A    between atoms: C10_14  and  C11_15
REMARK    8  A    between atoms: C11_15  and  O5_17
REMARK    9  A    between atoms: C13_19  and  C14_20
REMARK   10  A    between atoms: C15_21  and  C16_22
REMARK   11  A    between atoms: C16_22  and  C17_23
REMARK   12  A    between atoms: C17_23  and  C18_24
REMARK   13  A    between atoms: C18_24  and  O6_25
REMARK   14  A    between atoms: C18_24  and  N1_27
REMARK   15  A    between atoms: C23_34  and  O9_35
REMARK   16  A    between atoms: C24_37  and  O10_38
REMARK   17  A    between atoms: C25_40  and  O11_41
REMARK   18  A    between atoms: C26_43  and  O12_44
ROOT
HETATM    1  C7  UNL     1      -4.051  -0.418   6.078  1.00  0.00     0.177 C
HETATM    2  O4  UNL     1      -5.345  -0.262   6.557  1.00  0.00    -0.375 OA
HETATM    3  C8  UNL     1      -6.090  -1.465   6.531  1.00  0.00     0.133 C
HETATM    4  C9  UNL     1      -7.239  -1.418   7.475  1.00  0.00     0.040 C
HETATM    5  C10 UNL     1      -6.326  -1.913   5.166  1.00  0.00     0.056 C
HETATM    6  C13 UNL     1      -7.638  -1.494   4.492  1.00  0.00     0.124 C
HETATM    7  C21 UNL     1      -7.157  -1.543   3.059  1.00  0.00     0.268 C
HETATM    8  O7  UNL     1      -7.881  -1.496   2.040  1.00  0.00    -0.264 OA
HETATM    9  O8  UNL     1      -5.769  -1.651   3.023  1.00  0.00    -0.312 OA
HETATM   10  C22 UNL     1      -5.394  -1.136   4.259  1.00  0.00     0.178 C
HETATM   11  C23 UNL     1      -4.010  -1.129   4.710  1.00  0.00     0.179 C
ENDROOT
BRANCH   1  12
HETATM   12  C6  UNL     1      -3.104  -1.010   7.066  1.00  0.00     0.205 C
BRANCH  12  13
HETATM   13  O3  UNL     1      -2.282  -0.017   7.527  1.00  0.00    -0.356 OA
BRANCH  13  14
HETATM   14  C5  UNL     1      -2.228   0.029   8.927  1.00  0.00     0.291 C
HETATM   15  O2  UNL     1      -3.274  -0.692   9.394  1.00  0.00    -0.348 OA
HETATM   16  C4  UNL     1      -3.880  -0.255  10.578  1.00  0.00     0.179 C
HETATM   17  C26 UNL     1      -2.831   0.441  11.405  1.00  0.00     0.180 C
HETATM   18  C25 UNL     1      -2.450   1.723  10.754  1.00  0.00     0.183 C
HETATM   19  C24 UNL     1      -2.139   1.461   9.319  1.00  0.00     0.204 C
BRANCH  16  20
HETATM   20  C3  UNL     1      -4.308  -1.466  11.357  1.00  0.00     0.202 C
BRANCH  20  21
HETATM   21  O1  UNL     1      -4.325  -1.318  12.664  1.00  0.00    -0.389 OA
BRANCH  21  22
HETATM   22  C2  UNL     1      -5.369  -1.160  13.466  1.00  0.00     0.163 C
HETATM   23  C1  UNL     1      -6.749  -1.023  12.945  1.00  0.00     0.033 C
ENDBRANCH  21  22
ENDBRANCH  20  21
ENDBRANCH  16  20
BRANCH  17  24
HETATM   24  O12 UNL     1      -1.741  -0.405  11.591  1.00  0.00    -0.390 OA
ATOM     25  H12 UNL     1      -1.660  -0.628  12.511  1.00  0.00     0.210 HD
ENDBRANCH  17  24
BRANCH  18  26
HETATM   26  O11 UNL     1      -3.487   2.641  10.920  1.00  0.00    -0.390 OA
ATOM     27  H11 UNL     1      -3.495   3.031  11.787  1.00  0.00     0.210 HD
ENDBRANCH  18  26
BRANCH  19  28
HETATM   28  O10 UNL     1      -2.904   2.299   8.507  1.00  0.00    -0.388 OA
ATOM     29  H10 UNL     1      -2.587   3.194   8.493  1.00  0.00     0.210 HD
ENDBRANCH  19  28
ENDBRANCH  13  14
ENDBRANCH  12  13
ENDBRANCH   1  12
BRANCH  11  30
HETATM   30  O9  UNL     1      -3.264  -0.352   3.787  1.00  0.00    -0.390 OA
ATOM     31  H9  UNL     1      -3.728  -0.303   2.959  1.00  0.00     0.210 HD
ENDBRANCH  11  30
BRANCH   5  32
HETATM   32  C11 UNL     1      -6.288  -3.390   4.938  1.00  0.00     0.129 C
HETATM   33  C12 UNL     1      -5.330  -4.204   5.678  1.00  0.00     0.040 C
BRANCH  32  34
HETATM   34  O5  UNL     1      -7.596  -3.868   5.154  1.00  0.00    -0.395 OA
ATOM     35  H5  UNL     1      -7.637  -4.157   6.058  1.00  0.00     0.210 HD
ENDBRANCH  32  34
ENDBRANCH   5  32
BRANCH   6  36
HETATM   36  C14 UNL     1      -8.087  -0.155   4.836  1.00  0.00    -0.011 C
HETATM   37  C15 UNL     1      -9.293   0.125   5.215  1.00  0.00    -0.003 C
BRANCH  37  38
HETATM   38  C16 UNL     1     -10.401  -0.820   5.366  1.00  0.00     0.004 C
BRANCH  38  39
HETATM   39  C17 UNL     1     -11.321  -0.620   6.282  1.00  0.00     0.055 C
BRANCH  39  40
HETATM   40  C18 UNL     1     -12.538   0.106   6.189  1.00  0.00     0.137 C
BRANCH  40  41
HETATM   41  O6  UNL     1     -13.180   0.252   7.326  1.00  0.00    -0.346 OA
ATOM     42  H6  UNL     1     -14.102   0.465   7.239  1.00  0.00     0.219 HD
ENDBRANCH  40  41
BRANCH  40  43
HETATM   43  N1  UNL     1     -13.165   0.692   5.084  1.00  0.00    -0.371 N
HETATM   44  C19 UNL     1     -12.607   1.953   4.564  1.00  0.00     0.151 C
HETATM   45  C20 UNL     1     -14.317   0.205   4.372  1.00  0.00     0.151 C
ENDBRANCH  40  43
ENDBRANCH  39  40
ENDBRANCH  38  39
ENDBRANCH  37  38
ENDBRANCH   6  36
TORSDOF 18
ENDMDL