MODEL 5
REMARK VINA RESULT: -6.152887202      0.945      1.048
REMARK  15 active torsions:
REMARK  status: ('A' for Active; 'I' for Inactive)
REMARK    1  A    between atoms: O1_2  and  C2_3
REMARK    2  A    between atoms: C3_4  and  C4_5
REMARK    3  A    between atoms: C4_5  and  O2_6
REMARK    4  A    between atoms: C7_12  and  O5_13
REMARK    5  A    between atoms: O5_13  and  C8_14
REMARK    6  A    between atoms: C11_17  and  O6_18
REMARK    7  A    between atoms: C12_20  and  N1_21
REMARK    8  A    between atoms: C12_20  and  O7_32
REMARK    9  A    between atoms: N1_21  and  C13_23
REMARK   10  A    between atoms: C15_25  and  C16_26
REMARK   11  A    between atoms: C16_26  and  N2_27
REMARK   12  A    between atoms: N2_27  and  N3_28
REMARK   13  A    between atoms: O7_32  and  C18_33
REMARK   14  A    between atoms: C21_37  and  C22_38
REMARK   15  A    between atoms: C24_43  and  O12_44
ROOT
HETATM    1  C2  UNL     1      -8.624  -1.160   3.045  1.00  0.00     0.183 C
HETATM    2  C3  UNL     1      -8.624  -2.564   3.579  1.00  0.00     0.179 C
HETATM    3  O3  UNL     1      -7.530  -2.785   4.425  1.00  0.00    -0.348 OA
HETATM    4  C5  UNL     1      -7.764  -1.960   5.565  1.00  0.00     0.292 C
HETATM    5  O4  UNL     1      -6.984  -2.500   6.570  1.00  0.00    -0.350 OA
HETATM    6  C6  UNL     1      -5.680  -2.057   6.474  1.00  0.00     0.168 C
HETATM    7  C7  UNL     1      -4.697  -2.982   7.132  1.00  0.00     0.185 C
HETATM    8  C11 UNL     1      -4.307  -2.314   8.422  1.00  0.00     0.205 C
HETATM    9  C12 UNL     1      -4.446  -0.802   8.151  1.00  0.00     0.177 C
HETATM   10  C20 UNL     1      -5.479  -0.704   7.059  1.00  0.00     0.115 C
HETATM   11  C21 UNL     1      -6.676   0.094   7.286  1.00  0.00     0.234 C
HETATM   12  O11 UNL     1      -7.274   0.392   6.064  1.00  0.00    -0.362 OA
HETATM   13  C23 UNL     1      -7.421  -0.586   5.162  1.00  0.00     0.209 C
HETATM   14  C24 UNL     1      -8.535  -0.147   4.187  1.00  0.00     0.183 C
ENDROOT
BRANCH   9  15
HETATM   15  N1  UNL     1      -3.149  -0.370   7.800  1.00  0.00    -0.384 N
ATOM     16  H1  UNL     1      -2.394  -0.534   8.465  1.00  0.00     0.156 HD
BRANCH  15  17
HETATM   17  C13 UNL     1      -2.837   0.260   6.612  1.00  0.00     0.081 C
HETATM   18  C14 UNL     1      -2.790   1.765   6.533  1.00  0.00     0.036 C
HETATM   19  C15 UNL     1      -1.298   1.785   6.774  1.00  0.00     0.044 C
HETATM   20  C17 UNL     1      -1.311   0.295   6.408  1.00  0.00     0.036 C
BRANCH  19  21
HETATM   21  C16 UNL     1      -0.504   2.581   5.820  1.00  0.00     0.185 C
BRANCH  21  22
HETATM   22  N2  UNL     1       0.282   3.474   6.221  1.00  0.00    -0.350 NA
BRANCH  22  23
HETATM   23  N3  UNL     1       1.190   4.095   6.815  1.00  0.00    -0.281 N
ATOM     24  H32 UNL     1       0.777   3.964   7.739  1.00  0.00     0.191 HD
ATOM     25  H31 UNL     1       2.032   4.629   7.031  1.00  0.00     0.191 HD
ENDBRANCH  22  23
ENDBRANCH  21  22
ENDBRANCH  19  21
ENDBRANCH  15  17
ENDBRANCH   9  15
BRANCH   9  26
HETATM   26  O7  UNL     1      -4.812  -0.101   9.322  1.00  0.00    -0.286 OA
BRANCH  26  27
HETATM   27  C18 UNL     1      -3.916   0.367  10.231  1.00  0.00     0.257 C
HETATM   28  C19 UNL     1      -3.718  -0.342  11.516  1.00  0.00     0.126 C
HETATM   29  O8  UNL     1      -3.250   1.398   9.994  1.00  0.00    -0.266 OA
ENDBRANCH  26  27
ENDBRANCH   9  26
BRANCH   8  30
HETATM   30  O6  UNL     1      -4.970  -2.740   9.536  1.00  0.00    -0.388 OA
ATOM     31  H6  UNL     1      -5.209  -2.063  10.159  1.00  0.00     0.210 HD
ENDBRANCH   8  30
BRANCH   7  32
HETATM   32  O5  UNL     1      -5.256  -4.223   7.258  1.00  0.00    -0.376 OA
BRANCH  32  33
HETATM   33  C8  UNL     1      -4.341  -5.262   7.139  1.00  0.00     0.114 C
HETATM   34  C9  UNL     1      -4.672  -6.335   8.152  1.00  0.00     0.039 C
HETATM   35  C10 UNL     1      -4.276  -5.876   5.788  1.00  0.00     0.039 C
ENDBRANCH  32  33
ENDBRANCH   7  32
BRANCH  11  36
HETATM   36  C22 UNL     1      -7.702  -0.251   8.229  1.00  0.00     0.203 C
HETATM   37  O9  UNL     1      -8.878   0.152   8.009  1.00  0.00    -0.646 OA
HETATM   38  O10 UNL     1      -7.622  -0.988   9.399  1.00  0.00    -0.646 OA
ENDBRANCH  11  36
BRANCH  14  39
HETATM   39  O12 UNL     1      -8.345   1.118   3.705  1.00  0.00    -0.390 OA
ATOM     40  H12 UNL     1      -8.637   1.768   4.334  1.00  0.00     0.210 HD
ENDBRANCH  14  39
BRANCH   2  41
HETATM   41  C4  UNL     1      -8.572  -3.582   2.473  1.00  0.00     0.198 C
BRANCH  41  42
HETATM   42  O2  UNL     1      -9.752  -3.611   1.752  1.00  0.00    -0.398 OA
ATOM     43  H2  UNL     1      -9.793  -4.368   1.180  1.00  0.00     0.209 HD
ENDBRANCH  41  42
ENDBRANCH   2  41
BRANCH   1  44
HETATM   44  O1  UNL     1      -7.614  -0.903   2.127  1.00  0.00    -0.385 OA
HETATM   45  C1  UNL     1      -8.026  -0.437   0.910  1.00  0.00     0.202 C
ENDBRANCH   1  44
TORSDOF 15
ENDMDL