MODEL 1
REMARK VINA RESULT: -6.853798831      0.000      0.000
REMARK  13 active torsions:
REMARK  status: ('A' for Active; 'I' for Inactive)
REMARK    1  A    between atoms: C2_2  and  C3_3
REMARK    2  A    between atoms: C3_3  and  N1_4
REMARK    3  A    between atoms: N1_4  and  C4_7
REMARK    4  A    between atoms: C6_10  and  C7_11
REMARK    5  A    between atoms: C7_11  and  O2_12
REMARK    6  A    between atoms: C8_14  and  O3_15
REMARK    7  A    between atoms: C9_17  and  O4_18
REMARK    8  A    between atoms: O4_18  and  C10_19
REMARK    9  A    between atoms: C11_20  and  N2_21
REMARK   10  A    between atoms: C16_30  and  O6_31
REMARK   11  A    between atoms: C18_34  and  O8_35
REMARK   12  A    between atoms: C25_42  and  O9_43
REMARK   13  A    between atoms: C26_45  and  O10_46
ROOT
HETATM    1  C10 UNL     1      -6.637  -2.451   4.918  1.00  0.00     0.190 C
HETATM    2  C11 UNL     1      -7.072  -3.042   3.601  1.00  0.00     0.218 C
HETATM    3  C12 UNL     1      -7.125  -2.072   2.417  1.00  0.00     0.072 C
HETATM    4  C13 UNL     1      -6.514  -0.873   3.014  1.00  0.00     0.180 C
HETATM    5  O5  UNL     1      -7.477  -0.518   3.972  1.00  0.00    -0.363 OA
HETATM    6  C14 UNL     1      -6.904  -1.006   5.165  1.00  0.00     0.130 C
HETATM    7  C15 UNL     1      -5.797  -0.082   5.418  1.00  0.00     0.088 C
HETATM    8  C16 UNL     1      -5.139   0.693   4.344  1.00  0.00     0.269 C
HETATM    9  O7  UNL     1      -5.821   1.221   3.306  1.00  0.00    -0.329 OA
HETATM   10  C18 UNL     1      -6.190   0.339   2.282  1.00  0.00     0.291 C
HETATM   11  C20 UNL     1      -6.264   0.938   6.473  1.00  0.00     0.027 C
HETATM   12  C21 UNL     1      -6.455   0.136   7.736  1.00  0.00     0.015 C
HETATM   13  C22 UNL     1      -7.732  -0.641   7.550  1.00  0.00     0.025 C
HETATM   14  C23 UNL     1      -8.829   0.401   7.631  1.00  0.00     0.018 C
HETATM   15  C24 UNL     1      -8.637   0.537   6.126  1.00  0.00     0.053 C
HETATM   16  C25 UNL     1      -7.514   1.563   5.973  1.00  0.00     0.130 C
HETATM   17  C26 UNL     1      -8.094  -0.866   6.146  1.00  0.00     0.104 C
ENDROOT
BRANCH   1  18
HETATM   18  O4  UNL     1      -5.375  -2.824   5.296  1.00  0.00    -0.370 OA
BRANCH  18  19
HETATM   19  C9  UNL     1      -5.241  -3.560   6.470  1.00  0.00     0.186 C
HETATM   20  C4  UNL     1      -4.146  -3.105   7.348  1.00  0.00     0.241 C
HETATM   21  C5  UNL     1      -3.169  -4.163   7.749  1.00  0.00     0.204 C
HETATM   22  O1  UNL     1      -2.997  -5.188   6.843  1.00  0.00    -0.379 OA
HETATM   23  C6  UNL     1      -4.183  -5.886   6.668  1.00  0.00     0.176 C
HETATM   24  C8  UNL     1      -5.160  -4.983   6.038  1.00  0.00     0.180 C
BRANCH  20  25
HETATM   25  N1  UNL     1      -4.720  -2.652   8.651  1.00  0.00    -0.063 N
ATOM     26  H12 UNL     1      -4.851  -3.425   9.302  1.00  0.00     0.278 HD
ATOM     27  H11 UNL     1      -5.695  -2.367   8.562  1.00  0.00     0.278 HD
BRANCH  25  28
HETATM   28  C3  UNL     1      -3.891  -1.599   9.211  1.00  0.00     0.259 C
BRANCH  28  29
HETATM   29  C2  UNL     1      -4.274  -1.441  10.641  1.00  0.00    -0.010 C
HETATM   30  C1  UNL     1      -5.491  -1.061  10.997  1.00  0.00     0.008 C
ENDBRANCH  28  29
ENDBRANCH  25  28
ENDBRANCH  20  25
BRANCH  23  31
HETATM   31  C7  UNL     1      -4.693  -6.560   7.914  1.00  0.00     0.198 C
BRANCH  31  32
HETATM   32  O2  UNL     1      -4.647  -7.946   7.785  1.00  0.00    -0.398 OA
ATOM     33  H2  UNL     1      -5.520  -8.307   7.691  1.00  0.00     0.209 HD
ENDBRANCH  31  32
ENDBRANCH  23  31
BRANCH  24  34
HETATM   34  O3  UNL     1      -6.461  -5.561   6.036  1.00  0.00    -0.390 OA
ATOM     35  H3  UNL     1      -6.710  -5.835   5.160  1.00  0.00     0.210 HD
ENDBRANCH  24  34
ENDBRANCH  18  19
ENDBRANCH   1  18
BRANCH   2  36
HETATM   36  N2  UNL     1      -8.282  -3.824   3.662  1.00  0.00    -0.072 N
ATOM     37  H23 UNL     1      -8.084  -4.800   3.439  1.00  0.00     0.274 HD
ATOM     38  H22 UNL     1      -8.591  -3.924   4.629  1.00  0.00     0.274 HD
ATOM     39  H21 UNL     1      -9.045  -3.475   3.081  1.00  0.00     0.274 HD
ENDBRANCH   2  36
BRANCH  17  40
HETATM   40  O10 UNL     1      -8.953  -1.859   5.812  1.00  0.00    -0.381 OA
HETATM   41  C27 UNL     1     -10.240  -1.609   5.530  1.00  0.00     0.202 C
ENDBRANCH  17  40
BRANCH   8  42
HETATM   42  O6  UNL     1      -4.504   1.818   4.943  1.00  0.00    -0.365 OA
HETATM   43  C17 UNL     1      -3.527   2.355   4.153  1.00  0.00     0.204 C
ENDBRANCH   8  42
BRANCH  10  44
HETATM   44  O8  UNL     1      -5.110   0.084   1.408  1.00  0.00    -0.363 OA
HETATM   45  C19 UNL     1      -4.756   1.240   0.715  1.00  0.00     0.204 C
ENDBRANCH  10  44
BRANCH  16  46
HETATM   46  O9  UNL     1      -7.843   2.715   6.733  1.00  0.00    -0.395 OA
ATOM     47  H9  UNL     1      -8.628   3.130   6.396  1.00  0.00     0.210 HD
ENDBRANCH  16  46
TORSDOF 13
ENDMDL