MODEL 4
REMARK VINA RESULT: -6.692669700      1.736      2.153
REMARK  13 active torsions:
REMARK  status: ('A' for Active; 'I' for Inactive)
REMARK    1  A    between atoms: O1_2  and  C2_3
REMARK    2  A    between atoms: C2_3  and  O2_4
REMARK    3  A    between atoms: O2_4  and  C3_5
REMARK    4  A    between atoms: C3_5  and  C4_6
REMARK    5  A    between atoms: C5_10  and  O6_11
REMARK    6  A    between atoms: C5_10  and  C20_37
REMARK    7  A    between atoms: O6_11  and  C6_12
REMARK    8  A    between atoms: C7_13  and  O7_14
REMARK    9  A    between atoms: C9_17  and  O8_18
REMARK   10  A    between atoms: C11_20  and  O9_21
REMARK   11  A    between atoms: C12_23  and  N1_24
REMARK       I    between atoms: N1_24  and  C13_26
REMARK   12  A    between atoms: C18_33  and  C19_34
REMARK   13  A    between atoms: C19_34  and  O11_35
ROOT
HETATM    1  C6  UNL     1      -7.602  -0.978   5.408  1.00  0.00     0.164 C
HETATM    2  C7  UNL     1      -8.946  -0.222   5.753  1.00  0.00     0.154 C
HETATM    3  C8  UNL     1      -9.201   0.905   4.858  1.00  0.00     0.056 C
HETATM    4  C9  UNL     1     -10.629   1.142   4.463  1.00  0.00     0.158 C
HETATM    5  C11 UNL     1     -10.628   1.298   2.955  1.00  0.00     0.170 C
HETATM    6  C12 UNL     1      -9.253   1.824   2.747  1.00  0.00     0.121 C
HETATM    7  C15 UNL     1      -8.378   0.939   3.581  1.00  0.00     0.038 C
HETATM    8  C16 UNL     1      -8.003  -0.353   3.028  1.00  0.00     0.108 C
HETATM    9  C17 UNL     1      -6.652  -0.373   2.452  1.00  0.00     0.065 C
HETATM   10  N2  UNL     1      -5.575  -0.374   1.975  1.00  0.00    -0.197 NA
HETATM   11  C18 UNL     1      -7.992  -1.507   4.041  1.00  0.00     0.059 C
ENDROOT
BRANCH  11  12
HETATM   12  C19 UNL     1      -7.187  -2.653   3.542  1.00  0.00     0.172 C
BRANCH  12  13
HETATM   13  O11 UNL     1      -7.921  -3.806   3.710  1.00  0.00    -0.400 OA
ATOM     14  H11 UNL     1      -8.357  -4.005   2.890  1.00  0.00     0.209 HD
ENDBRANCH  12  13
ENDBRANCH  11  12
BRANCH   6  15
HETATM   15  N1  UNL     1      -8.858   2.052   1.410  1.00  0.00    -0.354 N
HETATM   16  C13 UNL     1      -7.802   2.853   0.946  1.00  0.00     0.214 C
HETATM   17  C14 UNL     1      -7.512   2.993  -0.483  1.00  0.00     0.117 C
HETATM   18  O10 UNL     1      -7.102   3.454   1.785  1.00  0.00    -0.274 OA
ATOM     19  H1  UNL     1      -9.407   1.576   0.695  1.00  0.00     0.163 HD
ENDBRANCH   6  15
BRANCH   1  20
HETATM   20  O6  UNL     1      -7.433  -1.981   6.258  1.00  0.00    -0.324 OA
BRANCH  20  21
HETATM   21  C5  UNL     1      -6.520  -2.099   7.247  1.00  0.00     0.289 C
HETATM   22  O5  UNL     1      -6.126  -3.317   7.651  1.00  0.00    -0.282 OA
HETATM   23  C3  UNL     1      -4.810  -3.632   7.129  1.00  0.00     0.293 C
HETATM   24  C23 UNL     1      -4.321  -2.343   6.705  1.00  0.00     0.127 C
HETATM   25  O12 UNL     1      -5.371  -1.419   6.803  1.00  0.00    -0.316 OA
HETATM   26  C24 UNL     1      -3.183  -1.730   7.466  1.00  0.00     0.052 C
HETATM   27  C25 UNL     1      -3.904  -2.257   5.233  1.00  0.00     0.052 C
BRANCH  23  28
HETATM   28  O2  UNL     1      -4.251  -4.255   8.171  1.00  0.00    -0.319 OA
BRANCH  28  29
HETATM   29  C2  UNL     1      -4.379  -5.475   8.618  1.00  0.00     0.341 C
BRANCH  29  30
HETATM   30  O1  UNL     1      -5.527  -6.154   8.850  1.00  0.00    -0.372 OA
HETATM   31  C1  UNL     1      -5.233  -7.518   8.921  1.00  0.00     0.204 C
ENDBRANCH  29  30
ENDBRANCH  28  29
ENDBRANCH  23  28
BRANCH  23  32
HETATM   32  C4  UNL     1      -5.067  -4.601   6.019  1.00  0.00     0.242 C
HETATM   33  O3  UNL     1      -4.063  -5.124   5.491  1.00  0.00    -0.644 OA
HETATM   34  O4  UNL     1      -6.284  -4.964   5.522  1.00  0.00    -0.644 OA
ENDBRANCH  23  32
BRANCH  21  35
HETATM   35  C20 UNL     1      -6.969  -1.276   8.466  1.00  0.00     0.071 C
HETATM   36  C21 UNL     1      -6.115  -0.001   8.625  1.00  0.00     0.017 C
HETATM   37  C22 UNL     1      -6.784  -2.003   9.775  1.00  0.00     0.017 C
ENDBRANCH  21  35
ENDBRANCH  20  21
ENDBRANCH   1  20
BRANCH   2  38
HETATM   38  O7  UNL     1      -9.860  -1.263   5.763  1.00  0.00    -0.392 OA
ATOM     39  H7  UNL     1      -9.752  -1.621   4.890  1.00  0.00     0.210 HD
ENDBRANCH   2  38
BRANCH   4  40
HETATM   40  O8  UNL     1     -11.520   0.185   4.898  1.00  0.00    -0.388 OA
HETATM   41  C10 UNL     1     -12.683   0.703   5.442  1.00  0.00     0.202 C
ENDBRANCH   4  40
BRANCH   5  42
HETATM   42  O9  UNL     1     -10.938   0.134   2.309  1.00  0.00    -0.391 OA
ATOM     43  H9  UNL     1     -11.545   0.267   1.590  1.00  0.00     0.210 HD
ENDBRANCH   5  42
TORSDOF 13
ENDMDL