MODEL 4
REMARK VINA RESULT: -7.416292746      3.595      5.302
REMARK  13 active torsions:
REMARK  status: ('A' for Active; 'I' for Inactive)
REMARK    1  A    between atoms: C4_4  and  C5_5
REMARK    2  A    between atoms: C5_5  and  C6_6
REMARK    3  A    between atoms: C6_6  and  N1_7
REMARK    4  A    between atoms: C6_6  and  C24_43
REMARK       I    between atoms: N1_7  and  C7_9
REMARK    5  A    between atoms: C7_9  and  C8_11
REMARK    6  A    between atoms: C9_13  and  O3_14
REMARK    7  A    between atoms: O3_14  and  C10_15
REMARK       I    between atoms: N2_18  and  C12_20
REMARK    8  A    between atoms: C12_20  and  C13_22
REMARK    9  A    between atoms: C13_22  and  N3_24
REMARK   10  A    between atoms: C18_29  and  O7_30
REMARK   11  A    between atoms: C19_32  and  O8_33
REMARK   12  A    between atoms: C21_36  and  O9_37
REMARK   13  A    between atoms: C23_40  and  O10_41
ROOT
HETATM    1  C10 UNL     1      -4.604  -0.274   8.681  1.00  0.00     0.300 C
HETATM    2  O4  UNL     1      -3.725   0.123   9.714  1.00  0.00    -0.303 OA
HETATM    3  C11 UNL     1      -3.591  -0.482  10.941  1.00  0.00     0.153 C
HETATM    4  N2  UNL     1      -2.467  -0.462  11.556  1.00  0.00    -0.307 N
ATOM      5  H2  UNL     1      -2.403  -0.920  12.465  1.00  0.00     0.170 HD
HETATM    6  C12 UNL     1      -1.302   0.168  11.035  1.00  0.00     0.256 C
HETATM    7  O5  UNL     1      -1.173   0.205   9.785  1.00  0.00    -0.271 OA
HETATM    8  C17 UNL     1      -4.743  -1.145  11.526  1.00  0.00     0.208 C
HETATM    9  O6  UNL     1      -5.180  -0.706  12.747  1.00  0.00    -0.345 OA
HETATM   10  C18 UNL     1      -6.494  -1.175  12.879  1.00  0.00     0.287 C
HETATM   11  C19 UNL     1      -7.003  -1.431  11.446  1.00  0.00     0.182 C
HETATM   12  C20 UNL     1      -5.961  -0.704  10.677  1.00  0.00     0.090 C
HETATM   13  C21 UNL     1      -5.753  -1.122   9.253  1.00  0.00     0.183 C
ENDROOT
BRANCH   1  14
HETATM   14  O3  UNL     1      -3.984  -0.860   7.610  1.00  0.00    -0.328 OA
BRANCH  14  15
HETATM   15  C9  UNL     1      -4.774  -0.869   6.482  1.00  0.00     0.266 C
HETATM   16  O2  UNL     1      -5.520  -2.001   6.336  1.00  0.00    -0.344 OA
HETATM   17  C8  UNL     1      -5.604  -2.389   5.036  1.00  0.00     0.245 C
HETATM   18  C23 UNL     1      -4.957  -1.311   4.214  1.00  0.00     0.161 C
HETATM   19  C22 UNL     1      -3.980  -0.702   5.200  1.00  0.00     0.095 C
BRANCH  17  20
HETATM   20  C7  UNL     1      -6.991  -2.654   4.587  1.00  0.00     0.250 C
HETATM   21  N1  UNL     1      -7.352  -2.916   3.256  1.00  0.00    -0.344 N
ATOM     22  H1  UNL     1      -6.610  -2.921   2.556  1.00  0.00     0.163 HD
HETATM   23  O1  UNL     1      -7.900  -2.642   5.471  1.00  0.00    -0.271 OA
BRANCH  21  24
HETATM   24  C6  UNL     1      -8.685  -3.177   2.811  1.00  0.00     0.189 C
BRANCH  24  25
HETATM   25  C5  UNL     1      -9.102  -2.252   1.683  1.00  0.00     0.063 C
BRANCH  25  26
HETATM   26  C4  UNL     1      -8.177  -1.123   1.518  1.00  0.00    -0.022 C
HETATM   27  C2  UNL     1      -8.627   0.116   1.662  1.00  0.00    -0.091 C
HETATM   28  C1  UNL     1      -7.635   1.232   1.483  1.00  0.00     0.042 C
HETATM   29  C3  UNL     1     -10.040   0.425   1.986  1.00  0.00     0.042 C
ENDBRANCH  25  26
ENDBRANCH  24  25
BRANCH  24  30
HETATM   30  C24 UNL     1      -8.785  -4.569   2.328  1.00  0.00     0.197 C
HETATM   31  O11 UNL     1      -7.850  -5.420   2.492  1.00  0.00    -0.646 OA
HETATM   32  O12 UNL     1      -9.911  -5.032   1.661  1.00  0.00    -0.646 OA
ENDBRANCH  24  30
ENDBRANCH  21  24
ENDBRANCH  17  20
BRANCH  18  33
HETATM   33  O10 UNL     1      -4.279  -1.873   3.136  1.00  0.00    -0.392 OA
ATOM     34  H10 UNL     1      -4.719  -1.654   2.323  1.00  0.00     0.210 HD
ENDBRANCH  18  33
ENDBRANCH  14  15
ENDBRANCH   1  14
BRANCH  13  35
HETATM   35  O9  UNL     1      -5.492  -2.462   9.144  1.00  0.00    -0.390 OA
ATOM     36  H9  UNL     1      -5.772  -2.805   8.303  1.00  0.00     0.210 HD
ENDBRANCH  13  35
BRANCH  11  37
HETATM   37  O8  UNL     1      -8.292  -0.959  11.283  1.00  0.00    -0.390 OA
ATOM     38  H8  UNL     1      -8.343  -0.343  10.562  1.00  0.00     0.210 HD
ENDBRANCH  11  37
BRANCH   6  39
HETATM   39  C13 UNL     1      -0.284   0.755  11.915  1.00  0.00     0.309 C
HETATM   40  C14 UNL     1       0.256  -0.229  12.925  1.00  0.00     0.053 C
BRANCH  39  41
HETATM   41  N3  UNL     1      -0.863   1.871  12.656  1.00  0.00     0.093 N
HETATM   42  C15 UNL     1       0.034   2.304  13.704  1.00  0.00     0.310 C
HETATM   43  C16 UNL     1      -1.241   2.944  11.767  1.00  0.00     0.310 C
ENDBRANCH  39  41
ENDBRANCH   6  39
BRANCH  10  44
HETATM   44  O7  UNL     1      -7.297  -0.194  13.417  1.00  0.00    -0.369 OA
ATOM     45  H7  UNL     1      -7.414  -0.339  14.349  1.00  0.00     0.212 HD
ENDBRANCH  10  44
TORSDOF 13
ENDMDL