MODEL 1
REMARK VINA RESULT: -7.653023322      0.000      0.000
REMARK  16 active torsions:
REMARK  status: ('A' for Active; 'I' for Inactive)
REMARK    1  A    between atoms: O1_2  and  C2_3
REMARK       I    between atoms: C2_3  and  N1_5
REMARK    2  A    between atoms: N1_5  and  C4_7
REMARK    3  A    between atoms: C4_7  and  C5_8
REMARK    4  A    between atoms: C4_7  and  C6_11
REMARK    5  A    between atoms: C7_12  and  O5_13
REMARK    6  A    between atoms: C8_15  and  O6_16
REMARK    7  A    between atoms: C10_18  and  O7_19
REMARK    8  A    between atoms: C13_23  and  O8_24
REMARK    9  A    between atoms: O8_24  and  C14_25
REMARK   10  A    between atoms: C14_25  and  C15_27
REMARK   11  A    between atoms: C16_28  and  C17_29
REMARK   12  A    between atoms: C20_32  and  O10_33
REMARK   13  A    between atoms: C24_37  and  O11_38
REMARK   14  A    between atoms: C24_37  and  C25_40
REMARK   15  A    between atoms: C25_40  and  O12_41
REMARK   16  A    between atoms: C26_43  and  N2_44
ROOT
HETATM    1  C6  UNL     1      -8.457  -0.823   3.538  1.00  0.00     0.093 C
HETATM    2  C7  UNL     1      -7.768  -1.354   2.299  1.00  0.00     0.159 C
HETATM    3  C8  UNL     1      -7.926  -2.903   2.556  1.00  0.00     0.191 C
HETATM    4  C10 UNL     1      -7.308  -2.908   3.923  1.00  0.00     0.140 C
HETATM    5  C11 UNL     1      -5.861  -2.614   3.748  1.00  0.00     0.015 C
HETATM    6  C12 UNL     1      -5.208  -1.717   4.459  1.00  0.00     0.007 C
HETATM    7  C13 UNL     1      -5.844  -0.889   5.526  1.00  0.00     0.194 C
HETATM    8  C24 UNL     1      -7.225  -1.374   5.768  1.00  0.00     0.145 C
HETATM    9  C26 UNL     1      -8.041  -1.718   4.591  1.00  0.00     0.204 C
ENDROOT
BRANCH   7  10
HETATM   10  O8  UNL     1      -5.062  -1.168   6.703  1.00  0.00    -0.305 OA
BRANCH  10  11
HETATM   11  C14 UNL     1      -4.589  -0.170   7.538  1.00  0.00     0.283 C
HETATM   12  O9  UNL     1      -3.777   0.645   7.084  1.00  0.00    -0.260 OA
BRANCH  11  13
HETATM   13  C15 UNL     1      -5.069  -0.116   8.936  1.00  0.00     0.083 C
HETATM   14  C16 UNL     1      -5.865  -1.058   9.382  1.00  0.00     0.017 C
BRANCH  14  15
HETATM   15  C17 UNL     1      -6.401  -1.123  10.713  1.00  0.00    -0.036 A
HETATM   16  C18 UNL     1      -7.752  -1.218  10.917  1.00  0.00     0.014 A
HETATM   17  C19 UNL     1      -8.252  -1.280  12.214  1.00  0.00     0.037 A
HETATM   18  C20 UNL     1      -7.411  -1.250  13.299  1.00  0.00     0.068 A
HETATM   19  C22 UNL     1      -6.060  -1.155  13.055  1.00  0.00     0.037 A
HETATM   20  C23 UNL     1      -5.521  -1.091  11.806  1.00  0.00     0.014 A
BRANCH  18  21
HETATM   21  O10 UNL     1      -7.944  -1.314  14.577  1.00  0.00    -0.356 OA
HETATM   22  C21 UNL     1      -7.177  -1.932  15.587  1.00  0.00     0.210 C
ENDBRANCH  18  21
ENDBRANCH  14  15
ENDBRANCH  11  13
ENDBRANCH  10  11
ENDBRANCH   7  10
BRANCH   8  23
HETATM   23  O11 UNL     1      -6.925  -2.697   6.302  1.00  0.00    -0.382 OA
ATOM     24  H11 UNL     1      -7.662  -2.799   6.893  1.00  0.00     0.210 HD
ENDBRANCH   8  23
BRANCH   8  25
HETATM   25  C25 UNL     1      -7.962  -0.743   6.905  1.00  0.00     0.207 C
BRANCH  25  26
HETATM   26  O12 UNL     1      -7.774   0.647   6.972  1.00  0.00    -0.398 OA
ATOM     27  H12 UNL     1      -8.349   1.067   7.601  1.00  0.00     0.209 HD
ENDBRANCH  25  26
ENDBRANCH   8  25
BRANCH   9  28
HETATM   28  N2  UNL     1      -9.208  -2.417   5.209  1.00  0.00    -0.063 N
ATOM     29  H23 UNL     1     -10.080  -1.919   5.028  1.00  0.00     0.275 HD
ATOM     30  H22 UNL     1      -9.420  -3.288   4.724  1.00  0.00     0.275 HD
ATOM     31  H21 UNL     1      -9.066  -2.570   6.207  1.00  0.00     0.275 HD
ENDBRANCH   9  28
BRANCH   4  32
HETATM   32  O7  UNL     1      -7.581  -4.105   4.527  1.00  0.00    -0.380 OA
ATOM     33  H7  UNL     1      -7.218  -4.805   3.997  1.00  0.00     0.211 HD
ENDBRANCH   4  32
BRANCH   1  34
HETATM   34  C4  UNL     1      -8.715   0.602   3.655  1.00  0.00     0.199 C
BRANCH  34  35
HETATM   35  N1  UNL     1      -7.851   1.624   3.191  1.00  0.00    -0.317 N
HETATM   36  C2  UNL     1      -7.522   2.062   1.902  1.00  0.00     0.362 C
HETATM   37  O2  UNL     1      -6.628   3.000   1.817  1.00  0.00    -0.238 OA
HETATM   38  C3  UNL     1      -7.116   2.410   4.234  1.00  0.00     0.156 C
BRANCH  36  39
HETATM   39  O1  UNL     1      -8.011   1.647   0.699  1.00  0.00    -0.309 OA
HETATM   40  C1  UNL     1      -7.258   1.812  -0.483  1.00  0.00     0.215 C
ENDBRANCH  36  39
ENDBRANCH  34  35
BRANCH  34  41
HETATM   41  C5  UNL     1     -10.066   0.958   3.048  1.00  0.00     0.197 C
HETATM   42  O3  UNL     1     -10.650   2.041   3.282  1.00  0.00    -0.646 OA
HETATM   43  O4  UNL     1     -10.688   0.057   2.200  1.00  0.00    -0.646 OA
ENDBRANCH  34  41
ENDBRANCH   1  34
BRANCH   3  44
HETATM   44  O6  UNL     1      -9.281  -3.118   2.607  1.00  0.00    -0.385 OA
HETATM   45  C9  UNL     1      -9.639  -4.400   2.173  1.00  0.00     0.202 C
ENDBRANCH   3  44
BRANCH   2  46
HETATM   46  O5  UNL     1      -8.487  -1.193   1.134  1.00  0.00    -0.392 OA
ATOM     47  H5  UNL     1      -8.000  -1.385   0.342  1.00  0.00     0.210 HD
ENDBRANCH   2  46
TORSDOF 16
ENDMDL