MODEL 1
REMARK VINA RESULT: -7.201324467      0.000      0.000
REMARK  14 active torsions:
REMARK  status: ('A' for Active; 'I' for Inactive)
REMARK    1  A    between atoms: O1_2  and  C2_3
REMARK    2  A    between atoms: C11_14  and  O4_15
REMARK    3  A    between atoms: O4_15  and  C12_16
REMARK    4  A    between atoms: C12_16  and  C13_17
REMARK    5  A    between atoms: C13_17  and  C14_18
REMARK    6  A    between atoms: C15_22  and  O5_23
REMARK    7  A    between atoms: C17_25  and  O6_26
REMARK    8  A    between atoms: O6_26  and  C18_27
REMARK    9  A    between atoms: C19_29  and  C20_30
REMARK   10  A    between atoms: C20_30  and  O8_31
REMARK   11  A    between atoms: C21_33  and  O9_34
REMARK   12  A    between atoms: C22_36  and  O10_37
REMARK   13  A    between atoms: C23_39  and  O11_40
REMARK   14  A    between atoms: C25_43  and  O12_44
ROOT
HETATM    1  C2  UNL     1      -9.475  -1.120   5.593  1.00  0.00     0.158 C
HETATM    2  C3  UNL     1      -9.203   0.028   4.640  1.00  0.00     0.042 C
HETATM    3  C4  UNL     1      -8.482   1.165   5.275  1.00  0.00     0.015 C
HETATM    4  C5  UNL     1      -8.516  -0.542   3.418  1.00  0.00     0.128 C
HETATM    5  C6  UNL     1      -7.041  -0.459   3.409  1.00  0.00     0.037 C
HETATM    6  C7  UNL     1      -6.207  -1.648   3.633  1.00  0.00     0.002 C
HETATM    7  C8  UNL     1      -7.052  -2.839   3.343  1.00  0.00     0.040 C
HETATM    8  C9  UNL     1      -8.365  -2.713   4.032  1.00  0.00     0.154 C
HETATM    9  O2  UNL     1      -9.090  -1.795   3.254  1.00  0.00    -0.377 OA
HETATM   10  C10 UNL     1      -8.385  -2.216   5.421  1.00  0.00     0.183 C
HETATM   11  O3  UNL     1      -7.324  -1.724   6.006  1.00  0.00    -0.342 OA
HETATM   12  C11 UNL     1      -6.098  -2.297   6.091  1.00  0.00     0.200 C
HETATM   13  C15 UNL     1      -5.525  -1.887   7.414  1.00  0.00     0.212 C
HETATM   14  C17 UNL     1      -4.436  -0.872   7.433  1.00  0.00     0.161 C
HETATM   15  C24 UNL     1      -3.503  -1.177   6.279  1.00  0.00     0.067 C
HETATM   16  C25 UNL     1      -4.367  -0.715   5.078  1.00  0.00     0.130 C
HETATM   17  C26 UNL     1      -5.370  -1.762   4.860  1.00  0.00     0.084 C
ENDROOT
BRANCH  14  18
HETATM   18  O6  UNL     1      -3.662  -0.856   8.555  1.00  0.00    -0.350 OA
BRANCH  18  19
HETATM   19  C18 UNL     1      -3.187   0.344   8.986  1.00  0.00     0.292 C
HETATM   20  O7  UNL     1      -3.875   0.850  10.042  1.00  0.00    -0.348 OA
HETATM   21  C19 UNL     1      -3.581   0.272  11.242  1.00  0.00     0.179 C
HETATM   22  C21 UNL     1      -2.169   0.555  11.627  1.00  0.00     0.180 C
HETATM   23  C22 UNL     1      -1.460   1.218  10.475  1.00  0.00     0.183 C
HETATM   24  C23 UNL     1      -1.719   0.465   9.168  1.00  0.00     0.204 C
BRANCH  21  25
HETATM   25  C20 UNL     1      -3.901  -1.197  11.367  1.00  0.00     0.198 C
BRANCH  25  26
HETATM   26  O8  UNL     1      -4.240  -1.427  12.728  1.00  0.00    -0.398 OA
ATOM     27  H8  UNL     1      -3.885  -2.277  12.958  1.00  0.00     0.209 HD
ENDBRANCH  25  26
ENDBRANCH  21  25
BRANCH  22  28
HETATM   28  O9  UNL     1      -1.502  -0.603  12.015  1.00  0.00    -0.390 OA
ATOM     29  H9  UNL     1      -1.412  -0.655  12.960  1.00  0.00     0.210 HD
ENDBRANCH  22  28
BRANCH  23  30
HETATM   30  O10 UNL     1      -1.794   2.547  10.312  1.00  0.00    -0.390 OA
ATOM     31  H10 UNL     1      -2.373   2.708   9.577  1.00  0.00     0.210 HD
ENDBRANCH  23  30
BRANCH  24  32
HETATM   32  O11 UNL     1      -1.033  -0.739   9.264  1.00  0.00    -0.388 OA
ATOM     33  H11 UNL     1      -0.252  -0.803   8.728  1.00  0.00     0.210 HD
ENDBRANCH  24  32
ENDBRANCH  18  19
ENDBRANCH  14  18
BRANCH  13  34
HETATM   34  O5  UNL     1      -6.569  -1.300   8.165  1.00  0.00    -0.383 OA
HETATM   35  C16 UNL     1      -6.785  -1.821   9.400  1.00  0.00     0.202 C
ENDBRANCH  13  34
BRANCH  12  36
HETATM   36  O4  UNL     1      -6.018  -3.628   6.021  1.00  0.00    -0.352 OA
BRANCH  36  37
HETATM   37  C12 UNL     1      -5.125  -4.461   5.635  1.00  0.00     0.176 C
BRANCH  37  38
HETATM   38  C13 UNL     1      -4.731  -5.302   6.884  1.00  0.00     0.070 C
BRANCH  38  39
HETATM   39  C14 UNL     1      -3.420  -4.797   7.385  1.00  0.00     0.054 C
HETATM   40  N1  UNL     1      -3.308  -4.115   8.448  1.00  0.00    -0.411 N
ATOM     41  H12 UNL     1      -4.160  -3.913   8.971  1.00  0.00     0.155 HD
ATOM     42  H11 UNL     1      -2.411  -3.769   8.791  1.00  0.00     0.155 HD
ENDBRANCH  38  39
ENDBRANCH  37  38
ENDBRANCH  36  37
ENDBRANCH  12  36
BRANCH  16  43
HETATM   43  O12 UNL     1      -4.756   0.534   5.382  1.00  0.00    -0.395 OA
ATOM     44  H12 UNL     1      -5.339   0.793   4.679  1.00  0.00     0.210 HD
ENDBRANCH  16  43
BRANCH   1  45
HETATM   45  O1  UNL     1     -10.732  -1.663   5.433  1.00  0.00    -0.388 OA
HETATM   46  C1  UNL     1     -11.703  -0.980   6.175  1.00  0.00     0.202 C
ENDBRANCH   1  45
TORSDOF 14
ENDMDL