MODEL 2
REMARK VINA RESULT: -7.149394988      2.192      6.857
REMARK  17 active torsions:
REMARK  status: ('A' for Active; 'I' for Inactive)
REMARK    1  A    between atoms: C2_2  and  C3_3
REMARK    2  A    between atoms: C3_3  and  O1_4
REMARK    3  A    between atoms: O1_4  and  C4_5
REMARK    4  A    between atoms: C10_11  and  O2_12
REMARK    5  A    between atoms: O2_12  and  C11_13
REMARK    6  A    between atoms: C12_15  and  C13_16
REMARK    7  A    between atoms: C13_16  and  O4_17
REMARK    8  A    between atoms: C13_16  and  C14_19
REMARK    9  A    between atoms: C14_19  and  O5_20
REMARK   10  A    between atoms: O5_20  and  C15_21
REMARK   11  A    between atoms: C17_23  and  O6_24
REMARK   12  A    between atoms: C19_26  and  O7_27
REMARK   13  A    between atoms: C20_29  and  C21_30
REMARK   14  A    between atoms: C21_30  and  O8_31
REMARK   15  A    between atoms: C22_34  and  O10_35
REMARK   16  A    between atoms: C23_37  and  O11_38
REMARK   17  A    between atoms: C24_40  and  O12_41
ROOT
HETATM    1  C11 UNL     1      -5.489  -2.711   4.292  1.00  0.00     0.292 C
HETATM    2  O3  UNL     1      -5.225  -2.114   5.535  1.00  0.00    -0.348 OA
HETATM    3  C12 UNL     1      -3.935  -2.444   5.961  1.00  0.00     0.186 C
HETATM    4  C22 UNL     1      -3.914  -3.893   6.348  1.00  0.00     0.181 C
HETATM    5  C23 UNL     1      -5.117  -4.608   5.857  1.00  0.00     0.183 C
HETATM    6  C24 UNL     1      -5.600  -4.216   4.482  1.00  0.00     0.204 C
ENDROOT
BRANCH   3   7
HETATM    7  C13 UNL     1      -3.662  -1.594   7.195  1.00  0.00     0.173 C
BRANCH   7   8
HETATM    8  O4  UNL     1      -2.390  -1.952   7.725  1.00  0.00    -0.391 OA
ATOM      9  H4  UNL     1      -2.468  -2.045   8.667  1.00  0.00     0.210 HD
ENDBRANCH   7   8
BRANCH   7  10
HETATM   10  C14 UNL     1      -4.618  -1.861   8.326  1.00  0.00     0.205 C
BRANCH  10  11
HETATM   11  O5  UNL     1      -5.738  -1.071   8.353  1.00  0.00    -0.359 OA
BRANCH  11  12
HETATM   12  C15 UNL     1      -5.580  -0.097   9.345  1.00  0.00     0.262 C
HETATM   13  C16 UNL     1      -4.555  -0.531  10.369  1.00  0.00     0.095 C
HETATM   14  C17 UNL     1      -4.847   0.199  11.658  1.00  0.00     0.156 C
HETATM   15  C19 UNL     1      -6.138  -0.380  12.230  1.00  0.00     0.178 C
HETATM   16  C20 UNL     1      -6.991  -0.763  11.037  1.00  0.00     0.179 C
HETATM   17  O9  UNL     1      -6.800   0.147   9.989  1.00  0.00    -0.351 OA
BRANCH  14  18
HETATM   18  O6  UNL     1      -3.793   0.043  12.556  1.00  0.00    -0.388 OA
HETATM   19  C18 UNL     1      -2.612   0.405  11.947  1.00  0.00     0.202 C
ENDBRANCH  14  18
BRANCH  15  20
HETATM   20  O7  UNL     1      -6.816   0.601  12.967  1.00  0.00    -0.390 OA
ATOM     21  H7  UNL     1      -7.097   1.301  12.392  1.00  0.00     0.210 HD
ENDBRANCH  15  20
BRANCH  16  22
HETATM   22  C21 UNL     1      -8.443  -0.747  11.406  1.00  0.00     0.198 C
BRANCH  22  23
HETATM   23  O8  UNL     1      -8.768  -1.704  12.355  1.00  0.00    -0.398 OA
ATOM     24  H8  UNL     1      -9.706  -1.819  12.458  1.00  0.00     0.209 HD
ENDBRANCH  22  23
ENDBRANCH  16  22
ENDBRANCH  11  12
ENDBRANCH  10  11
ENDBRANCH   7  10
ENDBRANCH   3   7
BRANCH   4  25
HETATM   25  O10 UNL     1      -2.725  -4.471   5.872  1.00  0.00    -0.390 OA
ATOM     26  H10 UNL     1      -2.404  -5.088   6.521  1.00  0.00     0.210 HD
ENDBRANCH   4  25
BRANCH   1  27
HETATM   27  O2  UNL     1      -6.530  -2.139   3.629  1.00  0.00    -0.350 OA
BRANCH  27  28
HETATM   28  C10 UNL     1      -6.926  -0.901   4.092  1.00  0.00     0.163 C
HETATM   29  C4  UNL     1      -8.410  -0.803   4.134  1.00  0.00     0.156 C
HETATM   30  C5  UNL     1      -8.822   0.221   3.061  1.00  0.00     0.026 C
HETATM   31  C6  UNL     1      -8.557   1.568   3.662  1.00  0.00     0.009 C
HETATM   32  C25 UNL     1      -7.652   0.101   2.102  1.00  0.00    -0.032 C
HETATM   33  C7  UNL     1      -7.051   1.513   3.865  1.00  0.00     0.013 C
HETATM   34  C8  UNL     1      -6.576   0.238   3.155  1.00  0.00    -0.008 C
HETATM   35  C9  UNL     1      -5.202   0.322   2.681  1.00  0.00     0.019 C
HETATM   36  C26 UNL     1      -7.625   1.262   1.128  1.00  0.00     0.016 C
HETATM   37  C27 UNL     1      -7.644  -1.182   1.353  1.00  0.00     0.016 C
BRANCH  29  38
HETATM   38  O1  UNL     1      -8.900  -0.224   5.327  1.00  0.00    -0.379 OA
BRANCH  38  39
HETATM   39  C3  UNL     1     -10.155  -0.658   5.630  1.00  0.00     0.195 C
BRANCH  39  40
HETATM   40  C2  UNL     1     -11.126   0.336   6.085  1.00  0.00    -0.011 C
HETATM   41  C1  UNL     1     -12.047   0.805   5.251  1.00  0.00     0.009 C
ENDBRANCH  39  40
ENDBRANCH  38  39
ENDBRANCH  29  38
ENDBRANCH  27  28
ENDBRANCH   1  27
BRANCH   5  42
HETATM   42  O11 UNL     1      -4.805  -5.982   5.792  1.00  0.00    -0.390 OA
ATOM     43  H11 UNL     1      -4.363  -6.218   6.599  1.00  0.00     0.210 HD
ENDBRANCH   5  42
BRANCH   6  44
HETATM   44  O12 UNL     1      -6.956  -4.540   4.431  1.00  0.00    -0.388 OA
ATOM     45  H12 UNL     1      -7.232  -4.736   5.319  1.00  0.00     0.210 HD
ENDBRANCH   6  44
TORSDOF 17
ENDMDL