MODEL 4
REMARK VINA RESULT: -6.398054466      3.338      6.496
REMARK  15 active torsions:
REMARK  status: ('A' for Active; 'I' for Inactive)
REMARK    1  A    between atoms: S1_2  and  C2_3
REMARK    2  A    between atoms: C4_5  and  O1_6
REMARK    3  A    between atoms: O1_6  and  C5_7
REMARK    4  A    between atoms: C6_8  and  O2_9
REMARK    5  A    between atoms: O2_9  and  C7_10
REMARK    6  A    between atoms: C11_14  and  N1_15
REMARK    7  A    between atoms: C12_19  and  N2_20
REMARK    8  A    between atoms: C14_25  and  N3_26
REMARK    9  A    between atoms: C15_30  and  O3_31
REMARK   10  A    between atoms: O3_31  and  C16_32
REMARK   11  A    between atoms: C18_37  and  C19_38
REMARK   12  A    between atoms: C19_38  and  C20_39
REMARK   13  A    between atoms: C20_39  and  N5_40
REMARK   14  A    between atoms: C23_43  and  O4_44
REMARK   15  A    between atoms: C26_49  and  O6_50
ROOT
HETATM    1  C5  UNL     1      -4.354  -0.473   5.001  1.00  0.00     0.186 C
HETATM    2  C6  UNL     1      -3.692   0.681   5.705  1.00  0.00     0.184 C
HETATM    3  C12 UNL     1      -4.296   1.004   7.036  1.00  0.00     0.217 C
HETATM    4  C13 UNL     1      -4.530  -0.201   7.897  1.00  0.00     0.071 C
HETATM    5  C14 UNL     1      -5.405  -1.160   7.164  1.00  0.00     0.217 C
HETATM    6  C15 UNL     1      -4.705  -1.620   5.901  1.00  0.00     0.186 C
ENDROOT
BRANCH   6   7
HETATM    7  O3  UNL     1      -3.622  -2.439   6.178  1.00  0.00    -0.347 OA
BRANCH   7   8
HETATM    8  C16 UNL     1      -3.984  -3.391   7.109  1.00  0.00     0.350 C
HETATM    9  N4  UNL     1      -2.943  -3.534   8.117  1.00  0.00    -0.046 N
HETATM   10  C17 UNL     1      -3.228  -4.792   8.780  1.00  0.00     0.242 C
ATOM     11  H42 UNL     1      -1.996  -3.470   7.744  1.00  0.00     0.280 HD
ATOM     12  H41 UNL     1      -2.874  -2.740   8.753  1.00  0.00     0.280 HD
HETATM   13  C18 UNL     1      -3.635  -5.701   7.648  1.00  0.00     0.046 C
HETATM   14  C23 UNL     1      -4.040  -4.790   6.536  1.00  0.00     0.180 C
BRANCH  13  15
HETATM   15  C19 UNL     1      -4.753  -6.601   8.109  1.00  0.00     0.028 C
BRANCH  15  16
HETATM   16  C20 UNL     1      -4.706  -6.785   9.610  1.00  0.00     0.116 C
BRANCH  16  17
HETATM   17  N5  UNL     1      -4.043  -7.979  10.009  1.00  0.00    -0.421 N
HETATM   18  C21 UNL     1      -3.883  -8.184  11.407  1.00  0.00     0.142 C
HETATM   19  C22 UNL     1      -2.993  -8.438   9.167  1.00  0.00     0.142 C
ENDBRANCH  16  17
ENDBRANCH  15  16
ENDBRANCH  13  15
BRANCH  14  20
HETATM   20  O4  UNL     1      -3.109  -4.892   5.507  1.00  0.00    -0.391 OA
ATOM     21  H4  UNL     1      -3.289  -5.680   5.007  1.00  0.00     0.210 HD
ENDBRANCH  14  20
ENDBRANCH   7   8
ENDBRANCH   6   7
BRANCH   1  22
HETATM   22  O1  UNL     1      -5.455   0.004   4.292  1.00  0.00    -0.351 OA
BRANCH  22  23
HETATM   23  C4  UNL     1      -5.493  -0.439   2.975  1.00  0.00     0.262 C
HETATM   24  C3  UNL     1      -6.584   0.237   2.181  1.00  0.00     0.078 C
HETATM   25  C2  UNL     1      -7.962  -0.164   2.655  1.00  0.00     0.082 C
HETATM   26  C26 UNL     1      -8.007  -1.618   3.021  1.00  0.00     0.160 C
HETATM   27  C24 UNL     1      -6.784  -2.289   2.467  1.00  0.00     0.150 C
HETATM   28  O5  UNL     1      -5.587  -1.810   2.971  1.00  0.00    -0.354 OA
HETATM   29  C25 UNL     1      -6.868  -3.767   2.875  1.00  0.00     0.042 C
BRANCH  25  30
HETATM   30  S1  UNL     1      -9.143   0.305   1.373  1.00  0.00    -0.166 SA
HETATM   31  C1  UNL     1     -10.314   1.541   1.922  1.00  0.00     0.090 C
ENDBRANCH  25  30
BRANCH  26  32
HETATM   32  O6  UNL     1      -7.971  -1.769   4.406  1.00  0.00    -0.392 OA
ATOM     33  H6  UNL     1      -8.367  -2.595   4.658  1.00  0.00     0.210 HD
ENDBRANCH  26  32
ENDBRANCH  22  23
ENDBRANCH   1  22
BRANCH   5  34
HETATM   34  N3  UNL     1      -6.685  -0.637   6.805  1.00  0.00    -0.072 N
ATOM     35  H33 UNL     1      -6.703   0.375   6.928  1.00  0.00     0.274 HD
ATOM     36  H32 UNL     1      -6.822  -0.694   5.795  1.00  0.00     0.274 HD
ATOM     37  H31 UNL     1      -7.470  -1.068   7.295  1.00  0.00     0.274 HD
ENDBRANCH   5  34
BRANCH   2  38
HETATM   38  O2  UNL     1      -2.314   0.521   5.826  1.00  0.00    -0.374 OA
BRANCH  38  39
HETATM   39  C7  UNL     1      -1.820   1.072   6.996  1.00  0.00     0.152 C
HETATM   40  C8  UNL     1      -1.073   2.351   6.809  1.00  0.00     0.034 C
HETATM   41  C9  UNL     1       0.301   2.162   7.402  1.00  0.00     0.005 C
HETATM   42  C10 UNL     1       0.483   0.648   7.225  1.00  0.00     0.035 C
HETATM   43  C11 UNL     1      -0.867   0.159   7.722  1.00  0.00     0.212 C
BRANCH  43  44
HETATM   44  N1  UNL     1      -0.896   0.423   9.153  1.00  0.00    -0.073 N
ATOM     45  H13 UNL     1      -0.531   1.349   9.374  1.00  0.00     0.274 HD
ATOM     46  H12 UNL     1      -1.848   0.547   9.496  1.00  0.00     0.274 HD
ATOM     47  H11 UNL     1      -0.403  -0.310   9.662  1.00  0.00     0.274 HD
ENDBRANCH  43  44
ENDBRANCH  38  39
ENDBRANCH   2  38
BRANCH   3  48
HETATM   48  N2  UNL     1      -5.502   1.789   6.848  1.00  0.00    -0.072 N
ATOM     49  H23 UNL     1      -5.298   2.772   6.672  1.00  0.00     0.274 HD
ATOM     50  H22 UNL     1      -5.966   1.575   5.965  1.00  0.00     0.274 HD
ATOM     51  H21 UNL     1      -6.123   1.663   7.648  1.00  0.00     0.274 HD
ENDBRANCH   3  48
TORSDOF 15
ENDMDL