MODEL 2
REMARK VINA RESULT: -8.027028487      5.380      8.738
REMARK  16 active torsions:
REMARK  status: ('A' for Active; 'I' for Inactive)
REMARK    1  A    between atoms: O1_2  and  C2_3
REMARK    2  A    between atoms: C3_5  and  C4_6
REMARK    3  A    between atoms: C4_6  and  O3_7
REMARK    4  A    between atoms: C5_9  and  O4_10
REMARK    5  A    between atoms: C6_12  and  O5_13
REMARK    6  A    between atoms: O5_13  and  C7_14
REMARK    7  A    between atoms: C8_15  and  O6_16
REMARK    8  A    between atoms: C11_20  and  O7_21
REMARK    9  A    between atoms: O7_21  and  C12_22
REMARK   10  A    between atoms: C12_22  and  C14_24
REMARK   11  A    between atoms: C15_27  and  O10_28
REMARK   12  A    between atoms: C16_30  and  O11_31
REMARK   13  A    between atoms: C17_33  and  O12_34
REMARK   14  A    between atoms: O12_34  and  C18_35
REMARK   15  A    between atoms: C18_35  and  C19_37
REMARK   16  A    between atoms: C20_38  and  C21_39
ROOT
HETATM    1  C2  UNL     1      -4.779  -2.219   5.008  1.00  0.00     0.291 C
HETATM    2  O2  UNL     1      -5.131  -2.441   3.680  1.00  0.00    -0.348 OA
HETATM    3  C3  UNL     1      -6.346  -3.106   3.751  1.00  0.00     0.179 C
HETATM    4  C5  UNL     1      -7.398  -2.348   4.502  1.00  0.00     0.180 C
HETATM    5  C6  UNL     1      -6.945  -0.915   4.853  1.00  0.00     0.188 C
HETATM    6  C17 UNL     1      -5.599  -1.030   5.452  1.00  0.00     0.218 C
ENDROOT
BRANCH   5   7
HETATM    7  O5  UNL     1      -7.872  -0.208   5.518  1.00  0.00    -0.370 OA
BRANCH   7   8
HETATM    8  C7  UNL     1      -9.045   0.160   4.922  1.00  0.00     0.182 C
HETATM    9  C8  UNL     1      -9.158   1.588   4.507  1.00  0.00     0.156 C
HETATM   10  C9  UNL     1     -10.441   1.786   3.712  1.00  0.00     0.045 C
HETATM   11  C10 UNL     1     -10.394   0.916   2.487  1.00  0.00     0.015 C
HETATM   12  C11 UNL     1     -11.663   1.556   4.558  1.00  0.00     0.160 C
HETATM   13  C15 UNL     1     -11.252   0.951   5.881  1.00  0.00     0.178 C
HETATM   14  C16 UNL     1     -10.269  -0.173   5.738  1.00  0.00     0.180 C
BRANCH   9  15
HETATM   15  O6  UNL     1      -8.163   2.039   3.669  1.00  0.00    -0.392 OA
ATOM     16  H6  UNL     1      -8.365   2.000   2.742  1.00  0.00     0.210 HD
ENDBRANCH   9  15
BRANCH  12  17
HETATM   17  O7  UNL     1     -12.223   2.796   4.856  1.00  0.00    -0.367 OA
BRANCH  17  18
HETATM   18  C12 UNL     1     -12.990   3.316   3.846  1.00  0.00     0.218 C
HETATM   19  C13 UNL     1     -13.975   2.303   3.283  1.00  0.00     0.051 C
BRANCH  18  20
HETATM   20  C14 UNL     1     -13.807   4.417   4.411  1.00  0.00     0.202 C
HETATM   21  O8  UNL     1     -13.833   4.542   5.682  1.00  0.00    -0.646 OA
HETATM   22  O9  UNL     1     -14.546   5.321   3.681  1.00  0.00    -0.646 OA
ENDBRANCH  18  20
ENDBRANCH  17  18
ENDBRANCH  12  17
BRANCH  13  23
HETATM   23  O10 UNL     1     -12.405   0.444   6.479  1.00  0.00    -0.390 OA
ATOM     24  H10 UNL     1     -12.808   1.157   6.961  1.00  0.00     0.210 HD
ENDBRANCH  13  23
BRANCH  14  25
HETATM   25  O11 UNL     1     -10.941  -1.221   5.151  1.00  0.00    -0.390 OA
ATOM     26  H11 UNL     1     -11.872  -1.028   5.129  1.00  0.00     0.210 HD
ENDBRANCH  14  25
ENDBRANCH   7   8
ENDBRANCH   5   7
BRANCH   4  27
HETATM   27  O4  UNL     1      -8.610  -2.339   3.819  1.00  0.00    -0.390 OA
ATOM     28  H4  UNL     1      -8.514  -1.987   2.941  1.00  0.00     0.210 HD
ENDBRANCH   4  27
BRANCH   6  29
HETATM   29  O12 UNL     1      -5.540  -1.081   6.853  1.00  0.00    -0.305 OA
BRANCH  29  30
HETATM   30  C18 UNL     1      -5.080  -0.058   7.666  1.00  0.00     0.283 C
HETATM   31  O13 UNL     1      -4.710   0.994   7.088  1.00  0.00    -0.260 OA
BRANCH  30  32
HETATM   32  C19 UNL     1      -5.013  -0.162   9.122  1.00  0.00     0.083 C
HETATM   33  C20 UNL     1      -6.054  -0.345   9.879  1.00  0.00     0.017 C
BRANCH  33  34
HETATM   34  C21 UNL     1      -6.067  -0.457  11.321  1.00  0.00    -0.036 A
HETATM   35  C22 UNL     1      -7.259  -0.512  12.017  1.00  0.00     0.011 A
HETATM   36  C23 UNL     1      -7.306  -0.619  13.392  1.00  0.00     0.001 A
HETATM   37  C24 UNL     1      -6.140  -0.677  14.126  1.00  0.00     0.000 A
HETATM   38  C25 UNL     1      -4.947  -0.624  13.462  1.00  0.00     0.001 A
HETATM   39  C26 UNL     1      -4.923  -0.516  12.082  1.00  0.00     0.011 A
ENDBRANCH  33  34
ENDBRANCH  30  32
ENDBRANCH  29  30
ENDBRANCH   6  29
BRANCH   3  40
HETATM   40  C4  UNL     1      -6.812  -3.313   2.325  1.00  0.00     0.198 C
BRANCH  40  41
HETATM   41  O3  UNL     1      -7.163  -4.649   2.093  1.00  0.00    -0.398 OA
ATOM     42  H3  UNL     1      -6.894  -4.931   1.227  1.00  0.00     0.209 HD
ENDBRANCH  40  41
ENDBRANCH   3  40
BRANCH   1  43
HETATM   43  O1  UNL     1      -5.156  -3.314   5.782  1.00  0.00    -0.363 OA
HETATM   44  C1  UNL     1      -4.048  -4.061   6.189  1.00  0.00     0.204 C
ENDBRANCH   1  43
TORSDOF 16
ENDMDL