MODEL 2
REMARK VINA RESULT: -6.921766087      2.747      5.626
REMARK  15 active torsions:
REMARK  status: ('A' for Active; 'I' for Inactive)
REMARK    1  A    between atoms: C2_2  and  C3_3
REMARK    2  A    between atoms: C3_3  and  C5_5
REMARK    3  A    between atoms: C5_5  and  C6_6
REMARK    4  A    between atoms: C5_5  and  O1_8
REMARK    5  A    between atoms: O1_8  and  C8_9
REMARK    6  A    between atoms: C9_10  and  C10_11
REMARK    7  A    between atoms: C10_11  and  O2_12
REMARK    8  A    between atoms: C12_15  and  C13_16
REMARK    9  A    between atoms: C14_18  and  C15_19
REMARK   10  A    between atoms: C16_21  and  C17_22
REMARK   11  A    between atoms: C18_25  and  O8_26
REMARK   12  A    between atoms: C19_28  and  O9_29
REMARK   13  A    between atoms: C20_31  and  O10_32
REMARK   14  A    between atoms: C21_34  and  O11_35
REMARK   15  A    between atoms: C22_37  and  O12_38
ROOT
HETATM    1  C8  UNL     1      -4.249  -0.392   9.573  1.00  0.00     0.158 C
HETATM    2  C9  UNL     1      -3.340   0.835   9.654  1.00  0.00     0.175 C
HETATM    3  O3  UNL     1      -2.618   0.897   8.495  1.00  0.00    -0.372 OA
HETATM    4  C12 UNL     1      -3.369   0.590   7.335  1.00  0.00     0.171 C
HETATM    5  C23 UNL     1      -3.646  -0.860   7.285  1.00  0.00     0.130 C
HETATM    6  C24 UNL     1      -5.075  -1.089   6.953  1.00  0.00     0.067 C
HETATM    7  N1  UNL     1      -6.189  -1.261   6.674  1.00  0.00    -0.197 NA
HETATM    8  C25 UNL     1      -3.523  -1.386   8.731  1.00  0.00     0.033 C
HETATM    9  C26 UNL     1      -4.059  -2.777   8.756  1.00  0.00     0.014 C
ENDROOT
BRANCH   4  10
HETATM   10  C13 UNL     1      -2.662   1.192   6.201  1.00  0.00     0.183 C
HETATM   11  O4  UNL     1      -3.388   1.207   5.003  1.00  0.00    -0.370 OA
HETATM   12  C14 UNL     1      -2.394   1.644   4.128  1.00  0.00     0.185 C
HETATM   13  C21 UNL     1      -1.846   2.869   4.819  1.00  0.00     0.181 C
HETATM   14  C22 UNL     1      -2.185   2.579   6.294  1.00  0.00     0.181 C
BRANCH  12  15
HETATM   15  C15 UNL     1      -2.927   1.923   2.749  1.00  0.00     0.185 C
HETATM   16  O5  UNL     1      -4.192   2.503   2.809  1.00  0.00    -0.362 OA
HETATM   17  C16 UNL     1      -4.431   3.101   1.573  1.00  0.00     0.254 C
HETATM   18  C18 UNL     1      -3.880   2.316   0.423  1.00  0.00     0.189 C
HETATM   19  C19 UNL     1      -3.832   0.821   0.691  1.00  0.00     0.181 C
HETATM   20  C20 UNL     1      -3.020   0.633   1.946  1.00  0.00     0.181 C
BRANCH  17  21
HETATM   21  C17 UNL     1      -5.880   3.394   1.384  1.00  0.00     0.205 C
HETATM   22  O6  UNL     1      -6.790   2.561   1.575  1.00  0.00    -0.646 OA
HETATM   23  O7  UNL     1      -6.229   4.672   0.972  1.00  0.00    -0.646 OA
ENDBRANCH  17  21
BRANCH  18  24
HETATM   24  O8  UNL     1      -4.574   2.529  -0.757  1.00  0.00    -0.390 OA
ATOM     25  H8  UNL     1      -4.176   2.098  -1.504  1.00  0.00     0.210 HD
ENDBRANCH  18  24
BRANCH  19  26
HETATM   26  O9  UNL     1      -3.209   0.208  -0.382  1.00  0.00    -0.390 OA
ATOM     27  H9  UNL     1      -3.267  -0.732  -0.263  1.00  0.00     0.210 HD
ENDBRANCH  19  26
BRANCH  20  28
HETATM   28  O10 UNL     1      -1.756   0.182   1.576  1.00  0.00    -0.390 OA
ATOM     29  H10 UNL     1      -1.473   0.587   0.764  1.00  0.00     0.210 HD
ENDBRANCH  20  28
ENDBRANCH  12  15
BRANCH  13  30
HETATM   30  O11 UNL     1      -2.497   3.979   4.347  1.00  0.00    -0.390 OA
ATOM     31  H11 UNL     1      -3.434   3.856   4.446  1.00  0.00     0.210 HD
ENDBRANCH  13  30
BRANCH  14  32
HETATM   32  O12 UNL     1      -3.092   3.523   6.672  1.00  0.00    -0.390 OA
ATOM     33  H12 UNL     1      -2.858   4.079   7.406  1.00  0.00     0.210 HD
ENDBRANCH  14  32
ENDBRANCH   4  10
BRANCH   1  34
HETATM   34  O1  UNL     1      -4.655  -0.808  10.809  1.00  0.00    -0.377 OA
BRANCH  34  35
HETATM   35  C5  UNL     1      -5.809  -0.128  11.270  1.00  0.00     0.125 C
BRANCH  35  36
HETATM   36  C3  UNL     1      -5.743   0.050  12.762  1.00  0.00     0.010 C
HETATM   37  C4  UNL     1      -4.538  -0.493  13.434  1.00  0.00     0.012 C
BRANCH  36  38
HETATM   38  C2  UNL     1      -7.006  -0.498  13.378  1.00  0.00     0.002 C
HETATM   39  C1  UNL     1      -6.672  -1.196  14.673  1.00  0.00     0.005 C
ENDBRANCH  36  38
ENDBRANCH  35  36
BRANCH  35  40
HETATM   40  C6  UNL     1      -7.080  -0.691  10.750  1.00  0.00     0.028 C
HETATM   41  C7  UNL     1      -7.845   0.153   9.789  1.00  0.00     0.007 C
ENDBRANCH  35  40
ENDBRANCH  34  35
ENDBRANCH   1  34
BRANCH   2  42
HETATM   42  C10 UNL     1      -2.414   0.587  10.824  1.00  0.00     0.201 C
BRANCH  42  43
HETATM   43  O2  UNL     1      -1.089   0.613  10.447  1.00  0.00    -0.393 OA
HETATM   44  C11 UNL     1      -0.236   0.939  11.493  1.00  0.00     0.201 C
ENDBRANCH  42  43
ENDBRANCH   2  42
TORSDOF 15
ENDMDL