MODEL 2
REMARK VINA RESULT: -7.377844295      1.197      1.894
REMARK  17 active torsions:
REMARK  status: ('A' for Active; 'I' for Inactive)
REMARK    1  A    between atoms: O1_2  and  C2_3
REMARK    2  A    between atoms: C2_3  and  O2_4
REMARK    3  A    between atoms: O2_4  and  C3_5
REMARK    4  A    between atoms: C3_5  and  C4_6
REMARK    5  A    between atoms: C3_5  and  C5_9
REMARK    6  A    between atoms: C4_6  and  O3_7
REMARK    7  A    between atoms: C11_15  and  O4_16
REMARK    8  A    between atoms: C16_23  and  O6_24
REMARK    9  A    between atoms: O6_24  and  C17_25
REMARK   10  A    between atoms: C17_25  and  O7_26
REMARK   11  A    between atoms: C17_25  and  C18_28
REMARK   12  A    between atoms: C18_28  and  C19_30
REMARK   13  A    between atoms: C19_30  and  O9_31
REMARK   14  A    between atoms: C19_30  and  C20_33
REMARK   15  A    between atoms: C20_33  and  C21_34
REMARK   16  A    between atoms: C21_34  and  O10_35
REMARK   17  A    between atoms: C25_40  and  O11_41
ROOT
HETATM    1  C5  UNL     1     -11.188   2.100   3.236  1.00  0.00     0.154 C
HETATM    2  C6  UNL     1     -10.467   3.144   2.470  1.00  0.00     0.042 C
HETATM    3  C7  UNL     1      -9.594   2.317   1.550  1.00  0.00     0.024 C
HETATM    4  C8  UNL     1      -8.237   2.837   1.289  1.00  0.00     0.009 C
HETATM    5  C9  UNL     1      -7.482   1.509   1.096  1.00  0.00     0.016 C
HETATM    6  C10 UNL     1      -8.114   0.601   2.168  1.00  0.00     0.029 A
HETATM    7  C11 UNL     1      -7.774  -0.841   2.055  1.00  0.00     0.162 C
HETATM    8  C12 UNL     1      -6.325  -1.153   2.099  1.00  0.00     0.186 A
HETATM    9  O5  UNL     1      -5.861  -2.015   3.175  1.00  0.00    -0.367 OA
HETATM   10  C13 UNL     1      -5.455  -0.633   3.025  1.00  0.00     0.089 A
HETATM   11  C14 UNL     1      -3.963  -0.525   2.670  1.00  0.00     0.049 C
HETATM   12  C15 UNL     1      -5.864   0.208   4.166  1.00  0.00     0.075 C
HETATM   13  C16 UNL     1      -7.000  -0.371   4.989  1.00  0.00     0.157 C
HETATM   14  C25 UNL     1      -8.310   0.298   4.671  1.00  0.00     0.155 C
HETATM   15  C26 UNL     1      -8.207   1.210   3.478  1.00  0.00     0.067 A
HETATM   16  C27 UNL     1      -9.322   1.194   2.529  1.00  0.00     0.083 A
HETATM   17  O12 UNL     1     -10.527   0.865   2.948  1.00  0.00    -0.370 OA
ENDROOT
BRANCH  13  18
HETATM   18  O6  UNL     1      -6.744  -0.256   6.354  1.00  0.00    -0.346 OA
BRANCH  18  19
HETATM   19  C17 UNL     1      -5.638   0.556   6.633  1.00  0.00     0.335 C
BRANCH  19  20
HETATM   20  O7  UNL     1      -6.163   1.827   6.857  1.00  0.00    -0.364 OA
ATOM     21  H7  UNL     1      -6.305   1.878   7.795  1.00  0.00     0.213 HD
ENDBRANCH  19  20
BRANCH  19  22
HETATM   22  C18 UNL     1      -4.879   0.131   7.813  1.00  0.00     0.237 C
HETATM   23  O8  UNL     1      -3.789   0.733   7.975  1.00  0.00    -0.285 OA
BRANCH  22  24
HETATM   24  C19 UNL     1      -5.177  -0.874   8.825  1.00  0.00     0.125 C
BRANCH  24  25
HETATM   25  O9  UNL     1      -5.645  -2.097   8.318  1.00  0.00    -0.356 OA
ATOM     26  H9  UNL     1      -5.708  -2.138   7.371  1.00  0.00     0.218 HD
ENDBRANCH  24  25
BRANCH  24  27
HETATM   27  C20 UNL     1      -5.707  -0.476  10.114  1.00  0.00     0.004 C
HETATM   28  C22 UNL     1      -4.914  -0.322  11.202  1.00  0.00    -0.076 C
HETATM   29  C23 UNL     1      -3.448  -0.560  11.106  1.00  0.00     0.044 C
HETATM   30  C24 UNL     1      -5.481   0.084  12.508  1.00  0.00     0.044 C
BRANCH  27  31
HETATM   31  C21 UNL     1      -7.162  -0.245  10.316  1.00  0.00     0.206 C
BRANCH  31  32
HETATM   32  O10 UNL     1      -7.646   0.306   9.095  1.00  0.00    -0.396 OA
ATOM     33  H10 UNL     1      -7.883  -0.433   8.550  1.00  0.00     0.209 HD
ENDBRANCH  31  32
ENDBRANCH  27  31
ENDBRANCH  24  27
ENDBRANCH  22  24
ENDBRANCH  19  22
ENDBRANCH  18  19
ENDBRANCH  13  18
BRANCH  14  34
HETATM   34  O11 UNL     1      -8.733   1.140   5.731  1.00  0.00    -0.392 OA
ATOM     35  H11 UNL     1      -8.018   1.336   6.325  1.00  0.00     0.210 HD
ENDBRANCH  14  34
BRANCH   7  36
HETATM   36  O4  UNL     1      -8.343  -1.288   0.834  1.00  0.00    -0.392 OA
ATOM     37  H4  UNL     1      -7.613  -1.504   0.265  1.00  0.00     0.210 HD
ENDBRANCH   7  36
BRANCH   1  38
HETATM   38  C3  UNL     1     -12.625   1.861   2.884  1.00  0.00     0.176 C
BRANCH  38  39
HETATM   39  O2  UNL     1     -12.675   1.041   1.709  1.00  0.00    -0.357 OA
BRANCH  39  40
HETATM   40  C2  UNL     1     -13.557   1.538   0.783  1.00  0.00     0.337 C
BRANCH  40  41
HETATM   41  O1  UNL     1     -13.574   2.924   0.921  1.00  0.00    -0.372 OA
HETATM   42  C1  UNL     1     -14.515   3.517   0.084  1.00  0.00     0.204 C
ENDBRANCH  40  41
ENDBRANCH  39  40
ENDBRANCH  38  39
BRANCH  38  43
HETATM   43  C4  UNL     1     -13.460   1.187   3.916  1.00  0.00     0.198 C
BRANCH  43  44
HETATM   44  O3  UNL     1     -12.839   0.182   4.629  1.00  0.00    -0.398 OA
ATOM     45  H3  UNL     1     -13.062  -0.705   4.372  1.00  0.00     0.209 HD
ENDBRANCH  43  44
ENDBRANCH  38  43
ENDBRANCH   1  38
TORSDOF 17
ENDMDL