MODEL 1
REMARK VINA RESULT: -7.700189496      0.000      0.000
REMARK  16 active torsions:
REMARK  status: ('A' for Active; 'I' for Inactive)
REMARK    1  A    between atoms: O1_2  and  C2_3
REMARK    2  A    between atoms: C2_3  and  C3_5
REMARK    3  A    between atoms: C3_5  and  C5_7
REMARK    4  A    between atoms: C6_8  and  C7_9
REMARK    5  A    between atoms: C11_14  and  C12_15
REMARK    6  A    between atoms: C12_15  and  O4_16
REMARK    7  A    between atoms: O4_16  and  C13_17
REMARK    8  A    between atoms: C13_17  and  C14_19
REMARK    9  A    between atoms: C14_19  and  C15_20
REMARK   10  A    between atoms: C14_19  and  C17_24
REMARK   11  A    between atoms: C15_20  and  C16_21
REMARK   12  A    between atoms: C17_24  and  C18_26
REMARK   13  A    between atoms: C20_30  and  O11_31
REMARK   14  A    between atoms: C21_33  and  O12_34
REMARK   15  A    between atoms: C24_38  and  O13_39
REMARK   16  A    between atoms: C25_41  and  O14_42
ROOT
HETATM    1  C7  UNL     1      -7.422   0.717   1.799  1.00  0.00     0.032 C
HETATM    2  C8  UNL     1      -6.728   0.518   2.902  1.00  0.00     0.054 C
HETATM    3  O3  UNL     1      -5.571  -0.218   3.091  1.00  0.00    -0.343 OA
HETATM    4  C9  UNL     1      -5.053  -0.018   4.388  1.00  0.00     0.077 C
HETATM    5  C10 UNL     1      -3.592   0.293   4.259  1.00  0.00     0.047 C
HETATM    6  C11 UNL     1      -5.314  -1.241   5.245  1.00  0.00     0.054 C
HETATM    7  C19 UNL     1      -6.384  -1.003   6.239  1.00  0.00     0.057 C
HETATM    8  C20 UNL     1      -7.766  -0.817   5.781  1.00  0.00     0.154 C
HETATM    9  C21 UNL     1      -8.131   0.224   4.837  1.00  0.00     0.158 C
HETATM   10  C22 UNL     1      -7.096   1.092   4.227  1.00  0.00     0.083 C
HETATM   11  C23 UNL     1      -5.779   1.180   4.882  1.00  0.00     0.065 C
HETATM   12  C24 UNL     1      -5.794   1.357   6.358  1.00  0.00     0.155 C
HETATM   13  C25 UNL     1      -5.984   0.119   7.160  1.00  0.00     0.154 C
ENDROOT
BRANCH   6  14
HETATM   14  C12 UNL     1      -5.505  -2.475   4.413  1.00  0.00     0.187 C
BRANCH  14  15
HETATM   15  O4  UNL     1      -5.709  -3.653   5.139  1.00  0.00    -0.317 OA
BRANCH  15  16
HETATM   16  C13 UNL     1      -4.804  -4.649   5.396  1.00  0.00     0.294 C
HETATM   17  O5  UNL     1      -4.531  -5.432   4.455  1.00  0.00    -0.259 OA
BRANCH  16  18
HETATM   18  C14 UNL     1      -4.187  -4.776   6.744  1.00  0.00     0.084 C
BRANCH  18  19
HETATM   19  C15 UNL     1      -4.041  -6.154   7.258  1.00  0.00     0.162 C
BRANCH  19  20
HETATM   20  C16 UNL     1      -4.982  -6.646   8.244  1.00  0.00     0.177 C
HETATM   21  O6  UNL     1      -4.645  -6.792   9.467  1.00  0.00    -0.648 OA
HETATM   22  O7  UNL     1      -6.277  -6.977   7.904  1.00  0.00    -0.648 OA
ENDBRANCH  19  20
ENDBRANCH  18  19
BRANCH  18  23
HETATM   23  C17 UNL     1      -3.025  -3.879   6.904  1.00  0.00     0.260 C
HETATM   24  O8  UNL     1      -1.876  -4.226   6.448  1.00  0.00    -0.280 OA
BRANCH  23  25
HETATM   25  C18 UNL     1      -3.082  -2.581   7.561  1.00  0.00     0.252 C
HETATM   26  O9  UNL     1      -2.399  -1.591   7.175  1.00  0.00    -0.642 OA
HETATM   27  O10 UNL     1      -3.902  -2.390   8.646  1.00  0.00    -0.642 OA
ENDBRANCH  23  25
ENDBRANCH  18  23
ENDBRANCH  16  18
ENDBRANCH  15  16
ENDBRANCH  14  15
ENDBRANCH   6  14
BRANCH   8  28
HETATM   28  O11 UNL     1      -8.202  -2.071   5.266  1.00  0.00    -0.392 OA
ATOM     29  H11 UNL     1      -8.715  -1.885   4.489  1.00  0.00     0.210 HD
ENDBRANCH   8  28
BRANCH  13  30
HETATM   30  O14 UNL     1      -7.090   0.339   8.015  1.00  0.00    -0.393 OA
ATOM     31  H14 UNL     1      -6.943   1.183   8.426  1.00  0.00     0.210 HD
ENDBRANCH  13  30
BRANCH  12  32
HETATM   32  O13 UNL     1      -4.547   1.912   6.729  1.00  0.00    -0.392 OA
ATOM     33  H13 UNL     1      -4.589   2.845   6.558  1.00  0.00     0.210 HD
ENDBRANCH  12  32
BRANCH   9  34
HETATM   34  O12 UNL     1      -9.021   1.120   5.497  1.00  0.00    -0.392 OA
ATOM     35  H12 UNL     1      -9.022   1.938   5.015  1.00  0.00     0.210 HD
ENDBRANCH   9  34
BRANCH   1  36
HETATM   36  C6  UNL     1      -8.629   1.526   1.768  1.00  0.00    -0.001 C
HETATM   37  C5  UNL     1      -9.839   1.012   1.724  1.00  0.00    -0.012 C
BRANCH  37  38
HETATM   38  C3  UNL     1     -11.038   1.867   1.694  1.00  0.00     0.104 C
HETATM   39  C4  UNL     1     -12.120   1.070   0.953  1.00  0.00     0.025 C
BRANCH  38  40
HETATM   40  C2  UNL     1     -11.575   2.136   3.047  1.00  0.00     0.265 C
HETATM   41  O2  UNL     1     -11.663   1.215   3.900  1.00  0.00    -0.265 OA
BRANCH  40  42
HETATM   42  O1  UNL     1     -11.999   3.401   3.424  1.00  0.00    -0.326 OA
HETATM   43  C1  UNL     1     -13.092   3.609   4.316  1.00  0.00     0.213 C
ENDBRANCH  40  42
ENDBRANCH  38  40
ENDBRANCH  37  38
ENDBRANCH   1  36
TORSDOF 16
ENDMDL