MODEL 2
REMARK VINA RESULT: -8.007044613      1.559      2.808
REMARK  17 active torsions:
REMARK  status: ('A' for Active; 'I' for Inactive)
REMARK    1  A    between atoms: C2_2  and  C3_4
REMARK    2  A    between atoms: C4_5  and  O1_6
REMARK    3  A    between atoms: O1_6  and  C5_7
REMARK    4  A    between atoms: C5_7  and  C6_8
REMARK    5  A    between atoms: C6_8  and  O2_10
REMARK    6  A    between atoms: O2_10  and  C8_11
REMARK    7  A    between atoms: C9_12  and  O3_13
REMARK    8  A    between atoms: C10_15  and  O4_16
REMARK    9  A    between atoms: C11_18  and  O5_19
REMARK   10  A    between atoms: O5_19  and  C12_20
REMARK   11  A    between atoms: C12_20  and  C13_22
REMARK   12  A    between atoms: C19_28  and  O7_29
REMARK   13  A    between atoms: O7_29  and  C20_30
REMARK   14  A    between atoms: C22_33  and  O9_34
REMARK   15  A    between atoms: C23_36  and  O10_37
REMARK   16  A    between atoms: C24_39  and  O11_40
REMARK   17  A    between atoms: C25_42  and  C26_43
ROOT
HETATM    1  C8  UNL     1      -4.025  -0.659   6.073  1.00  0.00     0.184 C
HETATM    2  C9  UNL     1      -4.851  -1.546   6.947  1.00  0.00     0.181 C
HETATM    3  C10 UNL     1      -5.245  -0.692   8.161  1.00  0.00     0.181 C
HETATM    4  C11 UNL     1      -4.002  -0.397   8.909  1.00  0.00     0.195 C
HETATM    5  C19 UNL     1      -2.904   0.231   8.076  1.00  0.00     0.195 C
HETATM    6  C22 UNL     1      -2.681  -0.437   6.769  1.00  0.00     0.181 C
ENDROOT
BRANCH   1   7
HETATM    7  O2  UNL     1      -3.735  -1.161   4.826  1.00  0.00    -0.373 OA
BRANCH   7   8
HETATM    8  C6  UNL     1      -4.329  -0.464   3.783  1.00  0.00     0.142 C
HETATM    9  C7  UNL     1      -3.310   0.176   2.870  1.00  0.00     0.042 C
BRANCH   8  10
HETATM   10  C5  UNL     1      -5.088  -1.482   2.952  1.00  0.00     0.199 C
BRANCH  10  11
HETATM   11  O1  UNL     1      -6.339  -1.041   2.612  1.00  0.00    -0.380 OA
BRANCH  11  12
HETATM   12  C4  UNL     1      -7.395  -1.497   3.350  1.00  0.00     0.163 C
HETATM   13  C3  UNL     1      -8.320  -0.307   3.686  1.00  0.00     0.077 C
HETATM   14  C25 UNL     1      -8.375   0.290   2.296  1.00  0.00     0.098 C
HETATM   15  C24 UNL     1      -8.688  -0.979   1.453  1.00  0.00     0.161 C
HETATM   16  C23 UNL     1      -8.413  -2.159   2.340  1.00  0.00     0.177 C
BRANCH  13  17
HETATM   17  C2  UNL     1      -7.799   0.528   4.739  1.00  0.00     0.022 C
HETATM   18  C1  UNL     1      -7.130   1.637   4.580  1.00  0.00     0.035 C
HETATM   19  N1  UNL     1      -8.052   0.163   6.114  1.00  0.00    -0.107 NA
ENDBRANCH  13  17
BRANCH  14  20
HETATM   20  C26 UNL     1      -9.511   1.213   2.076  1.00  0.00     0.130 C
HETATM   21  C27 UNL     1      -9.271   2.484   1.354  1.00  0.00     0.091 C
HETATM   22  O12 UNL     1     -10.614   0.952   2.465  1.00  0.00    -0.298 OA
ENDBRANCH  14  20
BRANCH  15  23
HETATM   23  O11 UNL     1      -7.994  -0.981   0.264  1.00  0.00    -0.392 OA
ATOM     24  H11 UNL     1      -8.322  -0.373  -0.386  1.00  0.00     0.210 HD
ENDBRANCH  15  23
BRANCH  16  25
HETATM   25  O10 UNL     1      -7.849  -3.241   1.723  1.00  0.00    -0.390 OA
ATOM     26  H10 UNL     1      -8.402  -4.008   1.816  1.00  0.00     0.210 HD
ENDBRANCH  16  25
ENDBRANCH  11  12
ENDBRANCH  10  11
ENDBRANCH   8  10
ENDBRANCH   7   8
ENDBRANCH   1   7
BRANCH   2  27
HETATM   27  O3  UNL     1      -5.983  -2.044   6.348  1.00  0.00    -0.390 OA
ATOM     28  H3  UNL     1      -5.828  -2.761   5.745  1.00  0.00     0.210 HD
ENDBRANCH   2  27
BRANCH   6  29
HETATM   29  O9  UNL     1      -2.002  -1.627   6.972  1.00  0.00    -0.390 OA
ATOM     30  H9  UNL     1      -1.089  -1.481   7.188  1.00  0.00     0.210 HD
ENDBRANCH   6  29
BRANCH   3  31
HETATM   31  O4  UNL     1      -6.033  -1.542   8.962  1.00  0.00    -0.390 OA
ATOM     32  H4  UNL     1      -6.339  -0.992   9.674  1.00  0.00     0.210 HD
ENDBRANCH   3  31
BRANCH   5  33
HETATM   33  O7  UNL     1      -1.780   0.216   8.927  1.00  0.00    -0.311 OA
BRANCH  33  34
HETATM   34  C20 UNL     1      -0.574   0.807   8.663  1.00  0.00     0.255 C
HETATM   35  C21 UNL     1      -0.402   2.286   8.772  1.00  0.00     0.126 C
HETATM   36  O8  UNL     1       0.354   0.031   8.331  1.00  0.00    -0.266 OA
ENDBRANCH  33  34
ENDBRANCH   5  33
BRANCH   4  37
HETATM   37  O5  UNL     1      -4.202   0.387  10.065  1.00  0.00    -0.307 OA
BRANCH  37  38
HETATM   38  C12 UNL     1      -4.066  -0.048  11.353  1.00  0.00     0.293 C
HETATM   39  O6  UNL     1      -2.895  -0.214  11.797  1.00  0.00    -0.259 OA
BRANCH  38  40
HETATM   40  C13 UNL     1      -5.209  -0.317  12.202  1.00  0.00     0.039 A
HETATM   41  C14 UNL     1      -4.986  -0.678  13.519  1.00  0.00     0.017 A
HETATM   42  C15 UNL     1      -6.081  -0.931  14.318  1.00  0.00     0.001 A
HETATM   43  C16 UNL     1      -7.377  -0.835  13.849  1.00  0.00     0.000 A
HETATM   44  C17 UNL     1      -7.543  -0.471  12.528  1.00  0.00     0.001 A
HETATM   45  C18 UNL     1      -6.488  -0.211  11.701  1.00  0.00     0.017 A
ENDBRANCH  38  40
ENDBRANCH  37  38
ENDBRANCH   4  37
TORSDOF 17
ENDMDL