MODEL 3
REMARK VINA RESULT: -6.455945084      2.116      4.850
REMARK  18 active torsions:
REMARK  status: ('A' for Active; 'I' for Inactive)
REMARK    1  A    between atoms: O1_2  and  C2_3
REMARK    2  A    between atoms: C2_3  and  O3_5
REMARK    3  A    between atoms: O3_5  and  N1_6
REMARK    4  A    between atoms: C3_7  and  C4_8
REMARK    5  A    between atoms: C4_8  and  C5_10
REMARK    6  A    between atoms: C5_10  and  C6_11
REMARK    7  A    between atoms: C9_14  and  O5_15
REMARK    8  A    between atoms: C9_14  and  C10_17
REMARK    9  A    between atoms: C13_20  and  C14_21
REMARK   10  A    between atoms: C14_21  and  O6_22
REMARK   11  A    between atoms: C14_21  and  N2_24
REMARK   12  A    between atoms: N2_24  and  C15_26
REMARK   13  A    between atoms: C15_26  and  C16_27
REMARK       I    between atoms: C16_27  and  N3_29
REMARK   14  A    between atoms: N3_29  and  C17_31
REMARK   15  A    between atoms: C17_31  and  C18_32
REMARK   16  A    between atoms: C17_31  and  C20_36
REMARK   17  A    between atoms: C18_32  and  O9_34
REMARK   18  A    between atoms: C20_36  and  N6_41
REMARK       I    between atoms: N6_41  and  C22_43
ROOT
HETATM    1  C20 UNL     1      -6.354  -1.469   3.194  1.00  0.00     0.126 C
HETATM    2  N4  UNL     1      -5.186  -1.478   2.613  1.00  0.00    -0.281 N
ATOM      3  H4  UNL     1      -4.584  -2.298   2.696  1.00  0.00     0.179 HD
HETATM    4  C21 UNL     1      -4.755  -0.370   1.878  1.00  0.00     0.183 C
HETATM    5  N5  UNL     1      -4.379   0.551   1.269  1.00  0.00    -0.172 NA
ENDROOT
BRANCH   1   6
HETATM    6  C17 UNL     1      -7.230  -0.274   3.074  1.00  0.00     0.253 C
BRANCH   6   7
HETATM    7  N3  UNL     1      -7.443   0.225   4.435  1.00  0.00    -0.340 N
HETATM    8  C16 UNL     1      -6.821   1.417   4.852  1.00  0.00     0.236 C
HETATM    9  O7  UNL     1      -6.094   2.039   4.063  1.00  0.00    -0.272 OA
ATOM     10  H3  UNL     1      -8.043  -0.292   5.080  1.00  0.00     0.163 HD
BRANCH   8  11
HETATM   11  C15 UNL     1      -7.053   1.897   6.230  1.00  0.00     0.224 C
BRANCH  11  12
HETATM   12  N2  UNL     1      -5.960   1.512   7.065  1.00  0.00    -0.364 N
ATOM     13  H2  UNL     1      -5.229   2.208   7.214  1.00  0.00     0.161 HD
BRANCH  12  14
HETATM   14  C14 UNL     1      -5.790   0.279   7.698  1.00  0.00     0.135 C
BRANCH  14  15
HETATM   15  C13 UNL     1      -4.869  -0.799   7.512  1.00  0.00     0.198 C
HETATM   16  N1  UNL     1      -4.170  -1.207   8.697  1.00  0.00    -0.156 NA
HETATM   17  C3  UNL     1      -3.013  -1.553   7.867  1.00  0.00     0.194 C
HETATM   18  C9  UNL     1      -3.634  -0.726   6.732  1.00  0.00     0.111 C
BRANCH  16  19
HETATM   19  O3  UNL     1      -3.919  -0.308   9.664  1.00  0.00    -0.199 OA
BRANCH  19  20
HETATM   20  C2  UNL     1      -4.247  -0.420  10.984  1.00  0.00     0.423 C
HETATM   21  O2  UNL     1      -3.307  -0.491  11.818  1.00  0.00    -0.228 OA
BRANCH  20  22
HETATM   22  O1  UNL     1      -5.539  -0.461  11.473  1.00  0.00    -0.302 OA
HETATM   23  C1  UNL     1      -5.791  -0.462  12.875  1.00  0.00     0.215 C
ENDBRANCH  20  22
ENDBRANCH  19  20
ENDBRANCH  16  19
BRANCH  17  24
HETATM   24  C4  UNL     1      -3.011  -3.008   7.610  1.00  0.00     0.150 C
HETATM   25  O4  UNL     1      -2.157  -3.478   6.890  1.00  0.00    -0.296 OA
BRANCH  24  26
HETATM   26  C5  UNL     1      -4.015  -3.939   8.198  1.00  0.00     0.084 C
BRANCH  26  27
HETATM   27  C6  UNL     1      -3.723  -5.375   7.811  1.00  0.00    -0.016 C
HETATM   28  C7  UNL     1      -4.071  -6.340   8.895  1.00  0.00     0.010 C
HETATM   29  C8  UNL     1      -4.405  -5.727   6.521  1.00  0.00     0.010 C
ENDBRANCH  26  27
ENDBRANCH  24  26
ENDBRANCH  17  24
BRANCH  18  30
HETATM   30  O5  UNL     1      -3.693  -1.553   5.582  1.00  0.00    -0.385 OA
ATOM     31  H5  UNL     1      -4.595  -1.834   5.475  1.00  0.00     0.210 HD
ENDBRANCH  18  30
BRANCH  18  32
HETATM   32  C10 UNL     1      -2.920   0.503   6.405  1.00  0.00     0.016 C
HETATM   33  C11 UNL     1      -2.999   0.670   4.871  1.00  0.00     0.012 C
HETATM   34  C12 UNL     1      -1.477   0.609   6.744  1.00  0.00     0.012 C
ENDBRANCH  18  32
ENDBRANCH  14  15
BRANCH  14  35
HETATM   35  O6  UNL     1      -6.648   0.073   8.655  1.00  0.00    -0.348 OA
ATOM     36  H6  UNL     1      -7.550   0.055   8.360  1.00  0.00     0.219 HD
ENDBRANCH  14  35
ENDBRANCH  12  14
ENDBRANCH  11  12
ENDBRANCH   8  11
ENDBRANCH   6   7
BRANCH   6  37
HETATM   37  C18 UNL     1      -8.533  -0.590   2.433  1.00  0.00     0.289 C
HETATM   38  O8  UNL     1      -8.696  -1.653   1.792  1.00  0.00    -0.262 OA
BRANCH  37  39
HETATM   39  O9  UNL     1      -9.581   0.291   2.540  1.00  0.00    -0.325 OA
HETATM   40  C19 UNL     1      -9.717   1.475   1.805  1.00  0.00     0.213 C
ENDBRANCH  37  39
ENDBRANCH   6  37
ENDBRANCH   1   6
BRANCH   1  41
HETATM   41  N6  UNL     1      -6.803  -2.571   3.936  1.00  0.00    -0.318 N
HETATM   42  C22 UNL     1      -6.808  -3.899   3.473  1.00  0.00     0.187 C
HETATM   43  N7  UNL     1      -7.885  -4.413   3.035  1.00  0.00    -0.373 N
HETATM   44  N8  UNL     1      -5.605  -4.675   3.490  1.00  0.00    -0.064 NA
ATOM     45  H72 UNL     1      -8.742  -3.860   3.022  1.00  0.00     0.158 HD
ATOM     46  H71 UNL     1      -7.890  -5.377   2.699  1.00  0.00     0.158 HD
ATOM     47  H6  UNL     1      -7.149  -2.398   4.879  1.00  0.00     0.170 HD
ENDBRANCH   1  41
TORSDOF 18
ENDMDL