MODEL 1
REMARK VINA RESULT: -8.235733082      0.000      0.000
REMARK  16 active torsions:
REMARK  status: ('A' for Active; 'I' for Inactive)
REMARK    1  A    between atoms: O1_2  and  C2_3
REMARK    2  A    between atoms: C3_4  and  O2_5
REMARK    3  A    between atoms: C4_7  and  C5_8
REMARK    4  A    between atoms: C5_8  and  O3_9
REMARK    5  A    between atoms: C6_12  and  O5_13
REMARK    6  A    between atoms: O5_13  and  C7_14
REMARK    7  A    between atoms: C13_21  and  C14_22
REMARK    8  A    between atoms: C14_22  and  O7_23
REMARK    9  A    between atoms: O7_23  and  C15_24
REMARK   10  A    between atoms: C15_24  and  O8_25
REMARK   11  A    between atoms: C15_24  and  C16_27
REMARK   12  A    between atoms: C17_28  and  C18_29
REMARK   13  A    between atoms: C24_36  and  C25_37
REMARK   14  A    between atoms: C25_37  and  O10_38
REMARK   15  A    between atoms: C26_40  and  O11_41
REMARK   16  A    between atoms: C27_43  and  O12_44
ROOT
HETATM    1  C7  UNL     1      -8.891   0.337   3.843  1.00  0.00     0.156 C
HETATM    2  C8  UNL     1      -7.617   0.313   3.018  1.00  0.00     0.045 C
HETATM    3  C9  UNL     1      -7.320  -1.109   2.561  1.00  0.00    -0.024 C
HETATM    4  C10 UNL     1      -7.825  -1.318   1.154  1.00  0.00     0.017 C
HETATM    5  C11 UNL     1      -5.821  -1.283   2.547  1.00  0.00     0.017 C
HETATM    6  C12 UNL     1      -8.009  -2.102   3.483  1.00  0.00     0.177 C
HETATM    7  O6  UNL     1      -7.830  -1.636   4.763  1.00  0.00    -0.380 OA
HETATM    8  C13 UNL     1      -8.703  -0.606   5.012  1.00  0.00     0.174 C
ENDROOT
BRANCH   8   9
HETATM    9  C14 UNL     1      -8.255   0.107   6.253  1.00  0.00     0.205 C
BRANCH   9  10
HETATM   10  O7  UNL     1      -7.052  -0.310   6.662  1.00  0.00    -0.358 OA
BRANCH  10  11
HETATM   11  C15 UNL     1      -6.303   0.403   7.539  1.00  0.00     0.266 C
BRANCH  11  12
HETATM   12  O8  UNL     1      -6.024   1.630   6.774  1.00  0.00    -0.371 OA
ATOM     13  H8  UNL     1      -6.339   2.305   7.363  1.00  0.00     0.212 HD
ENDBRANCH  11  12
BRANCH  11  14
HETATM   14  C16 UNL     1      -4.981  -0.087   7.932  1.00  0.00     0.105 C
HETATM   15  C17 UNL     1      -4.528   0.145   9.312  1.00  0.00     0.166 C
HETATM   16  O9  UNL     1      -3.292  -0.497   9.367  1.00  0.00    -0.371 OA
HETATM   17  C24 UNL     1      -3.245  -1.491   8.435  1.00  0.00     0.175 C
HETATM   18  C26 UNL     1      -4.580  -1.479   7.656  1.00  0.00     0.161 C
BRANCH  15  19
HETATM   19  C18 UNL     1      -5.384  -0.137  10.440  1.00  0.00    -0.029 A
HETATM   20  C19 UNL     1      -6.739  -0.301  10.284  1.00  0.00     0.010 A
HETATM   21  C20 UNL     1      -7.616  -0.545  11.345  1.00  0.00     0.001 A
HETATM   22  C21 UNL     1      -7.082  -0.621  12.606  1.00  0.00     0.000 A
HETATM   23  C22 UNL     1      -5.728  -0.458  12.780  1.00  0.00     0.001 A
HETATM   24  C23 UNL     1      -4.892  -0.220  11.717  1.00  0.00     0.010 A
ENDBRANCH  15  19
BRANCH  17  25
HETATM   25  C25 UNL     1      -2.098  -1.165   7.467  1.00  0.00     0.198 C
BRANCH  25  26
HETATM   26  O10 UNL     1      -1.003  -0.739   8.209  1.00  0.00    -0.398 OA
ATOM     27  H10 UNL     1      -0.238  -1.224   7.922  1.00  0.00     0.209 HD
ENDBRANCH  25  26
ENDBRANCH  17  25
BRANCH  18  28
HETATM   28  O11 UNL     1      -5.298  -2.509   8.142  1.00  0.00    -0.392 OA
ATOM     29  H11 UNL     1      -4.978  -3.401   8.066  1.00  0.00     0.210 HD
ENDBRANCH  18  28
ENDBRANCH  11  14
ENDBRANCH  10  11
ENDBRANCH   9  10
ENDBRANCH   8   9
BRANCH   1  30
HETATM   30  O5  UNL     1      -9.111   1.600   4.305  1.00  0.00    -0.351 OA
BRANCH  30  31
HETATM   31  C6  UNL     1     -10.170   2.272   3.639  1.00  0.00     0.292 C
HETATM   32  O4  UNL     1      -9.656   2.758   2.492  1.00  0.00    -0.348 OA
HETATM   33  C4  UNL     1     -10.281   2.666   1.316  1.00  0.00     0.179 C
HETATM   34  C3  UNL     1     -11.451   1.740   1.223  1.00  0.00     0.180 C
HETATM   35  C2  UNL     1     -12.258   1.769   2.489  1.00  0.00     0.185 C
HETATM   36  C27 UNL     1     -11.313   1.341   3.592  1.00  0.00     0.204 C
BRANCH  33  37
HETATM   37  C5  UNL     1     -10.722   4.020   0.742  1.00  0.00     0.198 C
BRANCH  37  38
HETATM   38  O3  UNL     1      -9.968   4.420  -0.328  1.00  0.00    -0.398 OA
ATOM     39  H3  UNL     1      -9.683   5.324  -0.265  1.00  0.00     0.209 HD
ENDBRANCH  37  38
ENDBRANCH  33  37
BRANCH  34  40
HETATM   40  O2  UNL     1     -10.928   0.434   1.080  1.00  0.00    -0.390 OA
ATOM     41  H2  UNL     1     -11.023   0.184   0.168  1.00  0.00     0.210 HD
ENDBRANCH  34  40
BRANCH  35  42
HETATM   42  O1  UNL     1     -13.350   0.907   2.392  1.00  0.00    -0.385 OA
HETATM   43  C1  UNL     1     -14.306   1.499   1.589  1.00  0.00     0.202 C
ENDBRANCH  35  42
BRANCH  36  44
HETATM   44  O12 UNL     1     -11.968   1.339   4.832  1.00  0.00    -0.388 OA
ATOM     45  H12 UNL     1     -11.514   0.778   5.450  1.00  0.00     0.210 HD
ENDBRANCH  36  44
ENDBRANCH  30  31
ENDBRANCH   1  30
TORSDOF 16
ENDMDL