MODEL 1
REMARK VINA RESULT: -8.641020675      0.000      0.000
REMARK  16 active torsions:
REMARK  status: ('A' for Active; 'I' for Inactive)
REMARK    1  A    between atoms: O1_2  and  C2_3
REMARK    2  A    between atoms: C5_6  and  C6_7
REMARK    3  A    between atoms: C6_7  and  O2_8
REMARK    4  A    between atoms: O2_8  and  C7_9
REMARK    5  A    between atoms: C7_9  and  C8_10
REMARK    6  A    between atoms: C9_12  and  O4_13
REMARK    7  A    between atoms: O4_13  and  C10_14
REMARK    8  A    between atoms: C17_21  and  O5_22
REMARK    9  A    between atoms: C18_24  and  O6_25
REMARK   10  A    between atoms: O6_25  and  C19_26
REMARK   11  A    between atoms: C20_28  and  C21_29
REMARK   12  A    between atoms: C21_29  and  O8_30
REMARK   13  A    between atoms: C22_32  and  O9_33
REMARK   14  A    between atoms: C23_35  and  O10_36
REMARK   15  A    between atoms: C24_38  and  O11_39
REMARK   16  A    between atoms: C25_41  and  O12_42
ROOT
HETATM    1  C8  UNL     1      -4.115  -1.373   7.155  1.00  0.00     0.179 C
HETATM    2  O3  UNL     1      -4.184  -0.401   8.161  1.00  0.00    -0.348 OA
HETATM    3  C9  UNL     1      -5.518  -0.368   8.568  1.00  0.00     0.292 C
HETATM    4  C17 UNL     1      -6.281   0.304   7.464  1.00  0.00     0.205 C
HETATM    5  C18 UNL     1      -6.265  -0.611   6.228  1.00  0.00     0.189 C
HETATM    6  C25 UNL     1      -4.839  -0.895   5.887  1.00  0.00     0.181 C
ENDROOT
BRANCH   5   7
HETATM    7  O6  UNL     1      -6.965   0.069   5.266  1.00  0.00    -0.348 OA
BRANCH   7   8
HETATM    8  C19 UNL     1      -7.724  -0.688   4.414  1.00  0.00     0.292 C
HETATM    9  O7  UNL     1      -7.480  -1.995   4.693  1.00  0.00    -0.348 OA
HETATM   10  C20 UNL     1      -7.647  -2.928   3.734  1.00  0.00     0.179 C
HETATM   11  C22 UNL     1      -8.310  -2.528   2.481  1.00  0.00     0.180 C
HETATM   12  C23 UNL     1      -8.006  -1.160   1.963  1.00  0.00     0.183 C
HETATM   13  C24 UNL     1      -7.415  -0.250   3.012  1.00  0.00     0.204 C
BRANCH  10  14
HETATM   14  C21 UNL     1      -6.300  -3.628   3.541  1.00  0.00     0.198 C
BRANCH  14  15
HETATM   15  O8  UNL     1      -5.372  -2.848   2.896  1.00  0.00    -0.398 OA
ATOM     16  H8  UNL     1      -4.568  -2.737   3.390  1.00  0.00     0.209 HD
ENDBRANCH  14  15
ENDBRANCH  10  14
BRANCH  11  17
HETATM   17  O9  UNL     1      -8.062  -3.441   1.451  1.00  0.00    -0.390 OA
ATOM     18  H9  UNL     1      -8.442  -3.154   0.629  1.00  0.00     0.210 HD
ENDBRANCH  11  17
BRANCH  12  19
HETATM   19  O10 UNL     1      -9.168  -0.580   1.398  1.00  0.00    -0.390 OA
ATOM     20  H10 UNL     1      -9.410  -1.038   0.602  1.00  0.00     0.210 HD
ENDBRANCH  12  19
BRANCH  13  21
HETATM   21  O11 UNL     1      -6.044  -0.050   2.811  1.00  0.00    -0.388 OA
ATOM     22  H11 UNL     1      -5.645  -0.767   2.332  1.00  0.00     0.210 HD
ENDBRANCH  13  21
ENDBRANCH   7   8
ENDBRANCH   5   7
BRANCH   4  23
HETATM   23  O5  UNL     1      -5.770   1.505   7.061  1.00  0.00    -0.388 OA
ATOM     24  H5  UNL     1      -4.845   1.494   6.846  1.00  0.00     0.210 HD
ENDBRANCH   4  23
BRANCH   6  25
HETATM   25  O12 UNL     1      -4.144   0.225   5.450  1.00  0.00    -0.390 OA
ATOM     26  H12 UNL     1      -4.438   0.384   4.561  1.00  0.00     0.210 HD
ENDBRANCH   6  25
BRANCH   3  27
HETATM   27  O4  UNL     1      -5.736   0.131   9.816  1.00  0.00    -0.349 OA
BRANCH  27  28
HETATM   28  C10 UNL     1      -6.035  -0.828  10.795  1.00  0.00     0.154 A
HETATM   29  C11 UNL     1      -7.476  -0.791  11.099  1.00  0.00     0.005 A
HETATM   30  C12 UNL     1      -8.012  -0.557  12.269  1.00  0.00    -0.002 A
HETATM   31  C13 UNL     1      -7.143  -0.308  13.382  1.00  0.00    -0.004 A
HETATM   32  C14 UNL     1      -5.871  -0.318  13.213  1.00  0.00    -0.020 A
HETATM   33  C15 UNL     1      -5.184  -0.566  11.962  1.00  0.00     0.037 A
HETATM   34  C16 UNL     1      -4.227   0.601  11.636  1.00  0.00     0.017 C
ENDBRANCH  27  28
ENDBRANCH   3  27
BRANCH   1  35
HETATM   35  C7  UNL     1      -2.731  -1.822   6.872  1.00  0.00     0.202 C
BRANCH  35  36
HETATM   36  O2  UNL     1      -2.585  -3.161   7.134  1.00  0.00    -0.384 OA
BRANCH  36  37
HETATM   37  C6  UNL     1      -3.584  -3.964   6.663  1.00  0.00     0.206 C
BRANCH  37  38
HETATM   38  C5  UNL     1      -3.774  -5.084   7.603  1.00  0.00    -0.034 A
HETATM   39  C4  UNL     1      -4.526  -6.176   7.274  1.00  0.00     0.012 A
HETATM   40  C3  UNL     1      -4.710  -7.234   8.147  1.00  0.00     0.037 A
HETATM   41  C2  UNL     1      -4.100  -7.156   9.389  1.00  0.00     0.068 A
HETATM   42  C27 UNL     1      -3.336  -6.062   9.744  1.00  0.00     0.037 A
HETATM   43  C26 UNL     1      -3.177  -5.025   8.839  1.00  0.00     0.012 A
BRANCH  41  44
HETATM   44  O1  UNL     1      -4.259  -8.191  10.289  1.00  0.00    -0.356 OA
HETATM   45  C1  UNL     1      -3.959  -7.970  11.645  1.00  0.00     0.210 C
ENDBRANCH  41  44
ENDBRANCH  37  38
ENDBRANCH  36  37
ENDBRANCH  35  36
ENDBRANCH   1  35
TORSDOF 16
ENDMDL