MODEL 2
REMARK VINA RESULT: -7.587831543      1.127      2.059
REMARK  16 active torsions:
REMARK  status: ('A' for Active; 'I' for Inactive)
REMARK    1  A    between atoms: C2_2  and  C3_3
REMARK    2  A    between atoms: C3_3  and  N1_4
REMARK    3  A    between atoms: N1_4  and  C4_6
REMARK    4  A    between atoms: C4_6  and  C5_7
REMARK    5  A    between atoms: C7_9  and  O1_10
REMARK    6  A    between atoms: O1_10  and  C8_11
REMARK    7  A    between atoms: C9_13  and  C10_14
REMARK    8  A    between atoms: C10_14  and  S1_15
REMARK    9  A    between atoms: C12_17  and  S2_18
REMARK   10  A    between atoms: S2_18  and  C13_19
REMARK   11  A    between atoms: C14_20  and  O3_21
REMARK   12  A    between atoms: C15_23  and  C16_24
REMARK   13  A    between atoms: C17_26  and  O5_27
REMARK   14  A    between atoms: C19_29  and  O6_30
REMARK   15  A    between atoms: C20_33  and  O8_34
REMARK   16  A    between atoms: C21_36  and  O9_37
ROOT
HETATM    1  C8  UNL     1      -3.357  -2.393   8.224  1.00  0.00     0.415 C
HETATM    2  O2  UNL     1      -4.660  -2.309   8.706  1.00  0.00    -0.329 OA
HETATM    3  C9  UNL     1      -5.192  -1.145   8.006  1.00  0.00     0.175 C
HETATM    4  C12 UNL     1      -4.509  -1.431   6.697  1.00  0.00     0.218 C
HETATM    5  O7  UNL     1      -3.185  -1.445   7.184  1.00  0.00    -0.320 OA
ENDROOT
BRANCH   1   6
HETATM    6  O1  UNL     1      -3.058  -3.645   7.691  1.00  0.00    -0.331 OA
BRANCH   6   7
HETATM    7  C7  UNL     1      -3.857  -4.645   8.177  1.00  0.00     0.158 C
HETATM    8  C6  UNL     1      -3.209  -5.424   9.334  1.00  0.00     0.043 C
HETATM    9  C5  UNL     1      -4.297  -6.491   9.508  1.00  0.00     0.037 C
HETATM   10  C21 UNL     1      -4.701  -6.846   8.091  1.00  0.00     0.155 C
HETATM   11  C20 UNL     1      -4.124  -5.766   7.205  1.00  0.00     0.176 C
BRANCH   9  12
HETATM   12  C4  UNL     1      -3.808  -7.709  10.215  1.00  0.00     0.121 C
BRANCH  12  13
HETATM   13  N1  UNL     1      -3.336  -7.348  11.511  1.00  0.00    -0.418 N
ATOM     14  H1  UNL     1      -2.597  -6.656  11.638  1.00  0.00     0.153 HD
BRANCH  13  15
HETATM   15  C3  UNL     1      -3.946  -7.999  12.618  1.00  0.00     0.140 C
BRANCH  15  16
HETATM   16  C2  UNL     1      -2.973  -8.177  13.726  1.00  0.00    -0.018 C
HETATM   17  C1  UNL     1      -3.413  -8.406  14.944  1.00  0.00     0.008 C
ENDBRANCH  15  16
ENDBRANCH  13  15
ENDBRANCH  12  13
ENDBRANCH   9  12
BRANCH  10  18
HETATM   18  O9  UNL     1      -4.194  -8.080   7.687  1.00  0.00    -0.392 OA
ATOM     19  H9  UNL     1      -3.265  -8.167   7.865  1.00  0.00     0.210 HD
ENDBRANCH  10  18
BRANCH  11  20
HETATM   20  O8  UNL     1      -5.084  -5.425   6.257  1.00  0.00    -0.390 OA
ATOM     21  H8  UNL     1      -5.324  -4.508   6.302  1.00  0.00     0.210 HD
ENDBRANCH  11  20
ENDBRANCH   6   7
ENDBRANCH   1   6
BRANCH   3  22
HETATM   22  C10 UNL     1      -4.600   0.015   8.782  1.00  0.00     0.109 C
BRANCH  22  23
HETATM   23  S1  UNL     1      -4.883  -0.196  10.554  1.00  0.00    -0.171 SA
HETATM   24  C11 UNL     1      -3.392  -0.415  11.513  1.00  0.00     0.089 C
ENDBRANCH  22  23
ENDBRANCH   3  22
BRANCH   4  25
HETATM   25  S2  UNL     1      -4.908  -0.735   5.217  1.00  0.00    -0.124 SA
BRANCH  25  26
HETATM   26  C13 UNL     1      -6.089  -1.156   4.050  1.00  0.00     0.110 C
HETATM   27  C14 UNL     1      -6.774  -0.090   3.239  1.00  0.00     0.147 C
HETATM   28  C15 UNL     1      -7.727  -1.012   2.435  1.00  0.00     0.108 C
HETATM   29  C17 UNL     1      -8.427  -1.662   3.633  1.00  0.00     0.164 C
HETATM   30  C19 UNL     1      -7.348  -1.833   4.674  1.00  0.00     0.164 C
BRANCH  27  31
HETATM   31  O3  UNL     1      -6.046   0.698   2.437  1.00  0.00    -0.393 OA
ATOM     32  H3  UNL     1      -5.670   1.498   2.785  1.00  0.00     0.210 HD
ENDBRANCH  27  31
BRANCH  28  33
HETATM   33  C16 UNL     1      -8.643  -0.225   1.602  1.00  0.00     0.241 C
HETATM   34  O4  UNL     1      -8.592   0.985   1.463  1.00  0.00    -0.306 OA
ENDBRANCH  28  33
BRANCH  29  35
HETATM   35  O5  UNL     1      -9.398  -0.747   4.043  1.00  0.00    -0.387 OA
HETATM   36  C18 UNL     1      -9.708  -0.820   5.376  1.00  0.00     0.202 C
ENDBRANCH  29  35
BRANCH  30  37
HETATM   37  O6  UNL     1      -7.041  -3.185   4.887  1.00  0.00    -0.392 OA
ATOM     38  H6  UNL     1      -7.794  -3.697   4.614  1.00  0.00     0.210 HD
ENDBRANCH  30  37
ENDBRANCH  25  26
ENDBRANCH   4  25
TORSDOF 16
ENDMDL