MODEL 5
REMARK VINA RESULT: -7.042626772      1.718      3.297
REMARK  16 active torsions:
REMARK  status: ('A' for Active; 'I' for Inactive)
REMARK    1  A    between atoms: C2_2  and  C3_3
REMARK    2  A    between atoms: C3_3  and  C4_4
REMARK    3  A    between atoms: C3_3  and  N1_8
REMARK    4  A    between atoms: C4_4  and  C5_5
REMARK    5  A    between atoms: C5_5  and  O1_6
REMARK    6  A    between atoms: N1_8  and  C6_10
REMARK    7  A    between atoms: C6_10  and  C7_11
REMARK    8  A    between atoms: C8_13  and  O3_14
REMARK    9  A    between atoms: O3_14  and  C9_15
REMARK   10  A    between atoms: C13_19  and  O4_20
REMARK   11  A    between atoms: C16_23  and  O5_24
REMARK   12  A    between atoms: C19_28  and  O7_29
REMARK   13  A    between atoms: C20_31  and  O8_32
REMARK   14  A    between atoms: C21_34  and  C22_35
REMARK   15  A    between atoms: C24_38  and  C25_39
REMARK   16  A    between atoms: C25_39  and  O10_40
ROOT
HETATM    1  C7  UNL     1      -3.973  -0.929   9.371  1.00  0.00     0.173 C
HETATM    2  O2  UNL     1      -5.087  -0.944   8.567  1.00  0.00    -0.349 OA
HETATM    3  C8  UNL     1      -5.099  -1.854   7.582  1.00  0.00     0.293 C
HETATM    4  C21 UNL     1      -3.788  -1.825   6.793  1.00  0.00     0.199 C
HETATM    5  O9  UNL     1      -2.945  -0.810   7.237  1.00  0.00    -0.367 OA
HETATM    6  C24 UNL     1      -2.722  -0.970   8.630  1.00  0.00     0.176 C
ENDROOT
BRANCH   3   7
HETATM    7  O3  UNL     1      -6.163  -1.495   6.694  1.00  0.00    -0.348 OA
BRANCH   7   8
HETATM    8  C9  UNL     1      -5.846  -1.759   5.370  1.00  0.00     0.185 C
HETATM    9  C10 UNL     1      -5.473  -0.481   4.686  1.00  0.00     0.154 C
HETATM   10  C11 UNL     1      -6.218   0.736   5.138  1.00  0.00     0.037 C
HETATM   11  O6  UNL     1      -5.319  -0.549   3.347  1.00  0.00    -0.373 OA
HETATM   12  C12 UNL     1      -7.636   0.857   4.774  1.00  0.00     0.034 C
HETATM   13  C13 UNL     1      -7.961   1.226   3.371  1.00  0.00     0.123 C
HETATM   14  C15 UNL     1      -8.218  -0.079   2.589  1.00  0.00     0.066 C
HETATM   15  C16 UNL     1      -7.037  -0.499   1.787  1.00  0.00     0.154 C
HETATM   16  C18 UNL     1      -6.066  -1.351   2.583  1.00  0.00     0.182 C
HETATM   17  C19 UNL     1      -6.679  -2.553   3.184  1.00  0.00     0.180 C
HETATM   18  C20 UNL     1      -6.902  -2.551   4.654  1.00  0.00     0.181 C
BRANCH  13  19
HETATM   19  O4  UNL     1      -9.145   1.959   3.308  1.00  0.00    -0.391 OA
HETATM   20  C14 UNL     1     -10.176   1.420   4.070  1.00  0.00     0.202 C
ENDBRANCH  13  19
BRANCH  15  21
HETATM   21  O5  UNL     1      -6.304   0.637   1.381  1.00  0.00    -0.388 OA
HETATM   22  C17 UNL     1      -6.246   0.754   0.003  1.00  0.00     0.202 C
ENDBRANCH  15  21
BRANCH  17  23
HETATM   23  O7  UNL     1      -5.985  -3.728   2.802  1.00  0.00    -0.390 OA
ATOM     24  H7  UNL     1      -5.044  -3.595   2.824  1.00  0.00     0.210 HD
ENDBRANCH  17  23
BRANCH  18  25
HETATM   25  O8  UNL     1      -6.755  -3.896   5.092  1.00  0.00    -0.390 OA
ATOM     26  H8  UNL     1      -5.875  -3.967   5.444  1.00  0.00     0.210 HD
ENDBRANCH  18  25
ENDBRANCH   7   8
ENDBRANCH   3   7
BRANCH   4  27
HETATM   27  C22 UNL     1      -3.159  -3.146   6.697  1.00  0.00    -0.001 C
HETATM   28  C23 UNL     1      -3.663  -4.309   7.073  1.00  0.00     0.009 C
ENDBRANCH   4  27
BRANCH   1  29
HETATM   29  C6  UNL     1      -4.118   0.070  10.498  1.00  0.00     0.149 C
BRANCH  29  30
HETATM   30  N1  UNL     1      -5.468   0.396  10.767  1.00  0.00    -0.411 N
ATOM     31  H1  UNL     1      -5.838   1.303  10.484  1.00  0.00     0.153 HD
BRANCH  30  32
HETATM   32  C3  UNL     1      -6.291  -0.517  11.418  1.00  0.00     0.100 C
BRANCH  32  33
HETATM   33  C2  UNL     1      -6.162  -0.235  12.922  1.00  0.00    -0.013 C
HETATM   34  C1  UNL     1      -7.000  -0.602  13.728  1.00  0.00     0.009 C
ENDBRANCH  32  33
BRANCH  32  35
HETATM   35  C4  UNL     1      -7.719  -0.658  11.100  1.00  0.00     0.054 C
BRANCH  35  36
HETATM   36  C5  UNL     1      -8.278   0.307  10.088  1.00  0.00     0.166 C
BRANCH  36  37
HETATM   37  O1  UNL     1      -7.602   0.276   8.861  1.00  0.00    -0.401 OA
ATOM     38  H1  UNL     1      -7.247  -0.580   8.650  1.00  0.00     0.209 HD
ENDBRANCH  36  37
ENDBRANCH  35  36
ENDBRANCH  32  35
ENDBRANCH  30  32
ENDBRANCH  29  30
ENDBRANCH   1  29
BRANCH   6  39
HETATM   39  C25 UNL     1      -1.608  -0.050   8.969  1.00  0.00     0.198 C
BRANCH  39  40
HETATM   40  O10 UNL     1      -0.358  -0.494   8.549  1.00  0.00    -0.398 OA
ATOM     41  H10 UNL     1       0.332   0.155   8.630  1.00  0.00     0.209 HD
ENDBRANCH  39  40
ENDBRANCH   6  39
TORSDOF 16
ENDMDL