MODEL 2
REMARK VINA RESULT: -6.394717550      0.956      2.362
REMARK  16 active torsions:
REMARK  status: ('A' for Active; 'I' for Inactive)
REMARK    1  A    between atoms: O1_2  and  C2_3
REMARK    2  A    between atoms: C2_3  and  O2_4
REMARK    3  A    between atoms: O2_4  and  C3_5
REMARK    4  A    between atoms: C3_5  and  C4_6
REMARK    5  A    between atoms: C3_5  and  C22_36
REMARK    6  A    between atoms: C5_7  and  C6_8
REMARK    7  A    between atoms: C7_9  and  O3_10
REMARK    8  A    between atoms: C9_13  and  O4_14
REMARK    9  A    between atoms: C10_16  and  C11_17
REMARK   10  A    between atoms: C11_17  and  C12_18
REMARK   11  A    between atoms: C12_18  and  C13_20
REMARK   12  A    between atoms: C13_20  and  O6_21
REMARK   13  A    between atoms: O6_21  and  C14_22
REMARK   14  A    between atoms: C15_23  and  O7_24
REMARK   15  A    between atoms: C17_27  and  C18_28
REMARK   16  A    between atoms: C22_36  and  O10_39
ROOT
HETATM    1  C6  UNL     1      -8.479  -1.203   2.624  1.00  0.00     0.043 C
HETATM    2  C7  UNL     1      -8.013  -2.479   1.965  1.00  0.00     0.128 C
HETATM    3  C8  UNL     1      -6.978  -3.084   2.859  1.00  0.00     0.064 C
HETATM    4  C9  UNL     1      -6.661  -2.053   3.900  1.00  0.00     0.125 C
HETATM    5  C10 UNL     1      -7.687  -0.988   3.871  1.00  0.00     0.031 C
ENDROOT
BRANCH   5   6
HETATM    6  C11 UNL     1      -8.539  -0.894   5.108  1.00  0.00     0.088 C
BRANCH   6   7
HETATM    7  C12 UNL     1      -8.190   0.167   6.046  1.00  0.00     0.150 C
HETATM    8  O5  UNL     1      -8.809   0.280   7.083  1.00  0.00    -0.296 OA
BRANCH   7   9
HETATM    9  C13 UNL     1      -7.099   1.138   5.792  1.00  0.00     0.248 C
BRANCH   9  10
HETATM   10  O6  UNL     1      -6.009   1.025   6.606  1.00  0.00    -0.360 OA
BRANCH  10  11
HETATM   11  C14 UNL     1      -5.490  -0.249   6.764  1.00  0.00     0.239 C
HETATM   12  C15 UNL     1      -5.167  -0.495   8.245  1.00  0.00     0.164 C
HETATM   13  C16 UNL     1      -4.725  -1.946   8.350  1.00  0.00     0.068 C
HETATM   14  C17 UNL     1      -4.127  -2.427   7.053  1.00  0.00     0.178 C
HETATM   15  N1  UNL     1      -3.443  -1.389   6.335  1.00  0.00    -0.232 NA
HETATM   16  C19 UNL     1      -2.217  -0.949   6.900  1.00  0.00     0.110 A
HETATM   17  N2  UNL     1      -4.239  -0.298   6.036  1.00  0.00    -0.218 NA
HETATM   18  C20 UNL     1      -2.201   0.544   6.897  1.00  0.00     0.032 A
HETATM   19  C21 UNL     1      -3.518   0.910   6.290  1.00  0.00     0.112 A
BRANCH  12  20
HETATM   20  O7  UNL     1      -6.324  -0.358   9.002  1.00  0.00    -0.392 OA
ATOM     21  H7  UNL     1      -6.740  -1.207   9.103  1.00  0.00     0.210 HD
ENDBRANCH  12  20
BRANCH  14  22
HETATM   22  C18 UNL     1      -3.247  -3.570   7.324  1.00  0.00     0.193 C
HETATM   23  O8  UNL     1      -2.981  -3.986   8.486  1.00  0.00    -0.647 OA
HETATM   24  O9  UNL     1      -2.653  -4.264   6.272  1.00  0.00    -0.647 OA
ENDBRANCH  14  22
ENDBRANCH  10  11
ENDBRANCH   9  10
ENDBRANCH   7   9
ENDBRANCH   6   7
ENDBRANCH   5   6
BRANCH   1  25
HETATM   25  C5  UNL     1      -8.222  -0.108   1.650  1.00  0.00    -0.020 C
HETATM   26  C4  UNL     1      -8.069   1.158   2.009  1.00  0.00     0.004 C
BRANCH  26  27
HETATM   27  C3  UNL     1      -7.811   2.228   0.973  1.00  0.00     0.180 C
BRANCH  27  28
HETATM   28  O2  UNL     1      -6.468   2.629   1.042  1.00  0.00    -0.355 OA
BRANCH  28  29
HETATM   29  C2  UNL     1      -5.814   2.144  -0.066  1.00  0.00     0.338 C
BRANCH  29  30
HETATM   30  O1  UNL     1      -5.195   0.936   0.115  1.00  0.00    -0.372 OA
HETATM   31  C1  UNL     1      -4.291   0.902   1.145  1.00  0.00     0.204 C
ENDBRANCH  29  30
ENDBRANCH  28  29
ENDBRANCH  27  28
BRANCH  27  32
HETATM   32  C22 UNL     1      -8.742   3.378   1.250  1.00  0.00     0.080 C
HETATM   33  C23 UNL     1      -8.591   4.395   0.144  1.00  0.00     0.048 C
HETATM   34  C24 UNL     1     -10.193   2.956   1.326  1.00  0.00     0.048 C
BRANCH  32  35
HETATM   35  O10 UNL     1      -8.391   4.029   2.441  1.00  0.00    -0.388 OA
ATOM     36  H10 UNL     1      -8.665   4.939   2.423  1.00  0.00     0.210 HD
ENDBRANCH  32  35
ENDBRANCH  27  32
ENDBRANCH  26  27
ENDBRANCH   1  25
BRANCH   4  37
HETATM   37  O4  UNL     1      -5.413  -1.492   3.533  1.00  0.00    -0.395 OA
ATOM     38  H4  UNL     1      -5.608  -0.774   2.942  1.00  0.00     0.210 HD
ENDBRANCH   4  37
BRANCH   2  39
HETATM   39  O3  UNL     1      -9.114  -3.306   1.751  1.00  0.00    -0.395 OA
ATOM     40  H3  UNL     1      -8.918  -4.173   2.087  1.00  0.00     0.210 HD
ENDBRANCH   2  39
TORSDOF 16
ENDMDL