MODEL 4
REMARK VINA RESULT: -6.506719256      1.528      4.355
REMARK  16 active torsions:
REMARK  status: ('A' for Active; 'I' for Inactive)
REMARK    1  A    between atoms: C2_2  and  O2_4
REMARK    2  A    between atoms: O2_4  and  C3_5
REMARK    3  A    between atoms: C3_5  and  C4_6
REMARK    4  A    between atoms: C3_5  and  C12_25
REMARK    5  A    between atoms: C4_6  and  O3_8
REMARK    6  A    between atoms: O3_8  and  C6_9
REMARK    7  A    between atoms: C6_9  and  N1_10
REMARK    8  A    between atoms: N1_10  and  C7_11
REMARK    9  A    between atoms: N1_10  and  C9_15
REMARK   10  A    between atoms: C7_11  and  C8_12
REMARK   11  A    between atoms: C9_15  and  O6_16
REMARK   12  A    between atoms: C10_18  and  N2_20
REMARK   13  A    between atoms: C12_25  and  O7_27
REMARK   14  A    between atoms: C12_25  and  C14_29
REMARK   15  A    between atoms: C14_29  and  C16_31
REMARK   16  A    between atoms: C21_39  and  O11_41
ROOT
HETATM    1  C3  UNL     1      -6.378  -0.563   4.931  1.00  0.00     0.194 C
ENDROOT
BRANCH   1   2
HETATM    2  O2  UNL     1      -7.232   0.371   5.441  1.00  0.00    -0.311 OA
BRANCH   2   3
HETATM    3  C2  UNL     1      -8.253   0.255   6.332  1.00  0.00     0.255 C
HETATM    4  C1  UNL     1      -9.631  -0.064   5.948  1.00  0.00     0.126 C
HETATM    5  O1  UNL     1      -7.923   0.442   7.490  1.00  0.00    -0.266 OA
ENDBRANCH   2   3
ENDBRANCH   1   2
BRANCH   1   6
HETATM    6  C4  UNL     1      -4.917  -0.416   5.201  1.00  0.00     0.152 C
HETATM    7  C5  UNL     1      -4.470   0.763   5.992  1.00  0.00     0.042 C
BRANCH   6   8
HETATM    8  O3  UNL     1      -4.479  -1.629   5.747  1.00  0.00    -0.364 OA
BRANCH   8   9
HETATM    9  C6  UNL     1      -3.441  -1.484   6.646  1.00  0.00     0.301 C
BRANCH   9  10
HETATM   10  N1  UNL     1      -3.794  -2.174   7.868  1.00  0.00    -0.308 N
BRANCH  10  11
HETATM   11  C7  UNL     1      -3.251  -3.472   8.072  1.00  0.00     0.179 C
BRANCH  11  12
HETATM   12  C8  UNL     1      -3.294  -4.423   6.983  1.00  0.00     0.215 C
HETATM   13  O4  UNL     1      -2.330  -4.613   6.225  1.00  0.00    -0.643 OA
HETATM   14  O5  UNL     1      -4.448  -5.160   6.764  1.00  0.00    -0.643 OA
ENDBRANCH  11  12
ENDBRANCH  10  11
BRANCH  10  15
HETATM   15  C9  UNL     1      -4.638  -1.554   8.786  1.00  0.00     0.168 C
HETATM   16  C10 UNL     1      -4.141  -0.940   9.837  1.00  0.00     0.072 C
HETATM   17  C11 UNL     1      -4.976  -0.257  10.859  1.00  0.00     0.074 C
BRANCH  15  18
HETATM   18  O6  UNL     1      -6.003  -1.572   8.608  1.00  0.00    -0.344 OA
ATOM     19  H6  UNL     1      -6.586  -1.307   9.309  1.00  0.00     0.219 HD
ENDBRANCH  15  18
BRANCH  16  20
HETATM   20  N2  UNL     1      -2.723  -0.901  10.052  1.00  0.00    -0.307 N
HETATM   21  N3  UNL     1      -2.278  -0.224  11.013  1.00  0.00    -0.345 N
ATOM     22  H32 UNL     1      -2.925   0.282  11.619  1.00  0.00     0.176 HD
ATOM     23  H31 UNL     1      -1.270  -0.196  11.166  1.00  0.00     0.176 HD
ATOM     24  H2  UNL     1      -2.089  -1.412   9.437  1.00  0.00     0.186 HD
ENDBRANCH  16  20
ENDBRANCH  10  15
ENDBRANCH   9  10
ENDBRANCH   8   9
ENDBRANCH   6   8
ENDBRANCH   1   6
BRANCH   1  25
HETATM   25  C12 UNL     1      -6.739  -1.106   3.569  1.00  0.00     0.089 C
HETATM   26  C13 UNL     1      -7.615  -2.362   3.690  1.00  0.00     0.049 C
BRANCH  25  27
HETATM   27  O7  UNL     1      -5.601  -1.589   2.913  1.00  0.00    -0.387 OA
ATOM     28  H7  UNL     1      -5.739  -2.481   2.616  1.00  0.00     0.210 HD
ENDBRANCH  25  27
BRANCH  25  29
HETATM   29  C14 UNL     1      -7.480  -0.074   2.785  1.00  0.00     0.051 C
HETATM   30  C15 UNL     1      -8.414  -0.601   1.734  1.00  0.00     0.016 C
BRANCH  29  31
HETATM   31  C16 UNL     1      -6.616   0.993   2.144  1.00  0.00     0.176 C
HETATM   32  O8  UNL     1      -5.333   0.578   1.993  1.00  0.00    -0.346 OA
HETATM   33  C17 UNL     1      -4.394   1.542   1.803  1.00  0.00     0.166 C
HETATM   34  C18 UNL     1      -4.343   2.114   0.405  1.00  0.00     0.079 C
HETATM   35  C19 UNL     1      -3.026   0.845   1.991  1.00  0.00     0.079 C
HETATM   36  O9  UNL     1      -4.445   2.579   2.764  1.00  0.00    -0.282 OA
HETATM   37  C20 UNL     1      -5.672   2.901   3.310  1.00  0.00     0.298 C
HETATM   38  O10 UNL     1      -5.741   3.641   4.318  1.00  0.00    -0.262 OA
HETATM   39  C21 UNL     1      -6.889   2.349   2.671  1.00  0.00     0.168 C
HETATM   40  C22 UNL     1      -7.252   3.337   1.544  1.00  0.00     0.060 C
BRANCH  39  41
HETATM   41  O11 UNL     1      -8.007   2.420   3.530  1.00  0.00    -0.377 OA
ATOM     42  H11 UNL     1      -7.993   3.160   4.125  1.00  0.00     0.211 HD
ENDBRANCH  39  41
ENDBRANCH  29  31
ENDBRANCH  25  29
ENDBRANCH   1  25
TORSDOF 16
ENDMDL