MODEL 1
REMARK VINA RESULT: -7.161624156      0.000      0.000
REMARK  17 active torsions:
REMARK  status: ('A' for Active; 'I' for Inactive)
REMARK    1  A    between atoms: C4_4  and  O1_5
REMARK    2  A    between atoms: C5_7  and  O2_8
REMARK    3  A    between atoms: C6_10  and  O3_11
REMARK    4  A    between atoms: O3_11  and  C7_12
REMARK    5  A    between atoms: C8_13  and  N1_14
REMARK    6  A    between atoms: N1_14  and  N2_16
REMARK    7  A    between atoms: N2_16  and  N3_17
REMARK    8  A    between atoms: C13_24  and  O4_25
REMARK    9  A    between atoms: O4_25  and  C14_26
REMARK   10  A    between atoms: C15_28  and  C16_29
REMARK   11  A    between atoms: C16_29  and  O6_30
REMARK   12  A    between atoms: C17_32  and  O7_33
REMARK   13  A    between atoms: C19_36  and  O8_37
REMARK   14  A    between atoms: O8_37  and  C20_38
REMARK   15  A    between atoms: C20_38  and  C21_39
REMARK   16  A    between atoms: C21_39  and  N4_40
REMARK   17  A    between atoms: N4_40  and  C22_42
ROOT
HETATM    1  C7  UNL     1      -8.369  -1.045   3.791  1.00  0.00     0.179 C
HETATM    2  C8  UNL     1      -7.829  -2.263   3.152  1.00  0.00     0.146 C
HETATM    3  C9  UNL     1      -6.420  -2.236   2.728  1.00  0.00     0.031 C
HETATM    4  C10 UNL     1      -5.787  -0.912   2.551  1.00  0.00     0.009 C
HETATM    5  C11 UNL     1      -6.363   0.202   3.340  1.00  0.00     0.013 C
HETATM    6  C12 UNL     1      -5.345   1.218   3.796  1.00  0.00     0.012 C
HETATM    7  C13 UNL     1      -7.214  -0.307   4.475  1.00  0.00     0.159 C
ENDROOT
BRANCH   7   8
HETATM    8  O4  UNL     1      -6.591  -1.218   5.294  1.00  0.00    -0.350 OA
BRANCH   8   9
HETATM    9  C14 UNL     1      -5.964  -0.683   6.381  1.00  0.00     0.289 C
HETATM   10  O5  UNL     1      -6.670  -0.964   7.563  1.00  0.00    -0.349 OA
HETATM   11  C15 UNL     1      -6.169  -0.096   8.526  1.00  0.00     0.177 C
HETATM   12  C17 UNL     1      -4.747  -0.316   8.880  1.00  0.00     0.151 C
HETATM   13  C18 UNL     1      -3.854  -0.665   7.727  1.00  0.00     0.071 C
HETATM   14  C19 UNL     1      -4.586  -1.286   6.568  1.00  0.00     0.179 C
BRANCH  11  15
HETATM   15  C16 UNL     1      -7.005  -0.153   9.801  1.00  0.00     0.198 C
BRANCH  15  16
HETATM   16  O6  UNL     1      -8.185   0.542   9.538  1.00  0.00    -0.398 OA
ATOM     17  H6  UNL     1      -8.739   0.437  10.303  1.00  0.00     0.209 HD
ENDBRANCH  15  16
ENDBRANCH  11  15
BRANCH  12  18
HETATM   18  O7  UNL     1      -4.689  -1.248   9.917  1.00  0.00    -0.393 OA
ATOM     19  H7  UNL     1      -3.957  -1.832   9.756  1.00  0.00     0.210 HD
ENDBRANCH  12  18
BRANCH  14  20
HETATM   20  O8  UNL     1      -4.629  -2.674   6.676  1.00  0.00    -0.379 OA
BRANCH  20  21
HETATM   21  C20 UNL     1      -3.382  -3.203   7.025  1.00  0.00     0.188 C
BRANCH  21  22
HETATM   22  C21 UNL     1      -3.563  -4.355   7.973  1.00  0.00     0.148 C
BRANCH  22  23
HETATM   23  N4  UNL     1      -4.025  -5.538   7.303  1.00  0.00    -0.366 N
ATOM     24  H4  UNL     1      -4.015  -5.585   6.284  1.00  0.00     0.161 HD
BRANCH  23  25
HETATM   25  C22 UNL     1      -4.494  -6.636   8.057  1.00  0.00     0.348 C
HETATM   26  O9  UNL     1      -5.722  -6.901   8.041  1.00  0.00    -0.284 OA
ENDBRANCH  23  25
ENDBRANCH  22  23
ENDBRANCH  21  22
ENDBRANCH  20  21
ENDBRANCH  14  20
ENDBRANCH   8   9
ENDBRANCH   7   8
BRANCH   1  27
HETATM   27  O3  UNL     1      -9.035  -0.253   2.887  1.00  0.00    -0.349 OA
BRANCH  27  28
HETATM   28  C6  UNL     1      -9.485   0.960   3.437  1.00  0.00     0.291 C
HETATM   29  C5  UNL     1      -9.175   2.035   2.449  1.00  0.00     0.202 C
HETATM   30  C4  UNL     1     -10.129   2.033   1.288  1.00  0.00     0.154 C
HETATM   31  C3  UNL     1     -11.483   1.551   1.679  1.00  0.00     0.066 C
HETATM   32  C2  UNL     1     -11.727   1.517   3.159  1.00  0.00     0.123 C
HETATM   33  C1  UNL     1     -12.057   2.918   3.651  1.00  0.00     0.040 C
HETATM   34  O10 UNL     1     -10.759   0.907   3.894  1.00  0.00    -0.354 OA
BRANCH  29  35
HETATM   35  O2  UNL     1      -9.018   3.296   3.024  1.00  0.00    -0.388 OA
ATOM     36  H2  UNL     1      -8.238   3.365   3.561  1.00  0.00     0.210 HD
ENDBRANCH  29  35
BRANCH  30  37
HETATM   37  O1  UNL     1     -10.132   3.297   0.709  1.00  0.00    -0.393 OA
ATOM     38  H1  UNL     1      -9.752   3.319  -0.162  1.00  0.00     0.210 HD
ENDBRANCH  30  37
ENDBRANCH  27  28
ENDBRANCH   1  27
BRANCH   2  39
HETATM   39  N1  UNL     1      -8.715  -2.608   2.030  1.00  0.00    -0.245 N
ATOM     40  H1  UNL     1      -9.122  -1.871   1.454  1.00  0.00     0.197 HD
BRANCH  39  41
HETATM   41  N2  UNL     1      -8.964  -3.782   1.789  1.00  0.00    -0.248 NA
BRANCH  41  42
HETATM   42  N3  UNL     1      -9.124  -4.993   1.894  1.00  0.00    -0.261 N
ATOM     43  H32 UNL     1      -9.720  -4.925   2.719  1.00  0.00     0.193 HD
ATOM     44  H31 UNL     1      -9.081  -6.001   1.740  1.00  0.00     0.193 HD
ENDBRANCH  41  42
ENDBRANCH  39  41
ENDBRANCH   2  39
TORSDOF 17
ENDMDL