MODEL 4
REMARK VINA RESULT: -7.918953860      2.015      3.102
REMARK  18 active torsions:
REMARK  status: ('A' for Active; 'I' for Inactive)
REMARK    1  A    between atoms: C2_2  and  C3_3
REMARK    2  A    between atoms: C3_3  and  O1_4
REMARK    3  A    between atoms: O1_4  and  C4_5
REMARK    4  A    between atoms: C7_8  and  C8_9
REMARK    5  A    between atoms: C9_10  and  C10_11
REMARK    6  A    between atoms: C11_12  and  C12_13
REMARK    7  A    between atoms: C12_13  and  C14_15
REMARK    8  A    between atoms: C14_15  and  O2_16
REMARK    9  A    between atoms: O2_16  and  C15_17
REMARK   10  A    between atoms: C15_17  and  C16_19
REMARK   11  A    between atoms: C18_21  and  O4_22
REMARK   12  A    between atoms: C19_24  and  O5_25
REMARK   13  A    between atoms: C20_27  and  O6_28
REMARK   14  A    between atoms: O6_28  and  C21_29
REMARK   15  A    between atoms: C22_31  and  O8_32
REMARK   16  A    between atoms: C23_34  and  O9_35
REMARK   17  A    between atoms: C24_37  and  C25_38
REMARK   18  A    between atoms: C25_38  and  O10_39
ROOT
HETATM    1  C4  UNL     1      -5.444  -0.057   7.189  1.00  0.00     0.161 C
HETATM    2  C5  UNL     1      -4.094  -0.538   7.674  1.00  0.00     0.058 C
HETATM    3  C6  UNL     1      -3.094   0.590   7.970  1.00  0.00     0.021 C
HETATM    4  C7  UNL     1      -1.978   0.261   7.060  1.00  0.00     0.040 C
HETATM    5  C18 UNL     1      -2.811   0.008   5.751  1.00  0.00     0.163 C
HETATM    6  C19 UNL     1      -3.782  -0.999   6.267  1.00  0.00     0.119 C
HETATM    7  C20 UNL     1      -5.218  -0.833   5.914  1.00  0.00     0.194 C
ENDROOT
BRANCH   7   8
HETATM    8  O6  UNL     1      -5.509  -0.170   4.740  1.00  0.00    -0.328 OA
BRANCH   8   9
HETATM    9  C21 UNL     1      -6.334  -0.932   3.952  1.00  0.00     0.416 C
HETATM   10  O7  UNL     1      -5.810  -2.186   3.643  1.00  0.00    -0.306 OA
HETATM   11  C22 UNL     1      -6.844  -2.997   3.253  1.00  0.00     0.293 C
HETATM   12  C23 UNL     1      -8.027  -2.303   2.685  1.00  0.00     0.204 C
HETATM   13  C24 UNL     1      -7.775  -0.916   2.197  1.00  0.00     0.184 C
HETATM   14  O11 UNL     1      -6.647  -0.322   2.740  1.00  0.00    -0.329 OA
BRANCH  11  15
HETATM   15  O8  UNL     1      -7.215  -3.782   4.364  1.00  0.00    -0.368 OA
ATOM     16  H8  UNL     1      -6.502  -4.383   4.544  1.00  0.00     0.212 HD
ENDBRANCH  11  15
BRANCH  12  17
HETATM   17  O9  UNL     1      -8.631  -3.098   1.687  1.00  0.00    -0.388 OA
ATOM     18  H9  UNL     1      -9.453  -3.455   2.003  1.00  0.00     0.210 HD
ENDBRANCH  12  17
BRANCH  13  19
HETATM   19  C25 UNL     1      -8.982  -0.004   2.442  1.00  0.00     0.199 C
BRANCH  19  20
HETATM   20  O10 UNL     1      -9.800  -0.104   1.334  1.00  0.00    -0.398 OA
ATOM     21  H10 UNL     1     -10.451  -0.769   1.526  1.00  0.00     0.209 HD
ENDBRANCH  19  20
ENDBRANCH  13  19
ENDBRANCH   8   9
ENDBRANCH   7   8
BRANCH   1  22
HETATM   22  O1  UNL     1      -6.446  -0.574   7.969  1.00  0.00    -0.379 OA
BRANCH  22  23
HETATM   23  C3  UNL     1      -6.246  -0.457   9.327  1.00  0.00     0.195 C
BRANCH  23  24
HETATM   24  C2  UNL     1      -7.424  -0.057  10.091  1.00  0.00    -0.011 C
HETATM   25  C1  UNL     1      -7.896  -0.750  11.140  1.00  0.00     0.009 C
ENDBRANCH  23  24
ENDBRANCH  22  23
ENDBRANCH   1  22
BRANCH   6  26
HETATM   26  O5  UNL     1      -3.273  -2.294   6.181  1.00  0.00    -0.384 OA
ATOM     27  H5  UNL     1      -2.644  -2.424   5.482  1.00  0.00     0.210 HD
ENDBRANCH   6  26
BRANCH   5  28
HETATM   28  O4  UNL     1      -3.372   1.185   5.315  1.00  0.00    -0.392 OA
ATOM     29  H4  UNL     1      -4.315   1.090   5.246  1.00  0.00     0.210 HD
ENDBRANCH   5  28
BRANCH   4  30
HETATM   30  C8  UNL     1      -0.912   1.173   6.807  1.00  0.00    -0.019 C
HETATM   31  C9  UNL     1       0.190   1.445   7.389  1.00  0.00    -0.004 C
BRANCH  31  32
HETATM   32  C10 UNL     1       0.791   0.907   8.567  1.00  0.00    -0.004 C
HETATM   33  C11 UNL     1       0.427   0.953   9.813  1.00  0.00    -0.020 C
BRANCH  33  34
HETATM   34  C12 UNL     1      -0.687   1.530  10.535  1.00  0.00     0.028 C
HETATM   35  C13 UNL     1      -0.735   2.974  10.815  1.00  0.00     0.016 C
BRANCH  34  36
HETATM   36  C14 UNL     1      -0.969   0.700  11.796  1.00  0.00     0.187 C
BRANCH  36  37
HETATM   37  O2  UNL     1      -2.271   0.850  12.203  1.00  0.00    -0.318 OA
BRANCH  37  38
HETATM   38  C15 UNL     1      -3.354   0.047  11.951  1.00  0.00     0.282 C
HETATM   39  O3  UNL     1      -3.234  -0.875  11.117  1.00  0.00    -0.260 OA
BRANCH  38  40
HETATM   40  C16 UNL     1      -4.619   0.280  12.658  1.00  0.00     0.072 C
HETATM   41  C17 UNL     1      -5.052  -0.626  13.501  1.00  0.00     0.017 C
ENDBRANCH  38  40
ENDBRANCH  37  38
ENDBRANCH  36  37
ENDBRANCH  34  36
ENDBRANCH  33  34
ENDBRANCH  31  32
ENDBRANCH   4  30
TORSDOF 18
ENDMDL