MODEL 4
REMARK VINA RESULT: -7.923115317      1.123      1.286
REMARK  17 active torsions:
REMARK  status: ('A' for Active; 'I' for Inactive)
REMARK    1  A    between atoms: O1_2  and  C2_3
REMARK    2  A    between atoms: C2_3  and  C3_4
REMARK    3  A    between atoms: C2_3  and  C13_21
REMARK    4  A    between atoms: C4_5  and  C5_6
REMARK    5  A    between atoms: C5_6  and  O2_7
REMARK    6  A    between atoms: C6_9  and  C7_10
REMARK    7  A    between atoms: C7_10  and  C8_11
REMARK    8  A    between atoms: C8_11  and  N1_12
REMARK       I    between atoms: N1_12  and  C9_14
REMARK    9  A    between atoms: C9_14  and  C10_16
REMARK   10  A    between atoms: C10_16  and  O4_19
REMARK   11  A    between atoms: C13_21  and  O5_22
REMARK   12  A    between atoms: C13_21  and  C14_24
REMARK   13  A    between atoms: C14_24  and  C16_26
REMARK   14  A    between atoms: C17_28  and  O7_29
REMARK   15  A    between atoms: O7_29  and  C18_30
REMARK   16  A    between atoms: C21_33  and  O8_34
REMARK   17  A    between atoms: C22_36  and  C23_37
ROOT
HETATM    1  C2  UNL     1      -3.784  -2.181   8.052  1.00  0.00     0.172 C
ENDROOT
BRANCH   1   2
HETATM    2  O1  UNL     1      -5.107  -2.511   8.461  1.00  0.00    -0.384 OA
HETATM    3  C1  UNL     1      -5.718  -1.495   9.148  1.00  0.00     0.202 C
ENDBRANCH   1   2
BRANCH   1   4
HETATM    4  C3  UNL     1      -2.868  -3.275   8.318  1.00  0.00     0.010 C
HETATM    5  C4  UNL     1      -2.938  -4.540   8.298  1.00  0.00     0.035 C
BRANCH   5   6
HETATM    6  C5  UNL     1      -3.864  -5.553   8.029  1.00  0.00     0.065 C
HETATM    7  C6  UNL     1      -4.247  -6.834   8.466  1.00  0.00     0.038 C
BRANCH   6   8
HETATM    8  O2  UNL     1      -4.684  -5.185   6.981  1.00  0.00    -0.361 OA
ATOM      9  H2  UNL     1      -5.491  -4.807   7.312  1.00  0.00     0.217 HD
ENDBRANCH   6   8
BRANCH   7  10
HETATM   10  C7  UNL     1      -3.835  -7.649   9.371  1.00  0.00     0.020 C
BRANCH  10  11
HETATM   11  C8  UNL     1      -3.785  -7.226  10.788  1.00  0.00     0.091 C
BRANCH  11  12
HETATM   12  N1  UNL     1      -3.064  -7.888  11.619  1.00  0.00    -0.335 N
HETATM   13  C9  UNL     1      -3.445  -8.070  12.965  1.00  0.00     0.255 C
HETATM   14  O3  UNL     1      -4.627  -7.752  13.291  1.00  0.00    -0.270 OA
ATOM     15  H1  UNL     1      -2.187  -8.295  11.295  1.00  0.00     0.168 HD
BRANCH  13  16
HETATM   16  C10 UNL     1      -2.522  -8.613  13.983  1.00  0.00     0.131 C
HETATM   17  C11 UNL     1      -1.966  -9.936  13.506  1.00  0.00     0.056 C
HETATM   18  C12 UNL     1      -3.220  -8.865  15.302  1.00  0.00     0.056 C
BRANCH  16  19
HETATM   19  O4  UNL     1      -1.475  -7.720  14.187  1.00  0.00    -0.381 OA
ATOM     20  H4  UNL     1      -0.945  -8.011  14.921  1.00  0.00     0.211 HD
ENDBRANCH  16  19
ENDBRANCH  13  16
ENDBRANCH  11  12
ENDBRANCH  10  11
ENDBRANCH   7  10
ENDBRANCH   5   6
ENDBRANCH   1   4
BRANCH   1  21
HETATM   21  C13 UNL     1      -3.854  -1.941   6.576  1.00  0.00     0.159 C
BRANCH  21  22
HETATM   22  O5  UNL     1      -4.845  -2.745   5.987  1.00  0.00    -0.392 OA
ATOM     23  H5  UNL     1      -5.010  -2.474   5.092  1.00  0.00     0.210 HD
ENDBRANCH  21  22
BRANCH  21  24
HETATM   24  C14 UNL     1      -4.129  -0.523   6.161  1.00  0.00     0.069 C
HETATM   25  C15 UNL     1      -2.891   0.097   5.581  1.00  0.00     0.017 C
BRANCH  24  26
HETATM   26  C16 UNL     1      -5.218  -0.607   5.087  1.00  0.00     0.270 C
HETATM   27  O6  UNL     1      -6.467  -0.403   5.611  1.00  0.00    -0.328 OA
HETATM   28  C17 UNL     1      -7.403  -0.433   4.586  1.00  0.00     0.295 C
HETATM   29  C21 UNL     1      -6.805  -0.674   3.222  1.00  0.00     0.212 C
HETATM   30  C22 UNL     1      -5.684   0.301   3.013  1.00  0.00     0.258 C
HETATM   31  O11 UNL     1      -4.921   0.365   4.156  1.00  0.00    -0.342 OA
BRANCH  28  32
HETATM   32  O7  UNL     1      -8.005   0.828   4.547  1.00  0.00    -0.354 OA
BRANCH  32  33
HETATM   33  C18 UNL     1      -9.263   0.817   5.145  1.00  0.00     0.116 C
HETATM   34  C19 UNL     1      -9.639  -0.618   5.424  1.00  0.00     0.039 C
HETATM   35  C20 UNL     1     -10.318   1.390   4.191  1.00  0.00     0.039 C
ENDBRANCH  32  33
ENDBRANCH  28  32
BRANCH  29  36
HETATM   36  O8  UNL     1      -7.798  -0.551   2.243  1.00  0.00    -0.387 OA
ATOM     37  H8  UNL     1      -7.524   0.078   1.586  1.00  0.00     0.210 HD
ENDBRANCH  29  36
BRANCH  30  38
HETATM   38  C23 UNL     1      -6.210   1.633   2.604  1.00  0.00     0.206 C
HETATM   39  O9  UNL     1      -5.938   2.619   3.333  1.00  0.00    -0.646 OA
HETATM   40  O10 UNL     1      -6.970   1.840   1.481  1.00  0.00    -0.646 OA
ENDBRANCH  30  38
ENDBRANCH  24  26
ENDBRANCH  21  24
ENDBRANCH   1  21
TORSDOF 17
ENDMDL