MODEL 1
REMARK VINA RESULT: -7.443694518      0.000      0.000
REMARK  18 active torsions:
REMARK  status: ('A' for Active; 'I' for Inactive)
REMARK    1  A    between atoms: C5_5  and  O1_6
REMARK    2  A    between atoms: C5_5  and  C6_8
REMARK    3  A    between atoms: C6_8  and  C7_10
REMARK    4  A    between atoms: C7_10  and  O3_11
REMARK    5  A    between atoms: C7_10  and  C10_15
REMARK    6  A    between atoms: O3_11  and  C8_12
REMARK    7  A    between atoms: C10_15  and  O5_16
REMARK    8  A    between atoms: C10_15  and  C11_18
REMARK    9  A    between atoms: C11_18  and  C13_20
REMARK   10  A    between atoms: C14_21  and  C15_22
REMARK   11  A    between atoms: C15_22  and  O6_24
REMARK   12  A    between atoms: C15_22  and  C17_26
REMARK   13  A    between atoms: C17_26  and  C18_27
REMARK   14  A    between atoms: C18_27  and  O7_28
REMARK   15  A    between atoms: C18_27  and  C19_30
REMARK   16  A    between atoms: C19_30  and  O8_31
REMARK   17  A    between atoms: C19_30  and  C22_35
REMARK   18  A    between atoms: O8_31  and  C20_32
ROOT
HETATM    1  C10 UNL     1      -3.353  -0.459   5.764  1.00  0.00     0.162 C
ENDROOT
BRANCH   1   2
HETATM    2  C7  UNL     1      -3.847  -1.500   6.745  1.00  0.00     0.236 C
BRANCH   2   3
HETATM    3  C6  UNL     1      -3.621  -1.146   8.162  1.00  0.00     0.220 C
HETATM    4  O2  UNL     1      -2.539  -1.466   8.648  1.00  0.00    -0.289 OA
BRANCH   3   5
HETATM    5  C5  UNL     1      -4.557  -0.449   9.064  1.00  0.00     0.236 C
HETATM    6  C4  UNL     1      -5.782  -1.291   9.363  1.00  0.00     0.082 C
HETATM    7  C3  UNL     1      -6.732  -0.475  10.208  1.00  0.00     0.050 C
HETATM    8  C2  UNL     1      -6.070  -0.317  11.539  1.00  0.00     0.008 C
HETATM    9  C1  UNL     1      -6.745  -0.302  12.666  1.00  0.00     0.025 C
HETATM   10  C23 UNL     1      -4.620  -0.177  11.523  1.00  0.00     0.291 C
HETATM   11  O12 UNL     1      -3.969  -0.154  10.324  1.00  0.00    -0.272 OA
HETATM   12  O13 UNL     1      -3.967  -0.077  12.591  1.00  0.00    -0.260 OA
BRANCH   5  13
HETATM   13  O1  UNL     1      -5.007   0.766   8.567  1.00  0.00    -0.359 OA
ATOM     14  H1  UNL     1      -5.936   0.672   8.394  1.00  0.00     0.213 HD
ENDBRANCH   5  13
ENDBRANCH   3   5
ENDBRANCH   2   3
BRANCH   2  15
HETATM   15  O3  UNL     1      -3.300  -2.775   6.431  1.00  0.00    -0.306 OA
BRANCH  15  16
HETATM   16  C8  UNL     1      -3.972  -3.959   6.550  1.00  0.00     0.255 C
HETATM   17  C9  UNL     1      -3.563  -4.955   7.579  1.00  0.00     0.126 C
HETATM   18  O4  UNL     1      -4.928  -4.189   5.784  1.00  0.00    -0.266 OA
ENDBRANCH  15  16
ENDBRANCH   2  15
ENDBRANCH   1   2
BRANCH   1  19
HETATM   19  O5  UNL     1      -2.690   0.527   6.533  1.00  0.00    -0.392 OA
ATOM     20  H5  UNL     1      -1.759   0.387   6.400  1.00  0.00     0.210 HD
ENDBRANCH   1  19
BRANCH   1  21
HETATM   21  C11 UNL     1      -4.440   0.226   5.005  1.00  0.00     0.035 C
HETATM   22  C12 UNL     1      -4.094   0.431   3.546  1.00  0.00     0.017 C
BRANCH  21  23
HETATM   23  C13 UNL     1      -5.636  -0.657   5.040  1.00  0.00    -0.021 C
HETATM   24  C14 UNL     1      -6.291  -0.979   3.940  1.00  0.00     0.007 C
BRANCH  24  25
HETATM   25  C15 UNL     1      -7.531  -1.902   4.023  1.00  0.00     0.074 C
HETATM   26  C16 UNL     1      -7.356  -2.928   2.976  1.00  0.00     0.050 C
BRANCH  25  27
HETATM   27  O6  UNL     1      -7.424  -2.461   5.313  1.00  0.00    -0.386 OA
ATOM     28  H6  UNL     1      -6.738  -3.109   5.208  1.00  0.00     0.211 HD
ENDBRANCH  25  27
BRANCH  25  29
HETATM   29  C17 UNL     1      -8.682  -1.009   3.955  1.00  0.00     0.076 C
BRANCH  29  30
HETATM   30  C18 UNL     1      -9.395  -0.472   5.147  1.00  0.00     0.161 C
BRANCH  30  31
HETATM   31  O7  UNL     1     -10.358  -1.605   5.334  1.00  0.00    -0.392 OA
ATOM     32  H7  UNL     1     -10.471  -1.830   4.418  1.00  0.00     0.210 HD
ENDBRANCH  30  31
BRANCH  30  33
HETATM   33  C19 UNL     1     -10.326   0.670   5.001  1.00  0.00     0.261 C
BRANCH  33  34
HETATM   34  O8  UNL     1     -10.571   0.826   3.533  1.00  0.00    -0.303 OA
BRANCH  34  35
HETATM   35  C20 UNL     1     -10.347   2.114   3.021  1.00  0.00     0.255 C
HETATM   36  C21 UNL     1      -9.161   2.324   2.154  1.00  0.00     0.126 C
HETATM   37  O9  UNL     1     -11.100   3.072   3.269  1.00  0.00    -0.266 OA
ENDBRANCH  34  35
ENDBRANCH  33  34
BRANCH  33  38
HETATM   38  C22 UNL     1     -11.739   0.401   5.427  1.00  0.00     0.206 C
HETATM   39  O10 UNL     1     -12.090   0.429   6.660  1.00  0.00    -0.646 OA
HETATM   40  O11 UNL     1     -12.717   0.113   4.527  1.00  0.00    -0.646 OA
ENDBRANCH  33  38
ENDBRANCH  30  33
ENDBRANCH  29  30
ENDBRANCH  25  29
ENDBRANCH  24  25
ENDBRANCH  21  23
ENDBRANCH   1  21
TORSDOF 18
ENDMDL