MODEL 2
REMARK VINA RESULT: -7.096371759      1.113      1.543
REMARK  15 active torsions:
REMARK  status: ('A' for Active; 'I' for Inactive)
REMARK    1  A    between atoms: O1_2  and  C2_3
REMARK    2  A    between atoms: C4_5  and  C5_6
REMARK    3  A    between atoms: C5_6  and  O3_8
REMARK    4  A    between atoms: O3_8  and  C6_9
REMARK    5  A    between atoms: C6_9  and  C7_11
REMARK    6  A    between atoms: C8_13  and  N1_14
REMARK       I    between atoms: N1_14  and  C9_16
REMARK       I    between atoms: C9_16  and  N4_35
REMARK    7  A    between atoms: N2_17  and  O6_19
REMARK    8  A    between atoms: O6_19  and  C10_20
REMARK    9  A    between atoms: C10_20  and  C11_21
REMARK   10  A    between atoms: C10_20  and  C13_25
REMARK   11  A    between atoms: C11_21  and  O7_23
REMARK   12  A    between atoms: C13_25  and  O8_26
REMARK   13  A    between atoms: C13_25  and  C14_28
REMARK   14  A    between atoms: C14_28  and  N3_29
REMARK   15  A    between atoms: N3_29  and  C15_32
ROOT
HETATM    1  N1  UNL     1      -2.556  -0.374   6.422  1.00  0.00    -0.197 N
ATOM      2  H1  UNL     1      -1.701   0.047   6.058  1.00  0.00     0.180 HD
HETATM    3  C9  UNL     1      -2.440  -1.345   7.434  1.00  0.00     0.709 C
HETATM    4  N2  UNL     1      -2.122  -1.022   8.627  1.00  0.00    -0.095 N
ATOM      5  H2  UNL     1      -2.061  -1.791   9.295  1.00  0.00     0.213 HD
HETATM    6  N4  UNL     1      -2.680  -2.701   7.124  1.00  0.00    -0.124 N
ATOM      7  H4  UNL     1      -2.191  -3.127   6.337  1.00  0.00     0.197 HD
HETATM    8  C18 UNL     1      -3.576  -3.472   7.874  1.00  0.00     0.196 C
HETATM    9  N5  UNL     1      -4.311  -4.126   8.485  1.00  0.00    -0.171 NA
ENDROOT
BRANCH   1  10
HETATM   10  C8  UNL     1      -3.832   0.064   5.863  1.00  0.00     0.241 C
HETATM   11  O5  UNL     1      -4.382  -0.877   5.042  1.00  0.00    -0.332 OA
HETATM   12  C7  UNL     1      -5.665  -0.604   4.660  1.00  0.00     0.326 C
HETATM   13  N6  UNL     1      -6.385   0.264   5.518  1.00  0.00    -0.364 N
HETATM   14  C21 UNL     1      -5.998   1.614   5.606  1.00  0.00     0.061 C
HETATM   15  C22 UNL     1      -6.996  -0.338   6.645  1.00  0.00     0.152 C
HETATM   16  C20 UNL     1      -4.863   2.019   4.698  1.00  0.00     0.048 C
HETATM   17  C19 UNL     1      -3.569   1.331   5.067  1.00  0.00     0.059 C
BRANCH  12  18
HETATM   18  C6  UNL     1      -6.430  -1.901   4.625  1.00  0.00     0.316 C
HETATM   19  O4  UNL     1      -5.868  -2.915   5.094  1.00  0.00    -0.260 OA
BRANCH  18  20
HETATM   20  O3  UNL     1      -7.707  -2.002   4.100  1.00  0.00    -0.238 OA
BRANCH  20  21
HETATM   21  C5  UNL     1      -8.008  -1.839   2.775  1.00  0.00     0.292 C
HETATM   22  O2  UNL     1      -8.420  -2.832   2.129  1.00  0.00    -0.260 OA
BRANCH  21  23
HETATM   23  C4  UNL     1      -7.878  -0.566   2.067  1.00  0.00     0.114 C
HETATM   24  C2  UNL     1      -8.671   0.447   2.262  1.00  0.00     0.047 C
HETATM   25  C3  UNL     1      -8.483   1.704   1.511  1.00  0.00     0.076 C
BRANCH  24  26
HETATM   26  O1  UNL     1      -9.704   0.356   3.179  1.00  0.00    -0.360 OA
HETATM   27  C1  UNL     1      -9.721   1.104   4.381  1.00  0.00     0.209 C
ENDBRANCH  24  26
ENDBRANCH  21  23
ENDBRANCH  20  21
ENDBRANCH  18  20
ENDBRANCH  12  18
ENDBRANCH   1  10
BRANCH   4  28
HETATM   28  O6  UNL     1      -1.857   0.204   9.115  1.00  0.00    -0.256 OA
BRANCH  28  29
HETATM   29  C10 UNL     1      -2.131   0.492  10.505  1.00  0.00     0.211 C
BRANCH  29  30
HETATM   30  C11 UNL     1      -1.728   1.914  10.758  1.00  0.00     0.148 C
HETATM   31  C12 UNL     1      -0.822   2.119  11.936  1.00  0.00     0.042 C
BRANCH  30  32
HETATM   32  O7  UNL     1      -2.743   2.825  10.787  1.00  0.00    -0.393 OA
ATOM     33  H7  UNL     1      -3.182   2.984   9.960  1.00  0.00     0.210 HD
ENDBRANCH  30  32
ENDBRANCH  29  30
BRANCH  29  34
HETATM   34  C13 UNL     1      -3.538   0.130  10.826  1.00  0.00     0.177 C
BRANCH  34  35
HETATM   35  O8  UNL     1      -4.492   0.496   9.904  1.00  0.00    -0.391 OA
ATOM     36  H8  UNL     1      -4.737  -0.161   9.263  1.00  0.00     0.210 HD
ENDBRANCH  34  35
BRANCH  34  37
HETATM   37  C14 UNL     1      -3.941   0.385  12.255  1.00  0.00     0.267 C
BRANCH  37  38
HETATM   38  N3  UNL     1      -4.936  -0.583  12.700  1.00  0.00    -0.068 N
ATOM     39  H32 UNL     1      -4.974  -1.385  12.071  1.00  0.00     0.277 HD
ATOM     40  H31 UNL     1      -4.632  -1.056  13.551  1.00  0.00     0.277 HD
BRANCH  38  41
HETATM   41  C15 UNL     1      -6.229  -0.003  12.870  1.00  0.00     0.186 A
HETATM   42  C16 UNL     1      -7.479  -0.660  12.451  1.00  0.00     0.035 A
HETATM   43  C17 UNL     1      -7.114  -0.650  13.877  1.00  0.00     0.035 A
ENDBRANCH  38  41
ENDBRANCH  37  38
ENDBRANCH  34  37
ENDBRANCH  29  34
ENDBRANCH  28  29
ENDBRANCH   4  28
TORSDOF 15
ENDMDL