MODEL 4
REMARK VINA RESULT: -6.767338864      1.325      1.857
REMARK  17 active torsions:
REMARK  status: ('A' for Active; 'I' for Inactive)
REMARK    1  A    between atoms: C2_2  and  C3_3
REMARK    2  A    between atoms: C3_3  and  O1_4
REMARK    3  A    between atoms: C3_3  and  C23_37
REMARK    4  A    between atoms: O1_4  and  C4_5
REMARK    5  A    between atoms: C5_6  and  O2_7
REMARK    6  A    between atoms: O2_7  and  C6_8
REMARK    7  A    between atoms: C6_8  and  C7_9
REMARK    8  A    between atoms: C13_16  and  C14_17
REMARK    9  A    between atoms: C14_17  and  O4_18
REMARK   10  A    between atoms: C16_20  and  O5_21
REMARK   11  A    between atoms: C17_23  and  O6_24
REMARK   12  A    between atoms: O6_24  and  C18_25
REMARK   13  A    between atoms: C19_27  and  C20_28
REMARK   14  A    between atoms: C20_28  and  O8_29
REMARK   15  A    between atoms: C21_31  and  O9_32
REMARK   16  A    between atoms: C22_34  and  O10_35
REMARK   17  A    between atoms: C23_37  and  N1_39
ROOT
HETATM    1  C4  UNL     1      -2.883  -0.431   6.836  1.00  0.00     0.209 C
HETATM    2  C5  UNL     1      -2.785  -0.886   8.307  1.00  0.00     0.292 C
HETATM    3  O3  UNL     1      -2.439  -2.214   8.249  1.00  0.00    -0.348 OA
HETATM    4  C13 UNL     1      -3.438  -2.977   7.730  1.00  0.00     0.179 C
HETATM    5  C16 UNL     1      -4.537  -2.306   7.029  1.00  0.00     0.181 C
HETATM    6  C17 UNL     1      -4.211  -0.986   6.388  1.00  0.00     0.190 C
ENDROOT
BRANCH   6   7
HETATM    7  O6  UNL     1      -5.181  -0.071   6.785  1.00  0.00    -0.348 OA
BRANCH   7   8
HETATM    8  C18 UNL     1      -6.480  -0.411   6.495  1.00  0.00     0.292 C
HETATM    9  O7  UNL     1      -6.700  -0.777   5.197  1.00  0.00    -0.348 OA
HETATM   10  C19 UNL     1      -8.087  -0.627   5.041  1.00  0.00     0.179 C
HETATM   11  C21 UNL     1      -8.308   0.787   5.558  1.00  0.00     0.182 C
HETATM   12  C22 UNL     1      -7.316   0.818   6.713  1.00  0.00     0.204 C
BRANCH  10  13
HETATM   13  C20 UNL     1      -8.496  -0.694   3.593  1.00  0.00     0.198 C
BRANCH  13  14
HETATM   14  O8  UNL     1      -8.914  -2.027   3.346  1.00  0.00    -0.398 OA
ATOM     15  H8  UNL     1      -9.783  -1.977   2.967  1.00  0.00     0.209 HD
ENDBRANCH  13  14
ENDBRANCH  10  13
BRANCH  11  16
HETATM   16  O9  UNL     1      -7.873   1.698   4.597  1.00  0.00    -0.390 OA
ATOM     17  H9  UNL     1      -8.127   2.574   4.861  1.00  0.00     0.210 HD
ENDBRANCH  11  16
BRANCH  12  18
HETATM   18  O10 UNL     1      -8.045   0.784   7.901  1.00  0.00    -0.388 OA
ATOM     19  H10 UNL     1      -7.855   1.512   8.479  1.00  0.00     0.210 HD
ENDBRANCH  12  18
ENDBRANCH   7   8
ENDBRANCH   6   7
BRANCH   1  20
HETATM   20  O1  UNL     1      -2.833   0.922   6.847  1.00  0.00    -0.367 OA
BRANCH  20  21
HETATM   21  C3  UNL     1      -2.512   1.614   5.750  1.00  0.00     0.166 C
BRANCH  21  22
HETATM   22  C2  UNL     1      -1.163   2.183   5.788  1.00  0.00    -0.003 C
HETATM   23  C1  UNL     1      -0.205   1.852   4.923  1.00  0.00     0.009 C
ENDBRANCH  21  22
BRANCH  21  24
HETATM   24  C23 UNL     1      -3.492   2.649   5.241  1.00  0.00     0.104 C
HETATM   25  C24 UNL     1      -4.205   2.016   4.077  1.00  0.00     0.035 C
BRANCH  24  26
HETATM   26  N1  UNL     1      -4.466   2.972   6.255  1.00  0.00    -0.419 N
HETATM   27  C25 UNL     1      -5.443   3.939   5.881  1.00  0.00     0.140 C
ATOM     28  H1  UNL     1      -4.456   2.537   7.177  1.00  0.00     0.153 HD
ENDBRANCH  24  26
ENDBRANCH  21  24
ENDBRANCH  20  21
ENDBRANCH   1  20
BRANCH   5  29
HETATM   29  O5  UNL     1      -5.071  -3.135   6.043  1.00  0.00    -0.390 OA
ATOM     30  H5  UNL     1      -5.407  -2.620   5.319  1.00  0.00     0.210 HD
ENDBRANCH   5  29
BRANCH   2  31
HETATM   31  O2  UNL     1      -3.975  -0.641   8.964  1.00  0.00    -0.354 OA
BRANCH  31  32
HETATM   32  C6  UNL     1      -3.699  -0.025  10.217  1.00  0.00     0.209 C
BRANCH  32  33
HETATM   33  C7  UNL     1      -4.910  -0.200  11.066  1.00  0.00    -0.035 A
HETATM   34  C8  UNL     1      -6.127  -0.352  10.412  1.00  0.00     0.009 A
HETATM   35  C9  UNL     1      -7.272  -0.528  11.132  1.00  0.00     0.001 A
HETATM   36  C10 UNL     1      -7.251  -0.561  12.527  1.00  0.00     0.000 A
HETATM   37  C11 UNL     1      -6.039  -0.411  13.182  1.00  0.00     0.001 A
HETATM   38  C12 UNL     1      -4.897  -0.234  12.454  1.00  0.00     0.009 A
ENDBRANCH  32  33
ENDBRANCH  31  32
ENDBRANCH   2  31
BRANCH   4  39
HETATM   39  C14 UNL     1      -2.742  -4.051   6.881  1.00  0.00     0.201 C
BRANCH  39  40
HETATM   40  O4  UNL     1      -3.351  -5.265   7.031  1.00  0.00    -0.393 OA
HETATM   41  C15 UNL     1      -3.763  -5.544   8.307  1.00  0.00     0.201 C
ENDBRANCH  39  40
ENDBRANCH   4  39
TORSDOF 17
ENDMDL