MODEL 3
REMARK VINA RESULT: -6.632878376      2.143      2.839
REMARK  7 active torsions:
REMARK  status: ('A' for Active; 'I' for Inactive)
REMARK    1  A    between atoms: N1_2  and  C1_4
REMARK    2  A    between atoms: C2_7  and  C3_8
REMARK    3  A    between atoms: C9_15  and  S1_16
REMARK    4  A    between atoms: S1_16  and  C10_17
REMARK    5  A    between atoms: C10_17  and  C11_18
REMARK    6  A    between atoms: C11_18  and  N4_23
REMARK    7  A    between atoms: N3_19  and  O4_21
ROOT
HETATM    1  C1  UNL     1      67.594  39.991  -0.769  1.00  0.00     0.216 A
HETATM    2  N2  UNL     1      66.490  39.350  -1.194  1.00  0.00    -0.318 N
ATOM      3  H2  UNL     1      65.782  39.725  -1.824  1.00  0.00     0.169 HD
HETATM    4  C2  UNL     1      66.490  38.121  -0.636  1.00  0.00     0.131 A
HETATM    5  O3  UNL     1      67.555  38.037   0.092  1.00  0.00    -0.286 OA
HETATM    6  C9  UNL     1      68.280  39.131   0.065  1.00  0.00     0.164 A
ENDROOT
BRANCH   6   7
HETATM    7  S1  UNL     1      69.820  39.459   0.914  1.00  0.00    -0.093 SA
BRANCH   7   8
HETATM    8  C10 UNL     1      69.909  38.407   2.360  1.00  0.00     0.159 C
BRANCH   8   9
HETATM    9  C11 UNL     1      70.042  36.968   2.043  1.00  0.00     0.109 C
HETATM   10  N3  UNL     1      69.110  36.106   2.157  1.00  0.00    -0.256 N
ATOM     11  H3  UNL     1      69.336  35.144   1.906  1.00  0.00     0.195 HD
BRANCH  10  12
HETATM   12  O4  UNL     1      67.839  36.353   2.584  1.00  0.00    -0.288 OA
ATOM     13  H4  UNL     1      67.195  36.892   2.138  1.00  0.00     0.244 HD
ENDBRANCH  10  12
BRANCH   9  14
HETATM   14  N4  UNL     1      71.316  36.523   1.580  1.00  0.00    -0.369 N
HETATM   15  C12 UNL     1      72.608  36.631   2.231  1.00  0.00     0.124 C
HETATM   16  C13 UNL     1      73.452  37.197   1.088  1.00  0.00     0.021 C
HETATM   17  C14 UNL     1      72.861  36.516  -0.127  1.00  0.00     0.021 C
HETATM   18  C15 UNL     1      71.584  35.852   0.323  1.00  0.00     0.124 C
ENDBRANCH   9  14
ENDBRANCH   8   9
ENDBRANCH   7   8
ENDBRANCH   6   7
BRANCH   1  19
HETATM   19  N1  UNL     1      67.995  41.321  -1.112  1.00  0.00    -0.094 N
HETATM   20  O1  UNL     1      67.170  42.247  -0.991  1.00  0.00    -0.530 OA
HETATM   21  O2  UNL     1      69.260  41.580  -1.564  1.00  0.00    -0.530 OA
ENDBRANCH   1  19
BRANCH   4  22
HETATM   22  C3  UNL     1      65.421  37.112  -0.871  1.00  0.00     0.061 C
HETATM   23  C4  UNL     1      64.202  37.761  -1.439  1.00  0.00     0.013 C
HETATM   24  C5  UNL     1      63.424  38.602  -0.480  1.00  0.00     0.001 C
HETATM   25  C6  UNL     1      63.233  37.893   0.827  1.00  0.00     0.000 C
HETATM   26  C7  UNL     1      63.618  36.446   0.695  1.00  0.00     0.001 C
HETATM   27  C8  UNL     1      65.086  36.330   0.353  1.00  0.00     0.013 C
ENDBRANCH   4  22
TORSDOF 7
ENDMDL