MODEL 4
REMARK VINA RESULT: -6.450900081      1.189      1.414
REMARK  7 active torsions:
REMARK  status: ('A' for Active; 'I' for Inactive)
REMARK    1  A    between atoms: O1_2  and  C2_3
REMARK    2  A    between atoms: C4_5  and  C5_6
REMARK       I    between atoms: N1_13  and  C11_14
REMARK    3  A    between atoms: C11_14  and  O4_16
REMARK    4  A    between atoms: O4_16  and  N2_17
REMARK    5  A    between atoms: N2_17  and  O5_19
REMARK    6  A    between atoms: C14_23  and  O6_24
REMARK    7  A    between atoms: C16_26  and  O7_27
ROOT
HETATM    1  C5  UNL     1      70.520  38.858   0.117  1.00  0.00     0.047 C
HETATM    2  C6  UNL     1      70.090  39.792   1.224  1.00  0.00     0.180 C
HETATM    3  O2  UNL     1      68.753  40.080   1.065  1.00  0.00    -0.360 OA
HETATM    4  C7  UNL     1      68.512  39.936  -0.319  1.00  0.00     0.141 C
HETATM    5  C8  UNL     1      69.154  41.075  -1.086  1.00  0.00     0.063 C
HETATM    6  C9  UNL     1      68.047  42.040  -1.436  1.00  0.00     0.025 C
HETATM    7  C10 UNL     1      66.877  41.492  -0.630  1.00  0.00     0.131 C
HETATM    8  N1  UNL     1      67.150  40.067  -0.677  1.00  0.00    -0.294 N
HETATM    9  C11 UNL     1      66.188  39.098  -1.025  1.00  0.00     0.388 C
HETATM   10  O3  UNL     1      64.987  39.434  -1.320  1.00  0.00    -0.236 OA
HETATM   11  C12 UNL     1      69.165  38.623  -0.579  1.00  0.00     0.073 C
ENDROOT
BRANCH   1  12
HETATM   12  C4  UNL     1      71.114  37.612   0.595  1.00  0.00    -0.046 A
HETATM   13  C3  UNL     1      71.797  36.799  -0.280  1.00  0.00     0.047 A
HETATM   14  C2  UNL     1      72.363  35.607   0.188  1.00  0.00     0.104 A
HETATM   15  C16 UNL     1      72.233  35.255   1.514  1.00  0.00     0.135 A
HETATM   16  C14 UNL     1      71.542  36.084   2.378  1.00  0.00     0.104 A
HETATM   17  C13 UNL     1      70.983  37.262   1.922  1.00  0.00     0.047 A
BRANCH  14  18
HETATM   18  O1  UNL     1      73.050  34.769  -0.648  1.00  0.00    -0.353 OA
HETATM   19  C1  UNL     1      74.332  35.136  -1.129  1.00  0.00     0.210 C
ENDBRANCH  14  18
BRANCH  15  20
HETATM   20  O7  UNL     1      72.782  34.076   2.015  1.00  0.00    -0.351 OA
HETATM   21  C17 UNL     1      72.023  32.901   2.168  1.00  0.00     0.210 C
ENDBRANCH  15  20
BRANCH  16  22
HETATM   22  O6  UNL     1      71.406  35.748   3.696  1.00  0.00    -0.353 OA
HETATM   23  C15 UNL     1      72.195  36.329   4.690  1.00  0.00     0.210 C
ENDBRANCH  16  22
ENDBRANCH   1  12
BRANCH   9  24
HETATM   24  O4  UNL     1      66.411  37.730  -1.088  1.00  0.00    -0.160 OA
BRANCH  24  25
HETATM   25  N2  UNL     1      65.414  36.793  -0.980  1.00  0.00    -0.164 N
ATOM     26  H2  UNL     1      65.070  36.300  -1.804  1.00  0.00     0.224 HD
BRANCH  25  27
HETATM   27  O5  UNL     1      64.939  36.558   0.147  1.00  0.00    -0.269 OA
ATOM     28  H5  UNL     1      64.022  36.750   0.301  1.00  0.00     0.246 HD
ENDBRANCH  25  27
ENDBRANCH  24  25
ENDBRANCH   9  24
TORSDOF 7
ENDMDL