MODEL 2
REMARK VINA RESULT: -6.672939643      1.044      1.114
REMARK  7 active torsions:
REMARK  status: ('A' for Active; 'I' for Inactive)
REMARK    1  A    between atoms: C2_2  and  O1_3
REMARK    2  A    between atoms: O1_3  and  C3_4
REMARK    3  A    between atoms: C3_4  and  C4_6
REMARK    4  A    between atoms: N1_9  and  C7_10
REMARK    5  A    between atoms: C10_14  and  C11_15
REMARK    6  A    between atoms: C11_15  and  O4_17
REMARK    7  A    between atoms: C13_19  and  N2_20
ROOT
HETATM    1  C7  UNL     1      69.258  39.565  -0.117  1.00  0.00     0.110 A
HETATM    2  S1  UNL     1      70.149  41.036  -0.423  1.00  0.00    -0.074 SA
HETATM    3  C8  UNL     1      71.528  40.730   0.508  1.00  0.00    -0.000 A
HETATM    4  C9  UNL     1      72.744  41.611   0.705  1.00  0.00     0.057 C
HETATM    5  C10 UNL     1      71.285  39.502   1.040  1.00  0.00     0.088 A
HETATM    6  C13 UNL     1      70.104  38.901   0.710  1.00  0.00     0.154 A
ENDROOT
BRANCH   1   7
HETATM    7  N1  UNL     1      67.978  39.261  -0.660  1.00  0.00    -0.353 N
HETATM    8  C6  UNL     1      67.554  37.984  -1.046  1.00  0.00     0.065 C
HETATM    9  C5  UNL     1      66.076  37.779  -1.158  1.00  0.00     0.059 C
HETATM   10  C4  UNL     1      65.189  38.946  -1.177  1.00  0.00     0.092 C
HETATM   11  C15 UNL     1      65.695  40.014  -0.243  1.00  0.00     0.035 C
HETATM   12  C14 UNL     1      67.065  40.412  -0.814  1.00  0.00     0.129 C
BRANCH  10  13
HETATM   13  C3  UNL     1      63.824  38.513  -0.733  1.00  0.00     0.263 C
HETATM   14  O2  UNL     1      62.982  39.373  -0.447  1.00  0.00    -0.265 OA
BRANCH  13  15
HETATM   15  O1  UNL     1      63.510  37.174  -0.642  1.00  0.00    -0.322 OA
BRANCH  15  16
HETATM   16  C2  UNL     1      62.765  36.644   0.410  1.00  0.00     0.174 C
HETATM   17  C1  UNL     1      63.662  36.085   1.482  1.00  0.00     0.034 C
ENDBRANCH  15  16
ENDBRANCH  13  15
ENDBRANCH  10  13
ENDBRANCH   1   7
BRANCH   6  18
HETATM   18  N2  UNL     1      69.821  37.570   1.260  1.00  0.00    -0.112 N
HETATM   19  O5  UNL     1      69.107  37.404   2.255  1.00  0.00    -0.532 OA
HETATM   20  O6  UNL     1      70.348  36.469   0.640  1.00  0.00    -0.532 OA
ENDBRANCH   6  18
BRANCH   5  21
HETATM   21  C11 UNL     1      72.325  38.897   1.949  1.00  0.00     0.296 C
HETATM   22  O3  UNL     1      73.272  38.224   1.504  1.00  0.00    -0.259 OA
BRANCH  21  23
HETATM   23  O4  UNL     1      72.235  39.089   3.316  1.00  0.00    -0.322 OA
HETATM   24  C12 UNL     1      71.950  38.060   4.241  1.00  0.00     0.213 C
ENDBRANCH  21  23
ENDBRANCH   5  21
TORSDOF 7
ENDMDL