MODEL 1
REMARK VINA RESULT: -6.858663904      0.000      0.000
REMARK  6 active torsions:
REMARK  status: ('A' for Active; 'I' for Inactive)
REMARK    1  A    between atoms: O1_2  and  C2_3
REMARK    2  A    between atoms: C4_5  and  C5_6
REMARK    3  A    between atoms: C10_11  and  O2_12
REMARK    4  A    between atoms: O2_12  and  C11_13
REMARK    5  A    between atoms: C15_21  and  O7_22
REMARK    6  A    between atoms: C17_24  and  O8_25
ROOT
HETATM    1  C5  UNL     1      69.612  37.334   0.068  1.00  0.00     0.158 C
HETATM    2  C6  UNL     1      69.402  38.128   1.330  1.00  0.00     0.042 C
HETATM    3  C7  UNL     1      68.511  39.255   0.850  1.00  0.00     0.071 C
HETATM    4  C8  UNL     1      68.427  39.050  -0.635  1.00  0.00     0.172 C
HETATM    5  C9  UNL     1      67.136  38.370  -1.044  1.00  0.00     0.130 C
HETATM    6  C10 UNL     1      65.970  39.300  -0.846  1.00  0.00     0.277 C
HETATM    7  O4  UNL     1      66.230  40.448  -1.607  1.00  0.00    -0.337 OA
HETATM    8  C13 UNL     1      67.404  41.059  -1.166  1.00  0.00     0.344 C
HETATM    9  O5  UNL     1      68.516  40.260  -1.283  1.00  0.00    -0.331 OA
HETATM   10  O6  UNL     1      69.528  38.289  -0.944  1.00  0.00    -0.345 OA
ENDROOT
BRANCH   1  11
HETATM   11  C4  UNL     1      70.888  36.617   0.032  1.00  0.00    -0.024 A
HETATM   12  C3  UNL     1      71.203  35.727   1.035  1.00  0.00     0.049 A
HETATM   13  C2  UNL     1      72.379  35.010   1.084  1.00  0.00     0.104 A
HETATM   14  C17 UNL     1      73.303  35.180   0.077  1.00  0.00     0.135 A
HETATM   15  C15 UNL     1      73.020  36.075  -0.959  1.00  0.00     0.104 A
HETATM   16  C14 UNL     1      71.831  36.774  -0.971  1.00  0.00     0.049 A
BRANCH  13  17
HETATM   17  O1  UNL     1      72.689  34.115   2.099  1.00  0.00    -0.353 OA
HETATM   18  C1  UNL     1      72.080  32.864   2.267  1.00  0.00     0.210 C
ENDBRANCH  13  17
BRANCH  14  19
HETATM   19  O8  UNL     1      74.500  34.478   0.087  1.00  0.00    -0.351 OA
HETATM   20  C18 UNL     1      74.543  33.236  -0.577  1.00  0.00     0.210 C
ENDBRANCH  14  19
BRANCH  15  21
HETATM   21  O7  UNL     1      73.972  36.227  -1.962  1.00  0.00    -0.353 OA
HETATM   22  C16 UNL     1      74.189  37.503  -2.495  1.00  0.00     0.210 C
ENDBRANCH  15  21
ENDBRANCH   1  11
BRANCH   6  23
HETATM   23  O2  UNL     1      64.811  38.674  -1.360  1.00  0.00    -0.290 OA
BRANCH  23  24
HETATM   24  C11 UNL     1      63.672  38.507  -0.568  1.00  0.00     0.257 C
HETATM   25  C12 UNL     1      63.383  37.232   0.137  1.00  0.00     0.126 C
HETATM   26  O3  UNL     1      62.902  39.480  -0.477  1.00  0.00    -0.266 OA
ENDBRANCH  23  24
ENDBRANCH   6  23
TORSDOF 6
ENDMDL