MODEL 1
REMARK VINA RESULT: -6.947369768      0.000      0.000
REMARK  6 active torsions:
REMARK  status: ('A' for Active; 'I' for Inactive)
REMARK    1  A    between atoms: O1_2  and  C2_3
REMARK    2  A    between atoms: C2_3  and  C3_5
REMARK    3  A    between atoms: N1_10  and  C8_12
REMARK    4  A    between atoms: C10_14  and  O3_15
REMARK    5  A    between atoms: C12_17  and  O4_18
REMARK    6  A    between atoms: C14_20  and  O5_21
ROOT
HETATM    1  C3  UNL     1      71.581  37.867   2.276  1.00  0.00     0.124 C
HETATM    2  C4  UNL     1      70.258  38.566   2.286  1.00  0.00     0.005 C
HETATM    3  C5  UNL     1      70.363  40.011   1.780  1.00  0.00     0.011 C
HETATM    4  C6  UNL     1      69.176  37.883   1.517  1.00  0.00     0.089 C
HETATM    5  C7  UNL     1      69.728  37.349   0.267  1.00  0.00     0.120 C
HETATM    6  N1  UNL     1      69.044  37.475  -0.822  1.00  0.00    -0.327 N
ATOM      7  H1  UNL     1      69.420  37.107  -1.696  1.00  0.00     0.169 HD
HETATM    8  O6  UNL     1      70.969  36.727   0.292  1.00  0.00    -0.328 OA
HETATM    9  C16 UNL     1      71.580  36.553   1.562  1.00  0.00     0.075 C
HETATM   10  C17 UNL     1      73.035  36.195   1.269  1.00  0.00     0.047 C
HETATM   11  C18 UNL     1      70.920  35.431   2.295  1.00  0.00     0.047 C
ENDROOT
BRANCH   6  12
HETATM   12  C8  UNL     1      67.777  38.115  -0.822  1.00  0.00     0.111 A
HETATM   13  C9  UNL     1      67.774  39.501  -1.009  1.00  0.00     0.088 A
HETATM   14  C10 UNL     1      66.536  40.143  -1.010  1.00  0.00     0.109 A
HETATM   15  C12 UNL     1      65.367  39.438  -0.835  1.00  0.00     0.153 A
HETATM   16  C14 UNL     1      65.414  38.074  -0.655  1.00  0.00     0.180 A
HETATM   17  N2  UNL     1      66.621  37.429  -0.651  1.00  0.00    -0.321 N
ATOM     18  H2  UNL     1      66.650  36.418  -0.518  1.00  0.00     0.169 HD
BRANCH  14  19
HETATM   19  O3  UNL     1      66.448  41.511  -1.188  1.00  0.00    -0.353 OA
HETATM   20  C11 UNL     1      67.632  42.206  -1.522  1.00  0.00     0.210 C
ENDBRANCH  14  19
BRANCH  15  21
HETATM   21  O4  UNL     1      64.180  40.096  -0.843  1.00  0.00    -0.349 OA
HETATM   22  C13 UNL     1      62.932  39.532  -0.496  1.00  0.00     0.210 C
ENDBRANCH  15  21
BRANCH  16  23
HETATM   23  O5  UNL     1      64.222  37.385  -0.481  1.00  0.00    -0.339 OA
HETATM   24  C15 UNL     1      64.121  36.495   0.611  1.00  0.00     0.211 C
ENDBRANCH  16  23
ENDBRANCH   6  12
BRANCH   1  25
HETATM   25  C2  UNL     1      72.075  37.755   3.672  1.00  0.00     0.266 C
HETATM   26  O2  UNL     1      71.316  38.016   4.636  1.00  0.00    -0.265 OA
BRANCH  25  27
HETATM   27  O1  UNL     1      73.372  37.363   3.958  1.00  0.00    -0.326 OA
HETATM   28  C1  UNL     1      73.660  36.397   4.968  1.00  0.00     0.213 C
ENDBRANCH  25  27
ENDBRANCH   1  25
TORSDOF 6
ENDMDL