MODEL 2
REMARK VINA RESULT: -6.197743765      2.548      3.643
REMARK  8 active torsions:
REMARK  status: ('A' for Active; 'I' for Inactive)
REMARK    1  A    between atoms: C2_2  and  O1_3
REMARK    2  A    between atoms: O1_3  and  C3_4
REMARK    3  A    between atoms: C3_4  and  C4_6
REMARK    4  A    between atoms: C6_10  and  C7_11
REMARK    5  A    between atoms: N4_19  and  C12_20
REMARK    6  A    between atoms: C13_21  and  C14_22
REMARK    7  A    between atoms: C14_22  and  O4_24
REMARK    8  A    between atoms: O4_24  and  C15_25
ROOT
HETATM    1  C4  UNL     1      69.908  36.716   0.957  1.00  0.00     0.254 C
HETATM    2  C5  UNL     1      71.243  36.031   0.825  1.00  0.00     0.133 A
HETATM    3  N1  UNL     1      71.585  34.835   1.287  1.00  0.00    -0.331 N
ATOM      4  H1  UNL     1      70.991  34.191   1.810  1.00  0.00     0.168 HD
HETATM    5  C6  UNL     1      72.863  34.639   0.934  1.00  0.00     0.097 A
HETATM    6  N2  UNL     1      73.277  35.706   0.269  1.00  0.00    -0.285 N
ATOM      7  H2  UNL     1      74.211  35.835  -0.122  1.00  0.00     0.188 HD
HETATM    8  N3  UNL     1      72.294  36.571   0.194  1.00  0.00    -0.276 N
HETATM    9  C9  UNL     1      72.416  37.853  -0.470  1.00  0.00     0.152 C
HETATM   10  C10 UNL     1      71.510  38.030  -1.641  1.00  0.00     0.042 C
HETATM   11  C11 UNL     1      70.204  37.316  -1.563  1.00  0.00     0.125 C
HETATM   12  N4  UNL     1      69.559  37.366  -0.280  1.00  0.00    -0.370 N
ENDROOT
BRANCH  12  13
HETATM   13  C12 UNL     1      68.402  38.178  -0.227  1.00  0.00     0.093 C
HETATM   14  C13 UNL     1      67.516  38.275  -1.169  1.00  0.00     0.099 C
BRANCH  14  15
HETATM   15  C14 UNL     1      66.367  39.140  -1.009  1.00  0.00     0.284 C
HETATM   16  O3  UNL     1      66.210  40.115  -1.755  1.00  0.00    -0.260 OA
BRANCH  15  17
HETATM   17  O4  UNL     1      65.420  38.900  -0.021  1.00  0.00    -0.308 OA
BRANCH  17  18
HETATM   18  C15 UNL     1      64.366  38.018  -0.264  1.00  0.00     0.060 C
HETATM   19  C16 UNL     1      63.070  38.822  -0.422  1.00  0.00     0.046 C
HETATM   20  C17 UNL     1      64.544  37.245  -1.573  1.00  0.00     0.046 C
HETATM   21  C18 UNL     1      64.183  37.029   0.841  1.00  0.00     0.046 C
ENDBRANCH  17  18
ENDBRANCH  15  17
ENDBRANCH  14  15
ENDBRANCH  12  13
BRANCH   1  22
HETATM   22  C3  UNL     1      70.031  37.661   2.094  1.00  0.00     0.289 C
HETATM   23  O2  UNL     1      70.164  37.144   3.237  1.00  0.00    -0.262 OA
BRANCH  22  24
HETATM   24  O1  UNL     1      70.013  39.023   1.997  1.00  0.00    -0.320 OA
BRANCH  24  25
HETATM   25  C2  UNL     1      70.851  39.796   2.819  1.00  0.00     0.174 C
HETATM   26  C1  UNL     1      71.980  40.436   2.053  1.00  0.00     0.034 C
ENDBRANCH  24  25
ENDBRANCH  22  24
ENDBRANCH   1  22
BRANCH   5  27
HETATM   27  C7  UNL     1      73.649  33.416   1.253  1.00  0.00     0.073 C
HETATM   28  C8  UNL     1      72.795  32.435   2.008  1.00  0.00     0.013 C
ENDBRANCH   5  27
TORSDOF 8
ENDMDL