MODEL 2
REMARK VINA RESULT: -6.221792525      0.051      2.533
REMARK  5 active torsions:
REMARK  status: ('A' for Active; 'I' for Inactive)
REMARK    1  A    between atoms: C2_2  and  C3_3
REMARK    2  A    between atoms: C8_11  and  C9_12
REMARK    3  A    between atoms: C11_14  and  O4_15
REMARK    4  A    between atoms: C13_17  and  O5_18
REMARK    5  A    between atoms: C15_20  and  O6_21
ROOT
HETATM    1  C3  UNL     1      71.452  35.414   2.247  1.00  0.00     0.202 C
HETATM    2  C4  UNL     1      72.789  35.858   2.759  1.00  0.00     0.100 C
HETATM    3  C5  UNL     1      72.964  37.320   2.877  1.00  0.00     0.215 C
HETATM    4  O1  UNL     1      72.444  38.075   1.869  1.00  0.00    -0.238 OA
HETATM    5  O2  UNL     1      72.387  37.518   0.708  1.00  0.00    -0.198 OA
HETATM    6  C6  UNL     1      71.155  36.902   0.509  1.00  0.00     0.229 C
HETATM    7  C7  UNL     1      70.853  36.956  -0.969  1.00  0.00     0.085 C
HETATM    8  O3  UNL     1      71.333  35.555   0.865  1.00  0.00    -0.311 OA
HETATM    9  C8  UNL     1      70.064  37.454   1.365  1.00  0.00     0.258 C
HETATM   10  O7  UNL     1      69.486  36.361   2.052  1.00  0.00    -0.222 OA
HETATM   11  O8  UNL     1      70.392  35.989   2.934  1.00  0.00    -0.200 OA
ENDROOT
BRANCH   9  12
HETATM   12  C9  UNL     1      69.050  38.222   0.615  1.00  0.00    -0.015 A
HETATM   13  C10 UNL     1      69.165  39.584   0.443  1.00  0.00     0.049 A
HETATM   14  C11 UNL     1      68.228  40.318  -0.255  1.00  0.00     0.104 A
HETATM   15  C13 UNL     1      67.142  39.659  -0.795  1.00  0.00     0.135 A
HETATM   16  C15 UNL     1      66.994  38.306  -0.643  1.00  0.00     0.104 A
HETATM   17  C17 UNL     1      67.949  37.602   0.060  1.00  0.00     0.049 A
BRANCH  14  18
HETATM   18  O4  UNL     1      68.360  41.690  -0.419  1.00  0.00    -0.353 OA
HETATM   19  C12 UNL     1      69.308  42.262  -1.267  1.00  0.00     0.210 C
ENDBRANCH  14  18
BRANCH  15  20
HETATM   20  O5  UNL     1      66.184  40.408  -1.507  1.00  0.00    -0.351 OA
HETATM   21  C14 UNL     1      65.098  40.918  -0.746  1.00  0.00     0.210 C
ENDBRANCH  15  20
BRANCH  16  22
HETATM   22  O6  UNL     1      65.897  37.669  -1.194  1.00  0.00    -0.353 OA
HETATM   23  C16 UNL     1      64.884  37.192  -0.355  1.00  0.00     0.210 C
ENDBRANCH  16  22
ENDBRANCH   9  12
BRANCH   1  24
HETATM   24  C2  UNL     1      71.361  33.904   2.517  1.00  0.00     0.067 C
HETATM   25  C1  UNL     1      72.664  33.224   2.114  1.00  0.00     0.010 C
ENDBRANCH   1  24
TORSDOF 5
ENDMDL