MODEL 1
REMARK VINA RESULT: -7.148403383      0.000      0.000
REMARK  4 active torsions:
REMARK  status: ('A' for Active; 'I' for Inactive)
REMARK    1  A    between atoms: O1_2  and  C2_3
REMARK    2  A    between atoms: C4_5  and  C5_6
REMARK    3  A    between atoms: C5_6  and  C6_7
REMARK    4  A    between atoms: C6_7  and  C7_8
ROOT
HETATM    1  C6  UNL     1      69.516  39.350  -0.388  1.00  0.00     0.068 C
ENDROOT
BRANCH   1   2
HETATM    2  C5  UNL     1      70.250  38.073  -0.625  1.00  0.00     0.043 C
BRANCH   2   3
HETATM    3  C4  UNL     1      70.602  37.496   0.703  1.00  0.00    -0.052 A
HETATM    4  C3  UNL     1      70.427  36.161   1.006  1.00  0.00     0.047 A
HETATM    5  C2  UNL     1      70.745  35.609   2.221  1.00  0.00     0.104 A
HETATM    6  C16 UNL     1      71.269  36.460   3.189  1.00  0.00     0.138 A
HETATM    7  C15 UNL     1      71.464  37.802   2.942  1.00  0.00     0.108 A
HETATM    8  O7  UNL     1      71.688  36.228   4.501  1.00  0.00    -0.320 OA
HETATM    9  C14 UNL     1      71.132  38.300   1.713  1.00  0.00     0.047 A
HETATM   10  O8  UNL     1      71.995  38.401   4.077  1.00  0.00    -0.323 OA
HETATM   11  C17 UNL     1      72.406  37.354   4.955  1.00  0.00     0.352 C
BRANCH   5  12
HETATM   12  O1  UNL     1      70.565  34.265   2.516  1.00  0.00    -0.353 OA
HETATM   13  C1  UNL     1      71.669  33.390   2.326  1.00  0.00     0.210 C
ENDBRANCH   5  12
ENDBRANCH   2   3
ENDBRANCH   1   2
BRANCH   1  14
HETATM   14  C7  UNL     1      68.101  39.148   0.087  1.00  0.00     0.299 C
HETATM   15  O2  UNL     1      67.333  40.267  -0.180  1.00  0.00    -0.334 OA
HETATM   16  C8  UNL     1      66.884  40.327  -1.482  1.00  0.00     0.345 C
HETATM   17  O3  UNL     1      66.149  39.236  -1.884  1.00  0.00    -0.328 OA
HETATM   18  C9  UNL     1      65.418  38.661  -0.871  1.00  0.00     0.203 C
HETATM   19  C10 UNL     1      64.553  37.557  -1.496  1.00  0.00     0.098 C
HETATM   20  C13 UNL     1      64.485  39.590  -0.169  1.00  0.00     0.098 C
HETATM   21  O5  UNL     1      66.271  37.978   0.028  1.00  0.00    -0.198 OA
HETATM   22  C11 UNL     1      63.749  36.993  -0.321  1.00  0.00     0.173 C
HETATM   23  O4  UNL     1      62.769  37.901   0.021  1.00  0.00    -0.391 OA
HETATM   24  C12 UNL     1      63.030  39.192  -0.361  1.00  0.00     0.173 C
HETATM   25  O6  UNL     1      67.496  38.041  -0.453  1.00  0.00    -0.205 OA
ENDBRANCH   1  14
TORSDOF 4
ENDMDL