MODEL 5
REMARK VINA RESULT: -5.890356193      1.473      1.954
REMARK  8 active torsions:
REMARK  status: ('A' for Active; 'I' for Inactive)
REMARK    1  A    between atoms: O1_2  and  C2_3
REMARK    2  A    between atoms: C2_3  and  C3_5
REMARK    3  A    between atoms: C3_5  and  C12_21
REMARK    4  A    between atoms: N1_6  and  O3_8
REMARK    5  A    between atoms: O3_8  and  C4_9
REMARK    6  A    between atoms: C6_12  and  N2_13
REMARK    7  A    between atoms: C12_21  and  O4_23
REMARK    8  A    between atoms: O4_23  and  C14_24
ROOT
HETATM    1  C3  UNL     1      70.434  37.011   1.280  1.00  0.00     0.136 C
HETATM    2  N1  UNL     1      69.329  36.955   0.651  1.00  0.00    -0.262 N
ATOM      3  H1  UNL     1      69.222  36.176   0.000  1.00  0.00     0.194 HD
ENDROOT
BRANCH   2   4
HETATM    4  O3  UNL     1      68.273  37.808   0.741  1.00  0.00    -0.271 OA
BRANCH   4   5
HETATM    5  C4  UNL     1      67.951  38.590  -0.396  1.00  0.00     0.196 C
HETATM    6  C5  UNL     1      67.653  39.992   0.004  1.00  0.00     0.113 C
HETATM    7  S1  UNL     1      66.480  40.151  -1.328  1.00  0.00    -0.137 SA
HETATM    8  C6  UNL     1      66.621  38.387  -0.988  1.00  0.00     0.196 C
BRANCH   8   9
HETATM    9  N2  UNL     1      65.545  37.847  -0.218  1.00  0.00    -0.306 N
HETATM   10  N3  UNL     1      65.545  36.559   0.373  1.00  0.00    -0.310 N
HETATM   11  C7  UNL     1      64.466  36.317   0.993  1.00  0.00     0.002 A
ATOM     12  H3  UNL     1      66.323  35.902   0.306  1.00  0.00     0.186 HD
HETATM   13  C8  UNL     1      64.079  35.069   1.749  1.00  0.00     0.065 C
HETATM   14  C9  UNL     1      63.519  37.453   0.921  1.00  0.00     0.080 A
HETATM   15  C10 UNL     1      64.296  38.471   0.108  1.00  0.00     0.105 A
HETATM   16  C11 UNL     1      63.455  38.751  -1.138  1.00  0.00     0.034 C
ENDBRANCH   8   9
ENDBRANCH   4   5
ENDBRANCH   2   4
BRANCH   1  17
HETATM   17  C2  UNL     1      70.656  38.094   2.227  1.00  0.00     0.310 C
HETATM   18  O2  UNL     1      70.616  37.873   3.480  1.00  0.00    -0.258 OA
BRANCH  17  19
HETATM   19  O1  UNL     1      70.917  39.400   1.858  1.00  0.00    -0.322 OA
HETATM   20  C1  UNL     1      71.693  40.250   2.683  1.00  0.00     0.213 C
ENDBRANCH  17  19
ENDBRANCH   1  17
BRANCH   1  21
HETATM   21  C12 UNL     1      71.524  36.011   1.092  1.00  0.00     0.185 C
HETATM   22  C13 UNL     1      72.842  36.702   0.799  1.00  0.00     0.047 C
BRANCH  21  23
HETATM   23  O4  UNL     1      71.680  35.207   2.254  1.00  0.00    -0.310 OA
BRANCH  23  24
HETATM   24  C14 UNL     1      71.269  33.899   2.246  1.00  0.00     0.255 C
HETATM   25  C15 UNL     1      72.182  32.732   2.269  1.00  0.00     0.126 C
HETATM   26  O5  UNL     1      70.031  33.646   2.218  1.00  0.00    -0.266 OA
ENDBRANCH  23  24
ENDBRANCH  21  23
ENDBRANCH   1  21
TORSDOF 8
ENDMDL