MODEL 1
REMARK VINA RESULT: -6.787390630      0.000      0.000
REMARK  5 active torsions:
REMARK  status: ('A' for Active; 'I' for Inactive)
REMARK    1  A    between atoms: C2_2  and  C4_4
REMARK    2  A    between atoms: C5_5  and  C6_6
REMARK    3  A    between atoms: C6_6  and  N1_7
REMARK    4  A    between atoms: N1_7  and  O1_8
REMARK    5  A    between atoms: N1_7  and  C7_10
ROOT
HETATM    1  C7  UNL     1      -7.410   3.351 -22.852  1.00  0.00     0.111 C
HETATM    2  C8  UNL     1      -6.349   2.299 -22.886  1.00  0.00     0.027 C
HETATM    3  C9  UNL     1      -5.955   2.029 -24.309  1.00  0.00     0.040 C
HETATM    4  C10 UNL     1      -7.150   1.814 -25.183  1.00  0.00     0.061 C
HETATM    5  C11 UNL     1      -7.618   0.385 -25.256  1.00  0.00     0.038 C
HETATM    6  C12 UNL     1      -6.982  -0.401 -26.378  1.00  0.00     0.003 C
HETATM    7  C13 UNL     1      -7.324   0.151 -27.745  1.00  0.00     0.000 C
HETATM    8  C14 UNL     1      -7.786   1.599 -27.518  1.00  0.00     0.003 C
HETATM    9  C15 UNL     1      -6.731   2.197 -26.598  1.00  0.00     0.038 C
HETATM   10  O2  UNL     1      -8.246   2.610 -24.886  1.00  0.00    -0.379 OA
HETATM   11  C16 UNL     1      -7.852   3.783 -24.229  1.00  0.00     0.190 C
ENDROOT
BRANCH   1  12
HETATM   12  N1  UNL     1      -7.082   4.462 -21.979  1.00  0.00    -0.182 NA
BRANCH  12  13
HETATM   13  C6  UNL     1      -5.855   4.126 -21.321  1.00  0.00     0.215 C
BRANCH  13  14
HETATM   14  C5  UNL     1      -5.339   5.285 -20.595  1.00  0.00    -0.085 C
HETATM   15  C4  UNL     1      -4.876   6.235 -19.982  1.00  0.00    -0.071 C
BRANCH  15  16
HETATM   16  C2  UNL     1      -4.291   7.339 -19.251  1.00  0.00    -0.018 C
HETATM   17  C1  UNL     1      -4.604   8.595 -19.453  1.00  0.00     0.028 C
HETATM   18  C3  UNL     1      -3.288   7.011 -18.213  1.00  0.00     0.057 C
ENDBRANCH  15  16
ENDBRANCH  13  14
ENDBRANCH  12  13
BRANCH  12  19
HETATM   19  O1  UNL     1      -6.956   5.614 -22.688  1.00  0.00    -0.312 OA
ATOM     20  H1  UNL     1      -7.470   5.581 -23.486  1.00  0.00     0.237 HD
ENDBRANCH  12  19
ENDBRANCH   1  12
TORSDOF 5
ENDMDL