MODEL 1
REMARK VINA RESULT: -5.835790291      0.000      0.000
REMARK  2 active torsions:
REMARK  status: ('A' for Active; 'I' for Inactive)
REMARK    1  A    between atoms: C2_2  and  C3_3
REMARK    2  A    between atoms: C3_3  and  C4_4
ROOT
HETATM    1  C3  UNL     1      -6.164   1.124 -23.827  1.00  0.00     0.005 C
HETATM    2  C7  UNL     1      -6.776  -0.221 -23.985  1.00  0.00     0.180 C
HETATM    3  O1  UNL     1      -6.396  -1.034 -22.969  1.00  0.00    -0.379 OA
HETATM    4  C8  UNL     1      -5.401  -0.460 -22.234  1.00  0.00     0.066 C
HETATM    5  C9  UNL     1      -5.758  -0.575 -20.769  1.00  0.00     0.038 C
HETATM    6  C10 UNL     1      -5.648  -1.984 -20.261  1.00  0.00     0.003 C
HETATM    7  C11 UNL     1      -4.386  -2.673 -20.646  1.00  0.00     0.005 C
HETATM    8  C12 UNL     1      -3.488  -1.947 -21.555  1.00  0.00    -0.008 C
HETATM    9  C13 UNL     1      -3.019  -2.864 -22.695  1.00  0.00     0.005 C
HETATM   10  C14 UNL     1      -4.114  -2.222 -23.553  1.00  0.00     0.008 C
HETATM   11  C15 UNL     1      -4.094  -1.070 -22.573  1.00  0.00     0.024 C
HETATM   12  C16 UNL     1      -5.374   1.019 -22.560  1.00  0.00     0.052 C
ENDROOT
BRANCH   1  13
HETATM   13  C2  UNL     1      -5.237   1.475 -24.971  1.00  0.00     0.009 C
HETATM   14  C1  UNL     1      -3.947   2.076 -24.524  1.00  0.00     0.006 C
ENDBRANCH   1  13
BRANCH   1  15
HETATM   15  C4  UNL     1      -7.251   2.153 -23.785  1.00  0.00     0.110 C
HETATM   16  C5  UNL     1      -7.435   2.926 -25.034  1.00  0.00     0.146 C
HETATM   17  N1  UNL     1      -7.838   4.241 -24.539  1.00  0.00    -0.384 N
HETATM   18  C6  UNL     1      -7.356   4.339 -23.207  1.00  0.00     0.171 C
ATOM     19  H1  UNL     1      -8.363   4.951 -25.051  1.00  0.00     0.160 HD
HETATM   20  N2  UNL     1      -7.025   3.169 -22.779  1.00  0.00    -0.379 N
ATOM     21  H2  UNL     1      -6.652   2.983 -21.848  1.00  0.00     0.160 HD
ENDBRANCH   1  15
TORSDOF 2
ENDMDL