MODEL 2
REMARK VINA RESULT: -5.424017578      1.004      1.021
REMARK  2 active torsions:
REMARK  status: ('A' for Active; 'I' for Inactive)
REMARK    1  A    between atoms: C6_10  and  C7_11
REMARK    2  A    between atoms: C7_11  and  C8_12
ROOT
HETATM    1  C1  UNL     1      -7.700   1.119 -24.088  1.00  0.00     0.039 C
HETATM    2  C2  UNL     1      -6.743   1.839 -25.029  1.00  0.00     0.039 C
HETATM    3  C3  UNL     1      -7.296   1.871 -26.415  1.00  0.00     0.039 C
HETATM    4  N1  UNL     1      -6.493   3.155 -24.513  1.00  0.00    -0.377 N
ATOM      5  H1  UNL     1      -6.597   3.966 -25.123  1.00  0.00     0.160 HD
HETATM    6  C4  UNL     1      -6.101   3.338 -23.157  1.00  0.00     0.078 A
HETATM    7  C5  UNL     1      -6.420   4.530 -22.508  1.00  0.00     0.121 A
HETATM    8  N2  UNL     1      -6.054   4.712 -21.226  1.00  0.00    -0.353 N
ATOM      9  H2  UNL     1      -6.288   5.584 -20.751  1.00  0.00     0.166 HD
HETATM   10  C6  UNL     1      -5.381   3.752 -20.565  1.00  0.00     0.082 A
HETATM   11  N3  UNL     1      -5.069   2.600 -21.182  1.00  0.00    -0.339 N
ATOM     12  H3  UNL     1      -4.560   1.883 -20.666  1.00  0.00     0.168 HD
HETATM   13  C11 UNL     1      -5.411   2.370 -22.459  1.00  0.00     0.100 A
HETATM   14  S1  UNL     1      -4.986   0.818 -23.280  1.00  0.00    -0.098 SA
HETATM   15  C12 UNL     1      -5.427   1.060 -25.039  1.00  0.00     0.032 C
HETATM   16  C13 UNL     1      -4.319   1.858 -25.665  1.00  0.00     0.030 C
HETATM   17  C14 UNL     1      -5.653  -0.230 -25.747  1.00  0.00     0.030 C
ENDROOT
BRANCH  10  18
HETATM   18  C7  UNL     1      -4.955   3.907 -19.150  1.00  0.00     0.081 C
BRANCH  18  19
HETATM   19  C8  UNL     1      -3.527   4.359 -19.101  1.00  0.00    -0.007 A
HETATM   20  C9  UNL     1      -3.088   5.566 -18.399  1.00  0.00     0.005 A
HETATM   21  C10 UNL     1      -2.836   4.240 -17.726  1.00  0.00     0.005 A
ENDBRANCH  18  19
ENDBRANCH  10  18
TORSDOF 2
ENDMDL