MODEL 2
REMARK VINA RESULT: -5.743675976      5.036      8.609
REMARK  4 active torsions:
REMARK  status: ('A' for Active; 'I' for Inactive)
REMARK    1  A    between atoms: C7_8  and  C8_9
REMARK    2  A    between atoms: C8_9  and  N1_10
REMARK       I    between atoms: N1_10  and  C9_12
REMARK    3  A    between atoms: C9_12  and  O3_14
REMARK    4  A    between atoms: O3_14  and  C10_15
ROOT
HETATM    1  C10 UNL     1      -6.403   2.780 -23.440  1.00  0.00     0.153 C
HETATM    2  C11 UNL     1      -7.070   1.483 -23.002  1.00  0.00     0.063 C
HETATM    3  C12 UNL     1      -4.928   2.490 -23.679  1.00  0.00     0.063 C
HETATM    4  C13 UNL     1      -6.596   3.779 -22.390  1.00  0.00     0.097 C
HETATM    5  N2  UNL     1      -6.737   4.575 -21.546  1.00  0.00    -0.194 NA
ENDROOT
BRANCH   1   6
HETATM    6  O3  UNL     1      -6.964   3.174 -24.657  1.00  0.00    -0.278 OA
BRANCH   6   7
HETATM    7  C9  UNL     1      -7.481   2.300 -25.589  1.00  0.00     0.362 C
HETATM    8  N1  UNL     1      -6.656   1.701 -26.564  1.00  0.00    -0.336 N
ATOM      9  H1  UNL     1      -5.663   1.932 -26.562  1.00  0.00     0.164 HD
HETATM   10  O2  UNL     1      -8.701   2.038 -25.561  1.00  0.00    -0.238 OA
BRANCH   8  11
HETATM   11  C8  UNL     1      -7.140   0.779 -27.563  1.00  0.00     0.130 C
BRANCH  11  12
HETATM   12  C7  UNL     1      -7.627   1.499 -28.806  1.00  0.00     0.011 C
HETATM   13  C6  UNL     1      -8.098   0.504 -29.825  1.00  0.00     0.084 C
HETATM   14  C5  UNL     1      -7.218   0.454 -31.024  1.00  0.00     0.128 C
HETATM   15  C4  UNL     1      -5.766   0.655 -30.745  1.00  0.00     0.087 C
HETATM   16  O1  UNL     1      -7.659   0.265 -32.139  1.00  0.00    -0.298 OA
HETATM   17  C2  UNL     1      -5.592   2.031 -30.198  1.00  0.00    -0.041 C
HETATM   18  C1  UNL     1      -4.219   2.052 -29.509  1.00  0.00     0.015 C
HETATM   19  C3  UNL     1      -5.462   3.033 -31.354  1.00  0.00     0.015 C
HETATM   20  C14 UNL     1      -6.668   2.509 -29.303  1.00  0.00     0.015 C
ENDBRANCH  11  12
ENDBRANCH   8  11
ENDBRANCH   6   7
ENDBRANCH   1   6
TORSDOF 4
ENDMDL