MODEL 2
REMARK VINA RESULT: -6.336704949      5.095      8.694
REMARK  3 active torsions:
REMARK  status: ('A' for Active; 'I' for Inactive)
REMARK    1  A    between atoms: C5_5  and  C6_6
REMARK    2  A    between atoms: C6_6  and  O2_8
REMARK    3  A    between atoms: O2_8  and  C7_9
ROOT
HETATM    1  C1  UNL     1      -7.253   4.300 -23.665  1.00  0.00     0.050 C
HETATM    2  C2  UNL     1      -7.172   2.825 -24.010  1.00  0.00     0.138 C
HETATM    3  C3  UNL     1      -7.873   2.064 -22.930  1.00  0.00     0.050 C
HETATM    4  C4  UNL     1      -7.778   2.638 -25.334  1.00  0.00     0.027 C
HETATM    5  C5  UNL     1      -7.033   1.824 -26.045  1.00  0.00     0.051 C
HETATM    6  C14 UNL     1      -5.881   1.412 -25.223  1.00  0.00     0.152 C
HETATM    7  C15 UNL     1      -4.638   1.359 -26.090  1.00  0.00     0.051 C
HETATM    8  C16 UNL     1      -6.190   0.049 -24.629  1.00  0.00     0.051 C
HETATM    9  N1  UNL     1      -5.786   2.396 -24.191  1.00  0.00    -0.051 N
ATOM     10  H11 UNL     1      -5.326   2.075 -23.339  1.00  0.00     0.279 HD
ATOM     11  H12 UNL     1      -5.130   3.153 -24.385  1.00  0.00     0.279 HD
ENDROOT
BRANCH   5  12
HETATM   12  C6  UNL     1      -7.284   1.385 -27.410  1.00  0.00     0.292 C
HETATM   13  O1  UNL     1      -7.780   0.286 -27.687  1.00  0.00    -0.260 OA
BRANCH  12  14
HETATM   14  O2  UNL     1      -6.975   2.194 -28.486  1.00  0.00    -0.312 OA
BRANCH  14  15
HETATM   15  C7  UNL     1      -6.190   1.832 -29.559  1.00  0.00     0.132 C
HETATM   16  C8  UNL     1      -6.803   2.156 -30.907  1.00  0.00     0.032 C
HETATM   17  C9  UNL     1      -6.390   3.496 -31.428  1.00  0.00     0.002 C
HETATM   18  C10 UNL     1      -5.241   3.435 -32.374  1.00  0.00     0.000 C
HETATM   19  C11 UNL     1      -3.988   2.864 -31.857  1.00  0.00     0.000 C
HETATM   20  C12 UNL     1      -4.142   1.794 -30.818  1.00  0.00     0.002 C
HETATM   21  C13 UNL     1      -4.780   2.336 -29.553  1.00  0.00     0.032 C
ENDBRANCH  14  15
ENDBRANCH  12  14
ENDBRANCH   5  12
TORSDOF 3
ENDMDL