MODEL 4
REMARK VINA RESULT: -4.868327578      5.232      6.839
REMARK  4 active torsions:
REMARK  status: ('A' for Active; 'I' for Inactive)
REMARK    1  A    between atoms: C1_2  and  N1_3
REMARK    2  A    between atoms: C1_2  and  O1_11
REMARK    3  A    between atoms: N1_3  and  C2_5
REMARK    4  A    between atoms: O1_11  and  C8_12
ROOT
HETATM    1  S1  UNL     1      -6.501  -0.949 -25.608  1.00  0.00    -0.033 SA
HETATM    2  C1  UNL     1      -6.662  -0.330 -24.124  1.00  0.00     0.210 C
ENDROOT
BRANCH   2   3
HETATM    3  N1  UNL     1      -7.010   1.015 -23.920  1.00  0.00    -0.357 N
ATOM      4  H1  UNL     1      -7.892   1.210 -23.446  1.00  0.00     0.162 HD
BRANCH   3   5
HETATM    5  C2  UNL     1      -6.215   2.132 -24.331  1.00  0.00     0.084 C
HETATM    6  C3  UNL     1      -7.032   3.412 -24.408  1.00  0.00     0.025 C
HETATM    7  C4  UNL     1      -7.354   3.973 -23.058  1.00  0.00     0.002 C
HETATM    8  C5  UNL     1      -6.210   4.017 -22.102  1.00  0.00     0.000 C
HETATM    9  C6  UNL     1      -5.623   2.605 -22.010  1.00  0.00     0.002 C
HETATM   10  C7  UNL     1      -5.049   2.320 -23.387  1.00  0.00     0.025 C
ENDBRANCH   3   5
ENDBRANCH   2   3
BRANCH   2  11
HETATM   11  O1  UNL     1      -6.447  -1.177 -23.044  1.00  0.00    -0.321 OA
BRANCH  11  12
HETATM   12  C8  UNL     1      -5.272  -1.196 -22.286  1.00  0.00     0.140 C
HETATM   13  C9  UNL     1      -5.598  -0.943 -20.841  1.00  0.00     0.034 C
HETATM   14  C10 UNL     1      -5.999  -2.170 -20.087  1.00  0.00     0.013 C
HETATM   15  C11 UNL     1      -4.759  -2.928 -19.591  1.00  0.00     0.074 C
HETATM   16  S2  UNL     1      -3.496  -2.654 -20.894  1.00  0.00    -0.167 SA
HETATM   17  C12 UNL     1      -4.464  -2.451 -22.442  1.00  0.00     0.106 C
ENDBRANCH  11  12
ENDBRANCH   2  11
TORSDOF 4
ENDMDL