MODEL 1
REMARK VINA RESULT: -5.412226741      0.000      0.000
REMARK  4 active torsions:
REMARK  status: ('A' for Active; 'I' for Inactive)
REMARK    1  A    between atoms: C2_2  and  C10_15
REMARK    2  A    between atoms: N1_3  and  N2_5
REMARK       I    between atoms: N2_5  and  C3_7
REMARK    3  A    between atoms: C3_7  and  C4_9
REMARK    4  A    between atoms: C10_15  and  C13_18
ROOT
HETATM    1  C1  UNL     1      -5.713  -0.265 -24.528  1.00  0.00     0.066 C
HETATM    2  C2  UNL     1      -5.831   0.547 -23.304  1.00  0.00     0.008 C
HETATM    3  N1  UNL     1      -5.941  -0.074 -22.187  1.00  0.00    -0.306 N
ATOM      4  H1  UNL     1      -6.023   0.489 -21.341  1.00  0.00     0.186 HD
ENDROOT
BRANCH   3   5
HETATM    5  N2  UNL     1      -5.957  -1.448 -22.044  1.00  0.00    -0.270 N
HETATM    6  C3  UNL     1      -5.930  -2.093 -20.781  1.00  0.00     0.240 C
HETATM    7  O1  UNL     1      -5.889  -1.423 -19.720  1.00  0.00    -0.271 OA
ATOM      8  H2  UNL     1      -5.991  -2.025 -22.884  1.00  0.00     0.190 HD
BRANCH   6   9
HETATM    9  C4  UNL     1      -5.949  -3.570 -20.663  1.00  0.00     0.079 C
HETATM   10  C5  UNL     1      -7.166  -4.137 -21.349  1.00  0.00     0.014 C
HETATM   11  C6  UNL     1      -8.393  -4.112 -20.480  1.00  0.00     0.001 C
HETATM   12  C7  UNL     1      -8.101  -4.956 -19.257  1.00  0.00     0.000 C
HETATM   13  C8  UNL     1      -7.000  -4.285 -18.494  1.00  0.00     0.001 C
HETATM   14  C9  UNL     1      -5.755  -4.053 -19.271  1.00  0.00     0.014 C
ENDBRANCH   6   9
ENDBRANCH   3   5
BRANCH   2  15
HETATM   15  C10 UNL     1      -5.826   2.003 -23.325  1.00  0.00    -0.001 C
HETATM   16  C11 UNL     1      -5.532   2.579 -21.930  1.00  0.00     0.022 C
HETATM   17  C12 UNL     1      -4.669   2.458 -24.203  1.00  0.00     0.022 C
BRANCH  15  18
HETATM   18  C13 UNL     1      -7.076   2.667 -23.797  1.00  0.00    -0.039 C
HETATM   19  C14 UNL     1      -7.191   2.894 -25.263  1.00  0.00     0.015 C
HETATM   20  C15 UNL     1      -8.328   1.943 -23.333  1.00  0.00     0.015 C
HETATM   21  C16 UNL     1      -7.120   4.050 -23.134  1.00  0.00     0.015 C
ENDBRANCH  15  18
ENDBRANCH   2  15
TORSDOF 4
ENDMDL