MODEL 2
REMARK VINA RESULT: -5.509887488      1.037      1.348
REMARK  4 active torsions:
REMARK  status: ('A' for Active; 'I' for Inactive)
REMARK    1  A    between atoms: C8_8  and  O1_9
REMARK    2  A    between atoms: O1_9  and  C9_10
REMARK    3  A    between atoms: C9_10  and  N2_14
REMARK    4  A    between atoms: N2_14  and  C11_16
ROOT
HETATM    1  C1  UNL     1      -5.519   1.096 -21.935  1.00  0.00     0.022 C
HETATM    2  C2  UNL     1      -5.591   1.781 -23.064  1.00  0.00    -0.022 C
HETATM    3  C3  UNL     1      -5.921   3.218 -23.016  1.00  0.00     0.041 C
HETATM    4  C4  UNL     1      -7.353   3.525 -23.312  1.00  0.00     0.005 C
HETATM    5  C5  UNL     1      -8.182   2.341 -23.683  1.00  0.00     0.000 C
HETATM    6  C6  UNL     1      -8.384   2.231 -25.187  1.00  0.00     0.002 C
HETATM    7  C7  UNL     1      -7.862   0.873 -25.651  1.00  0.00     0.033 C
HETATM    8  C8  UNL     1      -6.577   1.039 -26.436  1.00  0.00     0.139 C
HETATM    9  C14 UNL     1      -5.516   1.731 -25.609  1.00  0.00     0.116 C
HETATM   10  C15 UNL     1      -5.335   1.062 -24.304  1.00  0.00     0.157 C
HETATM   11  O2  UNL     1      -4.951  -0.156 -24.298  1.00  0.00    -0.293 OA
ENDROOT
BRANCH   8  12
HETATM   12  O1  UNL     1      -6.877   1.843 -27.551  1.00  0.00    -0.317 OA
BRANCH  12  13
HETATM   13  C9  UNL     1      -7.033   1.316 -28.823  1.00  0.00     0.215 C
HETATM   14  N1  UNL     1      -8.175   0.817 -29.143  1.00  0.00    -0.361 N
HETATM   15  C10 UNL     1      -8.493   0.237 -30.411  1.00  0.00     0.150 C
ATOM     16  H1  UNL     1      -8.911   0.837 -28.437  1.00  0.00     0.162 HD
BRANCH  13  17
HETATM   17  N2  UNL     1      -5.916   1.358 -29.698  1.00  0.00    -0.353 N
ATOM     18  H2  UNL     1      -5.460   0.495 -29.991  1.00  0.00     0.163 HD
BRANCH  17  19
HETATM   19  C11 UNL     1      -5.427   2.649 -30.172  1.00  0.00     0.076 C
HETATM   20  C12 UNL     1      -6.349   3.225 -31.216  1.00  0.00     0.032 C
HETATM   21  C13 UNL     1      -4.014   2.519 -30.720  1.00  0.00     0.032 C
ENDBRANCH  17  19
ENDBRANCH  13  17
ENDBRANCH  12  13
ENDBRANCH   8  12
TORSDOF 4
ENDMDL