MODEL 1
REMARK VINA RESULT: -6.527296971      0.000      0.000
REMARK  2 active torsions:
REMARK  status: ('A' for Active; 'I' for Inactive)
REMARK    1  A    between atoms: C2_2  and  C3_3
REMARK    2  A    between atoms: N1_7  and  N2_9
ROOT
HETATM    1  N2  UNL     1      -5.781   4.055 -21.203  1.00  0.00    -0.289 N
ATOM      2  H2  UNL     1      -6.117   5.017 -21.252  1.00  0.00     0.188 HD
HETATM    3  C7  UNL     1      -6.059   3.219 -22.138  1.00  0.00     0.097 C
HETATM    4  N3  UNL     1      -6.836   3.563 -23.280  1.00  0.00    -0.365 N
ATOM      5  H3  UNL     1      -7.559   4.280 -23.218  1.00  0.00     0.162 HD
HETATM    6  C8  UNL     1      -6.585   2.877 -24.534  1.00  0.00     0.145 C
HETATM    7  C9  UNL     1      -7.473   1.653 -24.559  1.00  0.00     0.036 C
HETATM    8  C10 UNL     1      -6.815   0.531 -23.781  1.00  0.00     0.004 C
HETATM    9  C11 UNL     1      -6.659   0.847 -22.322  1.00  0.00     0.013 C
HETATM   10  C12 UNL     1      -5.560   1.827 -22.044  1.00  0.00     0.064 C
HETATM   11  C13 UNL     1      -4.385   1.617 -22.991  1.00  0.00     0.088 C
HETATM   12  S1  UNL     1      -4.825   2.386 -24.563  1.00  0.00    -0.143 SA
ENDROOT
BRANCH   1  13
HETATM   13  N1  UNL     1      -5.014   3.629 -20.123  1.00  0.00    -0.308 N
HETATM   14  C6  UNL     1      -4.299   4.443 -19.423  1.00  0.00     0.004 C
HETATM   15  C5  UNL     1      -4.195   5.913 -19.664  1.00  0.00     0.054 C
HETATM   16  C14 UNL     1      -3.469   4.044 -18.268  1.00  0.00     0.062 C
HETATM   17  C4  UNL     1      -2.912   6.242 -18.893  1.00  0.00     0.014 C
HETATM   18  C3  UNL     1      -3.079   5.374 -17.673  1.00  0.00     0.013 C
ATOM     19  H1  UNL     1      -5.017   2.640 -19.877  1.00  0.00     0.186 HD
BRANCH  18  20
HETATM   20  C2  UNL     1      -1.863   5.300 -16.847  1.00  0.00    -0.032 C
HETATM   21  C1  UNL     1      -1.224   4.179 -16.644  1.00  0.00     0.007 C
ENDBRANCH  18  20
ENDBRANCH   1  13
TORSDOF 2
ENDMDL