MODEL 3
REMARK VINA RESULT: -7.954971478      3.646      6.610
REMARK  9 active torsions:
REMARK  status: ('A' for Active; 'I' for Inactive)
REMARK    1  A    between atoms: C2_2  and  C3_3
REMARK    2  A    between atoms: C7_8  and  O2_9
REMARK    3  A    between atoms: O2_9  and  C8_10
REMARK    4  A    between atoms: C8_10  and  C9_11
REMARK    5  A    between atoms: C9_11  and  O3_12
REMARK    6  A    between atoms: C9_11  and  C10_14
REMARK    7  A    between atoms: C10_14  and  N1_15
REMARK    8  A    between atoms: N3_28  and  C20_29
REMARK    9  A    between atoms: C20_29  and  C21_30
ROOT
HETATM    1  C3  UNL     1       1.763  -2.112 -21.515  1.00  0.00     0.015 A
HETATM    2  C4  UNL     1       1.391  -2.976 -22.488  1.00  0.00     0.081 A
HETATM    3  C5  UNL     1       2.312  -3.772 -23.113  1.00  0.00     0.189 A
HETATM    4  O1  UNL     1       1.961  -4.574 -24.019  1.00  0.00    -0.287 OA
HETATM    5  C6  UNL     1       3.633  -3.678 -22.735  1.00  0.00     0.077 A
HETATM    6  C7  UNL     1       4.589  -4.441 -23.366  1.00  0.00     0.104 A
HETATM    7  C16 UNL     1       5.948  -4.329 -23.019  1.00  0.00     0.071 A
HETATM    8 BR1  UNL     1       7.196  -5.421 -23.939  1.00  0.00    -0.046 Br
HETATM    9  C17 UNL     1       6.301  -3.456 -22.051  1.00  0.00     0.090 A
HETATM   10  N2  UNL     1       7.663  -3.306 -21.658  1.00  0.00    -0.099 NA
HETATM   11  C18 UNL     1       5.345  -2.658 -21.382  1.00  0.00     0.087 A
HETATM   12 CL1  UNL     1       5.964  -1.492 -20.252  1.00  0.00    -0.080 Cl
HETATM   13  C19 UNL     1       4.030  -2.761 -21.704  1.00  0.00     0.075 A
HETATM   14  N3  UNL     1       3.063  -2.007 -21.124  1.00  0.00    -0.348 N
ENDROOT
BRANCH   6  15
HETATM   15  O2  UNL     1       4.298  -5.359 -24.367  1.00  0.00    -0.346 OA
BRANCH  15  16
HETATM   16  C8  UNL     1       4.362  -6.748 -24.266  1.00  0.00     0.209 C
BRANCH  16  17
HETATM   17  C9  UNL     1       3.196  -7.482 -24.888  1.00  0.00     0.170 C
BRANCH  17  18
HETATM   18  O3  UNL     1       2.127  -7.404 -24.004  1.00  0.00    -0.392 OA
ATOM     19  H3  UNL     1       1.359  -7.150 -24.502  1.00  0.00     0.210 HD
ENDBRANCH  17  18
BRANCH  17  20
HETATM   20  C10 UNL     1       2.803  -7.013 -26.246  1.00  0.00     0.306 C
BRANCH  20  21
HETATM   21  N1  UNL     1       1.445  -7.329 -26.531  1.00  0.00     0.091 N
HETATM   22  C11 UNL     1       1.380  -8.718 -27.033  1.00  0.00     0.272 C
HETATM   23  C12 UNL     1      -0.054  -9.152 -26.728  1.00  0.00     0.030 C
HETATM   24  C13 UNL     1      -0.977  -8.183 -27.404  1.00  0.00     0.003 C
HETATM   25  C14 UNL     1      -0.241  -7.208 -28.292  1.00  0.00     0.030 C
HETATM   26  C15 UNL     1       0.819  -6.456 -27.486  1.00  0.00     0.272 C
ENDBRANCH  20  21
ENDBRANCH  17  20
ENDBRANCH  16  17
ENDBRANCH  15  16
ENDBRANCH   6  15
BRANCH  14  27
HETATM   27  C20 UNL     1       3.326  -1.158 -20.013  1.00  0.00     0.134 C
BRANCH  27  28
HETATM   28  C21 UNL     1       2.760  -1.807 -18.765  1.00  0.00     0.004 A
HETATM   29  C22 UNL     1       3.458  -2.972 -18.133  1.00  0.00     0.007 A
HETATM   30  C23 UNL     1       3.452  -1.712 -17.413  1.00  0.00     0.007 A
ENDBRANCH  27  28
ENDBRANCH  14  27
BRANCH   1  31
HETATM   31  C2  UNL     1       0.748  -1.206 -20.973  1.00  0.00     0.053 C
HETATM   32  C1  UNL     1      -0.658  -1.603 -21.524  1.00  0.00     0.011 C
ENDBRANCH   1  31
TORSDOF 9
ENDMDL