MODEL 2
REMARK VINA RESULT: -8.993971507      2.746      4.400
REMARK  12 active torsions:
REMARK  status: ('A' for Active; 'I' for Inactive)
REMARK    1  A    between atoms: C2_2  and  C3_4
REMARK    2  A    between atoms: C3_4  and  C4_5
REMARK    3  A    between atoms: C5_6  and  O2_7
REMARK    4  A    between atoms: C9_12  and  C10_13
REMARK    5  A    between atoms: C11_14  and  C12_15
REMARK    6  A    between atoms: C12_15  and  N1_16
REMARK    7  A    between atoms: N1_16  and  C13_19
REMARK    8  A    between atoms: C13_19  and  O3_20
REMARK    9  A    between atoms: O3_20  and  C14_21
REMARK   10  A    between atoms: C14_21  and  C15_23
REMARK   11  A    between atoms: C16_24  and  C17_25
REMARK   12  A    between atoms: C21_31  and  C22_32
ROOT
HETATM    1  C4  UNL     1       8.073  -2.712 -20.683  1.00  0.00     0.021 C
HETATM    2  C5  UNL     1       7.149  -2.100 -19.678  1.00  0.00     0.168 C
HETATM    3  C6  UNL     1       6.108  -1.205 -20.369  1.00  0.00     0.077 C
HETATM    4  C7  UNL     1       5.174  -2.042 -21.162  1.00  0.00    -0.046 A
HETATM    5  C8  UNL     1       3.877  -1.792 -20.798  1.00  0.00     0.028 A
HETATM    6  C9  UNL     1       2.808  -2.493 -21.383  1.00  0.00     0.018 A
HETATM    7  C18 UNL     1       3.103  -3.440 -22.337  1.00  0.00     0.021 A
HETATM    8  C19 UNL     1       4.424  -3.683 -22.697  1.00  0.00     0.011 A
HETATM    9  C20 UNL     1       5.461  -3.007 -22.134  1.00  0.00    -0.029 A
HETATM   10  C21 UNL     1       6.781  -3.331 -22.584  1.00  0.00     0.121 C
HETATM   11  N2  UNL     1       7.584  -3.779 -21.468  1.00  0.00    -0.380 N
HETATM   12  C27 UNL     1       7.272  -5.020 -20.921  1.00  0.00     0.150 C
ENDROOT
BRANCH   6  13
HETATM   13  C10 UNL     1       1.449  -2.207 -20.979  1.00  0.00    -0.065 C
HETATM   14  C11 UNL     1       0.311  -1.963 -20.662  1.00  0.00    -0.073 C
BRANCH  14  15
HETATM   15  C12 UNL     1      -1.079  -1.645 -20.295  1.00  0.00     0.328 C
BRANCH  15  16
HETATM   16  N1  UNL     1      -1.929  -2.744 -20.666  1.00  0.00    -0.044 N
ATOM     17  H12 UNL     1      -1.867  -2.951 -21.663  1.00  0.00     0.280 HD
ATOM     18  H11 UNL     1      -1.581  -3.632 -20.304  1.00  0.00     0.280 HD
BRANCH  16  19
HETATM   19  C13 UNL     1      -3.291  -2.496 -20.256  1.00  0.00     0.411 C
BRANCH  19  20
HETATM   20  O3  UNL     1      -4.052  -3.660 -20.481  1.00  0.00    -0.291 OA
BRANCH  20  21
HETATM   21  C14 UNL     1      -4.535  -4.439 -19.441  1.00  0.00     0.284 C
HETATM   22  O4  UNL     1      -5.512  -5.233 -19.687  1.00  0.00    -0.260 OA
BRANCH  21  23
HETATM   23  C15 UNL     1      -4.006  -4.415 -18.090  1.00  0.00     0.081 C
HETATM   24  C16 UNL     1      -4.603  -3.904 -17.035  1.00  0.00     0.015 C
BRANCH  24  25
HETATM   25  C17 UNL     1      -5.926  -3.263 -17.055  1.00  0.00     0.201 C
HETATM   26 CL1  UNL     1      -6.569  -3.263 -15.371  1.00  0.00    -0.104 Cl
HETATM   27 CL2  UNL     1      -5.835  -1.573 -17.603  1.00  0.00    -0.104 Cl
ENDBRANCH  24  25
ENDBRANCH  21  23
ENDBRANCH  20  21
ENDBRANCH  19  20
ENDBRANCH  16  19
ENDBRANCH  15  16
ENDBRANCH  14  15
ENDBRANCH   6  13
BRANCH   2  28
HETATM   28  O2  UNL     1       6.506  -2.965 -18.830  1.00  0.00    -0.389 OA
ATOM     29  H2  UNL     1       5.581  -3.107 -18.990  1.00  0.00     0.210 HD
ENDBRANCH   2  28
BRANCH  10  30
HETATM   30  C22 UNL     1       7.005  -4.119 -23.799  1.00  0.00     0.013 C
HETATM   31  C23 UNL     1       6.501  -3.465 -25.029  1.00  0.00     0.007 C
HETATM   32  C24 UNL     1       7.337  -4.153 -26.117  1.00  0.00     0.000 C
HETATM   33  C25 UNL     1       8.708  -4.066 -25.536  1.00  0.00     0.000 C
HETATM   34  C26 UNL     1       8.525  -4.095 -24.058  1.00  0.00     0.007 C
ENDBRANCH  10  30
BRANCH   1  35
HETATM   35  C3  UNL     1       9.510  -2.819 -20.244  1.00  0.00     0.132 C
BRANCH  35  36
HETATM   36  C2  UNL     1      10.221  -1.601 -19.929  1.00  0.00     0.128 C
HETATM   37  C1  UNL     1      10.462  -0.620 -21.022  1.00  0.00     0.091 C
HETATM   38  O1  UNL     1      10.628  -1.339 -18.828  1.00  0.00    -0.298 OA
ENDBRANCH  35  36
ENDBRANCH   1  35
TORSDOF 12
ENDMDL