MODEL 2
REMARK VINA RESULT: -9.616207118      1.941      2.720
REMARK  9 active torsions:
REMARK  status: ('A' for Active; 'I' for Inactive)
REMARK    1  A    between atoms: C2_5  and  O2_6
REMARK    2  A    between atoms: N2_10  and  C4_11
REMARK    3  A    between atoms: N3_14  and  C7_15
REMARK    4  A    between atoms: C7_15  and  C8_16
REMARK    5  A    between atoms: C8_16  and  C9_17
REMARK    6  A    between atoms: N4_20  and  C12_21
REMARK    7  A    between atoms: N5_24  and  C15_25
REMARK    8  A    between atoms: C15_25  and  C16_26
REMARK    9  A    between atoms: C16_26  and  C17_27
ROOT
HETATM    1  C9  UNL     1       2.889  -2.479 -20.495  1.00  0.00     0.024 C
HETATM    2  C10 UNL     1       2.173  -1.182 -20.233  1.00  0.00     0.027 C
HETATM    3  C11 UNL     1       0.689  -1.538 -20.156  1.00  0.00     0.118 C
HETATM    4  N4  UNL     1       0.275  -2.344 -21.237  1.00  0.00    -0.405 N
HETATM    5  C23 UNL     1       1.182  -2.542 -22.295  1.00  0.00     0.154 C
HETATM    6  C24 UNL     1       2.410  -3.246 -21.674  1.00  0.00     0.191 C
HETATM    7  F1  UNL     1       3.341  -3.554 -22.622  1.00  0.00    -0.247 F
ENDROOT
BRANCH   1   8
HETATM    8  C8  UNL     1       4.379  -2.415 -20.430  1.00  0.00     0.038 C
BRANCH   8   9
HETATM    9  C7  UNL     1       5.039  -2.648 -19.147  1.00  0.00     0.273 C
BRANCH   9  10
HETATM   10  N3  UNL     1       6.392  -2.256 -18.959  1.00  0.00     0.088 N
HETATM   11  C6  UNL     1       7.010  -1.788 -20.188  1.00  0.00     0.274 C
HETATM   12  C5  UNL     1       8.014  -2.693 -20.792  1.00  0.00     0.056 C
HETATM   13  C4  UNL     1       7.634  -4.151 -20.693  1.00  0.00     0.099 C
HETATM   14  C26 UNL     1       7.456  -4.485 -19.232  1.00  0.00     0.056 C
HETATM   15  C25 UNL     1       7.264  -3.231 -18.386  1.00  0.00     0.274 C
BRANCH  13  16
HETATM   16  N2  UNL     1       8.645  -4.996 -21.252  1.00  0.00    -0.281 N
HETATM   17  C1  UNL     1       9.966  -4.969 -21.219  1.00  0.00     0.330 A
HETATM   18  O1  UNL     1      10.649  -4.104 -20.623  1.00  0.00    -0.246 OA
HETATM   19  N1  UNL     1      10.519  -5.989 -21.906  1.00  0.00    -0.286 N
HETATM   20  C2  UNL     1       9.512  -6.712 -22.409  1.00  0.00     0.184 A
ATOM     21  H1  UNL     1      11.515  -6.174 -22.021  1.00  0.00     0.172 HD
HETATM   22  C3  UNL     1       8.336  -6.094 -22.001  1.00  0.00     0.161 A
HETATM   23 CL1  UNL     1       6.757  -6.714 -22.439  1.00  0.00    -0.059 Cl
BRANCH  20  24
HETATM   24  O2  UNL     1       9.618  -7.863 -23.191  1.00  0.00    -0.344 OA
ATOM     25  H2  UNL     1       9.273  -8.724 -22.988  1.00  0.00     0.219 HD
ENDBRANCH  20  24
ENDBRANCH  13  16
ENDBRANCH   9  10
ENDBRANCH   8   9
ENDBRANCH   1   8
BRANCH   4  26
HETATM   26  C12 UNL     1      -1.102  -2.401 -21.434  1.00  0.00     0.088 C
HETATM   27  C13 UNL     1      -1.722  -1.124 -20.892  1.00  0.00     0.069 C
HETATM   28  C14 UNL     1      -3.189  -1.090 -21.089  1.00  0.00     0.065 C
HETATM   29  N5  UNL     1      -3.898  -2.277 -20.888  1.00  0.00    -0.374 N
HETATM   30  C21 UNL     1      -3.261  -3.501 -21.114  1.00  0.00     0.065 C
HETATM   31  C22 UNL     1      -1.801  -3.550 -20.749  1.00  0.00     0.069 C
BRANCH  29  32
HETATM   32  C15 UNL     1      -5.103  -2.247 -20.147  1.00  0.00     0.127 C
BRANCH  32  33
HETATM   33  C16 UNL     1      -5.031  -3.420 -19.155  1.00  0.00     0.024 C
BRANCH  33  34
HETATM   34  C17 UNL     1      -4.491  -2.891 -17.839  1.00  0.00    -0.013 C
HETATM   35  C18 UNL     1      -4.549  -3.909 -16.716  1.00  0.00     0.005 C
HETATM   36  C19 UNL     1      -5.882  -3.304 -16.313  1.00  0.00     0.001 C
HETATM   37  C20 UNL     1      -5.484  -2.048 -17.071  1.00  0.00     0.005 C
ENDBRANCH  33  34
ENDBRANCH  32  33
ENDBRANCH  29  32
ENDBRANCH   4  26
TORSDOF 9
ENDMDL