MODEL 5
REMARK VINA RESULT: -9.123583459      2.870      3.941
REMARK  8 active torsions:
REMARK  status: ('A' for Active; 'I' for Inactive)
REMARK    1  A    between atoms: O1_2  and  C2_3
REMARK    2  A    between atoms: C4_5  and  C5_6
REMARK    3  A    between atoms: C8_9  and  N1_10
REMARK       I    between atoms: N1_10  and  C9_12
REMARK    4  A    between atoms: C11_15  and  C12_16
REMARK    5  A    between atoms: C12_16  and  C13_17
REMARK       I    between atoms: C13_17  and  N2_19
REMARK    6  A    between atoms: N2_19  and  C14_21
REMARK    7  A    between atoms: C14_21  and  C15_22
REMARK    8  A    between atoms: C24_36  and  O4_37
ROOT
HETATM    1  C5  UNL     1       4.199  -4.783 -23.868  1.00  0.00     0.043 C
HETATM    2  C6  UNL     1       3.673  -3.939 -23.038  1.00  0.00    -0.017 C
HETATM    3  C7  UNL     1       4.374  -3.045 -22.104  1.00  0.00     0.072 C
HETATM    4  C8  UNL     1       3.441  -2.790 -20.940  1.00  0.00     0.103 C
HETATM    5  C11 UNL     1       2.141  -2.315 -21.520  1.00  0.00     0.084 C
HETATM    6  S1  UNL     1       1.935  -3.622 -22.803  1.00  0.00    -0.127 SA
ENDROOT
BRANCH   5   7
HETATM    7  C12 UNL     1       0.998  -2.223 -20.615  1.00  0.00     0.120 C
BRANCH   7   8
HETATM    8  C13 UNL     1      -0.347  -2.306 -21.166  1.00  0.00     0.218 C
HETATM    9  O3  UNL     1      -0.740  -1.522 -22.051  1.00  0.00    -0.274 OA
HETATM   10  N2  UNL     1      -1.223  -3.297 -20.684  1.00  0.00    -0.360 N
ATOM     11  H2  UNL     1      -0.885  -3.932 -19.961  1.00  0.00     0.162 HD
BRANCH  10  12
HETATM   12  C14 UNL     1      -2.564  -3.460 -21.159  1.00  0.00     0.135 C
BRANCH  12  13
HETATM   13  C15 UNL     1      -3.486  -2.399 -20.585  1.00  0.00     0.015 A
HETATM   14  C16 UNL     1      -3.587  -2.313 -19.069  1.00  0.00     0.023 C
HETATM   15  C17 UNL     1      -4.904  -2.957 -18.780  1.00  0.00    -0.044 C
HETATM   16  C18 UNL     1      -5.430  -2.606 -17.404  1.00  0.00     0.015 C
HETATM   17  C19 UNL     1      -4.874  -4.447 -18.915  1.00  0.00     0.015 C
HETATM   18  C20 UNL     1      -5.797  -2.383 -19.841  1.00  0.00     0.053 C
HETATM   19  C21 UNL     1      -4.922  -2.429 -21.056  1.00  0.00     0.114 A
HETATM   20  F1  UNL     1      -5.252  -3.313 -22.066  1.00  0.00    -0.242 F
HETATM   21  C22 UNL     1      -4.009  -1.313 -21.409  1.00  0.00     0.059 A
ENDBRANCH  12  13
ENDBRANCH  10  12
ENDBRANCH   7   8
ENDBRANCH   5   7
BRANCH   4  22
HETATM   22  N1  UNL     1       4.081  -1.792 -20.103  1.00  0.00    -0.355 N
HETATM   23  C9  UNL     1       4.482  -2.060 -18.774  1.00  0.00     0.213 C
HETATM   24  C10 UNL     1       5.129  -0.986 -17.985  1.00  0.00     0.117 C
HETATM   25  O2  UNL     1       4.295  -3.189 -18.263  1.00  0.00    -0.274 OA
ATOM     26  H1  UNL     1       4.248  -0.863 -20.488  1.00  0.00     0.162 HD
ENDBRANCH   4  22
BRANCH   1  27
HETATM   27  C4  UNL     1       5.629  -5.009 -24.031  1.00  0.00     0.038 A
HETATM   28  C3  UNL     1       6.390  -4.348 -24.963  1.00  0.00     0.069 A
HETATM   29  C2  UNL     1       7.741  -4.555 -25.120  1.00  0.00     0.108 A
HETATM   30  C24 UNL     1       8.396  -5.475 -24.303  1.00  0.00     0.158 A
HETATM   31  C23 UNL     1       7.617  -6.130 -23.372  1.00  0.00     0.225 A
HETATM   32  N3  UNL     1       6.308  -5.900 -23.253  1.00  0.00    -0.331 N
HETATM   33  F2  UNL     1       8.219  -7.034 -22.559  1.00  0.00    -0.183 F
ATOM     34  H3  UNL     1       5.788  -6.418 -22.544  1.00  0.00     0.168 HD
BRANCH  29  35
HETATM   35  O1  UNL     1       8.435  -3.847 -26.085  1.00  0.00    -0.353 OA
HETATM   36  C1  UNL     1       8.339  -4.220 -27.432  1.00  0.00     0.210 C
ENDBRANCH  29  35
BRANCH  30  37
HETATM   37  O4  UNL     1       9.743  -5.682 -24.458  1.00  0.00    -0.349 OA
HETATM   38  C25 UNL     1      10.218  -6.740 -25.273  1.00  0.00     0.210 C
ENDBRANCH  30  37
ENDBRANCH   1  27
TORSDOF 8
ENDMDL