MODEL 4
REMARK VINA RESULT: -8.560585867      0.086      1.789
REMARK  10 active torsions:
REMARK  status: ('A' for Active; 'I' for Inactive)
REMARK    1  A    between atoms: C2_2  and  N1_3
REMARK    2  A    between atoms: N1_3  and  C3_4
REMARK    3  A    between atoms: N1_3  and  C5_6
REMARK    4  A    between atoms: C5_6  and  C6_7
REMARK    5  A    between atoms: C6_7  and  C7_8
REMARK    6  A    between atoms: C9_12  and  C10_13
REMARK    7  A    between atoms: N2_14  and  C11_16
REMARK    8  A    between atoms: C14_20  and  O3_21
REMARK    9  A    between atoms: C18_27  and  C19_28
REMARK   10  A    between atoms: C19_28  and  O4_29
ROOT
HETATM    1  C7  UNL     1      -1.694  -1.481 -21.280  1.00  0.00     0.139 C
HETATM    2  O1  UNL     1      -1.353  -2.863 -21.437  1.00  0.00    -0.315 OA
HETATM    3  C8  UNL     1      -0.240  -3.395 -20.822  1.00  0.00     0.268 C
HETATM    4  O2  UNL     1      -0.295  -4.488 -20.230  1.00  0.00    -0.264 OA
HETATM    5  C9  UNL     1       1.030  -2.646 -20.874  1.00  0.00     0.124 C
HETATM    6  C17 UNL     1       0.736  -1.162 -20.778  1.00  0.00     0.029 C
HETATM    7  C18 UNL     1      -0.676  -0.850 -20.388  1.00  0.00     0.040 C
ENDROOT
BRANCH   5   8
HETATM    8  C10 UNL     1       1.615  -2.877 -22.220  1.00  0.00     0.076 C
HETATM    9  N2  UNL     1       2.865  -2.913 -22.392  1.00  0.00    -0.369 N
ATOM     10  H2  UNL     1       3.177  -3.076 -23.349  1.00  0.00     0.165 HD
BRANCH   9  11
HETATM   11  C11 UNL     1       3.885  -2.756 -21.431  1.00  0.00     0.034 A
HETATM   12  C12 UNL     1       3.652  -2.067 -20.241  1.00  0.00     0.051 A
HETATM   13  C13 UNL     1       4.628  -1.892 -19.278  1.00  0.00     0.047 A
HETATM   14 BR1  UNL     1       4.263  -0.942 -17.656  1.00  0.00    -0.048 Br
HETATM   15  C14 UNL     1       5.896  -2.405 -19.472  1.00  0.00     0.100 A
HETATM   16  C15 UNL     1       6.132  -3.086 -20.646  1.00  0.00     0.047 A
HETATM   17 BR2  UNL     1       7.895  -3.801 -20.918  1.00  0.00    -0.048 Br
HETATM   18  C16 UNL     1       5.154  -3.263 -21.612  1.00  0.00     0.051 A
BRANCH  15  19
HETATM   19  O3  UNL     1       6.911  -2.249 -18.525  1.00  0.00    -0.358 OA
ATOM     20  H3  UNL     1       6.752  -1.857 -17.675  1.00  0.00     0.217 HD
ENDBRANCH  15  19
ENDBRANCH   9  11
ENDBRANCH   5   8
BRANCH   7  21
HETATM   21  C19 UNL     1      -0.826   0.669 -20.561  1.00  0.00     0.171 C
BRANCH  21  22
HETATM   22  O4  UNL     1       0.289   1.071 -21.331  1.00  0.00    -0.400 OA
ATOM     23  H4  UNL     1       0.255   0.540 -22.119  1.00  0.00     0.209 HD
ENDBRANCH  21  22
ENDBRANCH   7  21
BRANCH   1  24
HETATM   24  C6  UNL     1      -3.108  -1.403 -20.689  1.00  0.00     0.063 C
BRANCH  24  25
HETATM   25  C5  UNL     1      -3.402  -2.801 -20.199  1.00  0.00     0.275 C
BRANCH  25  26
HETATM   26  N1  UNL     1      -4.166  -2.882 -19.005  1.00  0.00     0.087 N
BRANCH  26  27
HETATM   27  C2  UNL     1      -5.357  -2.057 -19.022  1.00  0.00     0.268 C
HETATM   28  C1  UNL     1      -5.749  -1.723 -17.601  1.00  0.00     0.037 C
ENDBRANCH  26  27
BRANCH  26  29
HETATM   29  C3  UNL     1      -4.392  -4.189 -18.485  1.00  0.00     0.268 C
HETATM   30  C4  UNL     1      -5.478  -4.892 -19.252  1.00  0.00     0.037 C
ENDBRANCH  26  29
ENDBRANCH  25  26
ENDBRANCH  24  25
ENDBRANCH   1  24
TORSDOF 10
ENDMDL