MODEL 2
REMARK VINA RESULT: -7.686620212      2.275      4.215
REMARK  10 active torsions:
REMARK  status: ('A' for Active; 'I' for Inactive)
REMARK    1  A    between atoms: O1_2  and  C2_3
REMARK    2  A    between atoms: C3_6  and  C4_7
REMARK    3  A    between atoms: C4_7  and  C5_8
REMARK    4  A    between atoms: C9_12  and  C11_14
REMARK    5  A    between atoms: C11_14  and  C13_16
REMARK    6  A    between atoms: C13_16  and  N2_17
REMARK    7  A    between atoms: C14_21  and  C15_22
REMARK    8  A    between atoms: C20_28  and  N3_29
REMARK    9  A    between atoms: C20_28  and  O4_34
REMARK       I    between atoms: N3_29  and  C21_31
REMARK   10  A    between atoms: C25_37  and  C26_38
ROOT
HETATM    1  C5  UNL     1       5.731  -4.742 -23.260  1.00  0.00    -0.013 C
HETATM    2  C6  UNL     1       4.999  -5.088 -24.487  1.00  0.00    -0.045 C
HETATM    3  C7  UNL     1       4.322  -4.317 -25.305  1.00  0.00    -0.018 C
HETATM    4  C8  UNL     1       3.631  -4.826 -26.516  1.00  0.00     0.038 C
HETATM    5  C9  UNL     1       3.037  -6.199 -26.413  1.00  0.00    -0.025 C
HETATM    6  C10 UNL     1       3.192  -6.833 -27.791  1.00  0.00     0.016 C
HETATM    7  C14 UNL     1       3.663  -6.975 -25.331  1.00  0.00     0.068 C
HETATM    8  C16 UNL     1       5.032  -6.553 -24.906  1.00  0.00    -0.006 C
HETATM    9  C17 UNL     1       6.093  -6.834 -25.919  1.00  0.00     0.021 C
HETATM   10  C18 UNL     1       5.384  -7.287 -23.642  1.00  0.00     0.020 C
HETATM   11  C19 UNL     1       6.738  -6.947 -23.105  1.00  0.00     0.067 C
HETATM   12  C20 UNL     1       7.035  -5.431 -23.083  1.00  0.00     0.161 C
ENDROOT
BRANCH   1  13
HETATM   13  C4  UNL     1       5.665  -3.324 -22.853  1.00  0.00     0.097 C
BRANCH  13  14
HETATM   14  C3  UNL     1       4.705  -2.938 -21.820  1.00  0.00     0.016 A
HETATM   15  N1  UNL     1       5.251  -2.611 -20.606  1.00  0.00    -0.340 N
HETATM   16  C2  UNL     1       4.506  -2.284 -19.542  1.00  0.00     0.148 A
ATOM     17  H1  UNL     1       6.266  -2.616 -20.510  1.00  0.00     0.167 HD
HETATM   18  C27 UNL     1       3.131  -2.259 -19.607  1.00  0.00     0.001 A
HETATM   19  C25 UNL     1       2.550  -2.584 -20.818  1.00  0.00     0.018 A
HETATM   20  C28 UNL     1       2.350  -1.897 -18.421  1.00  0.00     0.053 C
HETATM   21  C24 UNL     1       3.349  -2.915 -21.892  1.00  0.00     0.038 A
BRANCH  16  22
HETATM   22  O1  UNL     1       5.104  -1.954 -18.314  1.00  0.00    -0.340 OA
HETATM   23  C1  UNL     1       6.412  -1.399 -18.283  1.00  0.00     0.211 C
ENDBRANCH  16  22
BRANCH  19  24
HETATM   24  C26 UNL     1       1.066  -2.585 -20.929  1.00  0.00     0.387 C
HETATM   25  F1  UNL     1       0.651  -2.166 -22.196  1.00  0.00    -0.209 F
HETATM   26  F2  UNL     1       0.549  -3.811 -20.593  1.00  0.00    -0.209 F
ENDBRANCH  19  24
ENDBRANCH  13  14
ENDBRANCH   1  13
BRANCH  12  27
HETATM   27  N3  UNL     1       7.529  -5.174 -21.725  1.00  0.00    -0.326 N
HETATM   28  C21 UNL     1       8.475  -4.123 -21.578  1.00  0.00     0.216 C
HETATM   29  C22 UNL     1       9.030  -3.786 -20.262  1.00  0.00     0.117 C
HETATM   30  O3  UNL     1       8.875  -3.438 -22.570  1.00  0.00    -0.274 OA
ATOM     31  H3  UNL     1       7.209  -5.722 -20.926  1.00  0.00     0.165 HD
ENDBRANCH  12  27
BRANCH  12  32
HETATM   32  O4  UNL     1       8.022  -5.228 -23.946  1.00  0.00    -0.361 OA
HETATM   33  C23 UNL     1       8.896  -6.171 -24.327  1.00  0.00     0.205 C
ENDBRANCH  12  32
BRANCH   7  34
HETATM   34  C15 UNL     1       3.688  -8.446 -25.550  1.00  0.00     0.237 C
HETATM   35  O2  UNL     1       2.746  -9.186 -25.311  1.00  0.00    -0.306 OA
ENDBRANCH   7  34
BRANCH   5  36
HETATM   36  C11 UNL     1       1.548  -6.004 -26.250  1.00  0.00     0.016 C
HETATM   37  C12 UNL     1       0.704  -6.933 -27.063  1.00  0.00     0.012 C
BRANCH  36  38
HETATM   38  C13 UNL     1       1.093  -4.581 -26.307  1.00  0.00     0.234 C
BRANCH  38  39
HETATM   39  N2  UNL     1       0.377  -4.225 -25.069  1.00  0.00    -0.079 N
ATOM     40  H23 UNL     1      -0.495  -3.731 -25.262  1.00  0.00     0.274 HD
ATOM     41  H22 UNL     1      -0.015  -5.046 -24.607  1.00  0.00     0.274 HD
ATOM     42  H21 UNL     1       0.987  -3.694 -24.449  1.00  0.00     0.274 HD
ENDBRANCH  38  39
ENDBRANCH  36  38
ENDBRANCH   5  36
TORSDOF 10
ENDMDL