MODEL 2
REMARK VINA RESULT: -7.763335063      2.052      5.071
REMARK  9 active torsions:
REMARK  status: ('A' for Active; 'I' for Inactive)
REMARK    1  A    between atoms: O1_2  and  C2_3
REMARK    2  A    between atoms: C2_3  and  C3_5
REMARK    3  A    between atoms: C6_8  and  S1_9
REMARK    4  A    between atoms: S1_9  and  C7_10
REMARK    5  A    between atoms: C7_10  and  C8_11
REMARK    6  A    between atoms: C9_12  and  C10_13
REMARK    7  A    between atoms: C12_16  and  N1_17
REMARK       I    between atoms: N1_17  and  C13_19
REMARK    8  A    between atoms: C17_24  and  N2_26
REMARK       I    between atoms: N2_26  and  C19_28
REMARK    9  A    between atoms: C19_28  and  C20_30
ROOT
HETATM    1  C8  UNL     1       6.076  -3.414 -21.301  1.00  0.00     0.007 C
HETATM    2  C9  UNL     1       4.908  -2.900 -22.124  1.00  0.00     0.011 C
HETATM    3  C11 UNL     1       4.446  -1.689 -21.372  1.00  0.00     0.019 C
HETATM    4  C12 UNL     1       3.935  -2.033 -19.991  1.00  0.00     0.093 C
HETATM    5  C15 UNL     1       4.924  -0.999 -19.467  1.00  0.00     0.016 C
HETATM    6  C16 UNL     1       5.839  -1.520 -18.413  1.00  0.00     0.038 C
HETATM    7  C17 UNL     1       6.890  -2.345 -19.132  1.00  0.00     0.034 C
HETATM    8  C18 UNL     1       7.009  -3.665 -18.481  1.00  0.00     0.039 C
HETATM    9  C21 UNL     1       6.675  -2.272 -20.585  1.00  0.00     0.023 C
HETATM   10  C22 UNL     1       5.707  -1.119 -20.765  1.00  0.00     0.005 C
ENDROOT
BRANCH   1  11
HETATM   11  C7  UNL     1       7.035  -4.196 -22.178  1.00  0.00     0.086 C
BRANCH  11  12
HETATM   12  S1  UNL     1       7.715  -5.663 -21.399  1.00  0.00    -0.112 SA
BRANCH  12  13
HETATM   13  C6  UNL     1       7.990  -6.893 -22.671  1.00  0.00     0.069 A
HETATM   14  C5  UNL     1       6.939  -7.384 -23.414  1.00  0.00     0.038 A
HETATM   15  C4  UNL     1       7.145  -8.323 -24.387  1.00  0.00     0.022 A
HETATM   16  C3  UNL     1       8.421  -8.767 -24.608  1.00  0.00     0.054 A
HETATM   17  C23 UNL     1       9.483  -8.286 -23.875  1.00  0.00     0.106 A
HETATM   18  N3  UNL     1       9.241  -7.371 -22.934  1.00  0.00    -0.360 N
ATOM     19  H3  UNL     1      10.024  -7.013 -22.388  1.00  0.00     0.166 HD
BRANCH  16  20
HETATM   20  C2  UNL     1       8.673  -9.768 -25.638  1.00  0.00     0.294 C
HETATM   21  O2  UNL     1       9.844  -9.997 -26.052  1.00  0.00    -0.259 OA
BRANCH  20  22
HETATM   22  O1  UNL     1       7.660 -10.517 -26.215  1.00  0.00    -0.322 OA
HETATM   23  C1  UNL     1       7.783 -11.132 -27.484  1.00  0.00     0.213 C
ENDBRANCH  20  22
ENDBRANCH  16  20
ENDBRANCH  12  13
ENDBRANCH  11  12
ENDBRANCH   1  11
BRANCH   2  24
HETATM   24  C10 UNL     1       5.279  -2.501 -23.527  1.00  0.00     0.120 C
HETATM   25 CL1  UNL     1       4.333  -3.272 -24.785  1.00  0.00    -0.130 Cl
ENDBRANCH   2  24
BRANCH   7  26
HETATM   26  N2  UNL     1       8.159  -1.637 -18.842  1.00  0.00    -0.351 N
HETATM   27  C19 UNL     1       9.355  -2.049 -19.438  1.00  0.00     0.232 C
HETATM   28  O4  UNL     1       9.499  -3.004 -20.236  1.00  0.00    -0.272 OA
ATOM     29  H2  UNL     1       8.160  -0.843 -18.203  1.00  0.00     0.163 HD
BRANCH  27  30
HETATM   30  C20 UNL     1      10.612  -1.295 -19.112  1.00  0.00     0.217 C
HETATM   31 CL2  UNL     1      11.115  -0.293 -20.477  1.00  0.00    -0.121 Cl
ENDBRANCH  27  30
ENDBRANCH   7  26
BRANCH   4  32
HETATM   32  N1  UNL     1       2.558  -1.706 -19.765  1.00  0.00    -0.356 N
HETATM   33  C13 UNL     1       1.546  -2.374 -20.476  1.00  0.00     0.213 C
HETATM   34  C14 UNL     1       0.088  -2.065 -20.272  1.00  0.00     0.117 C
HETATM   35  O3  UNL     1       1.832  -3.261 -21.313  1.00  0.00    -0.274 OA
ATOM     36  H1  UNL     1       2.312  -0.985 -19.087  1.00  0.00     0.162 HD
ENDBRANCH   4  32
TORSDOF 9
ENDMDL