MODEL 5
REMARK VINA RESULT: -6.351847264      2.994      5.325
REMARK  8 active torsions:
REMARK  status: ('A' for Active; 'I' for Inactive)
REMARK    1  A    between atoms: C2_2  and  C3_3
REMARK    2  A    between atoms: C3_3  and  O1_4
REMARK    3  A    between atoms: O1_4  and  C4_5
REMARK    4  A    between atoms: C4_5  and  C5_6
REMARK    5  A    between atoms: C5_6  and  O2_7
REMARK    6  A    between atoms: O2_7  and  C6_8
REMARK    7  A    between atoms: N2_17  and  C10_18
REMARK    8  A    between atoms: C14_25  and  C15_26
ROOT
HETATM    1  C6  UNL     1       5.724  -3.514 -21.978  1.00  0.00     0.174 A
HETATM    2  C7  UNL     1       6.816  -3.327 -21.174  1.00  0.00     0.130 A
HETATM    3 BR1  UNL     1       7.056  -1.760 -20.118  1.00  0.00    -0.041 Br
HETATM    4  C8  UNL     1       7.834  -4.244 -21.131  1.00  0.00     0.269 A
HETATM    5  O3  UNL     1       8.847  -4.073 -20.385  1.00  0.00    -0.266 OA
HETATM    6  N1  UNL     1       7.724  -5.318 -21.899  1.00  0.00    -0.298 N
ATOM      7  H1  UNL     1       8.461  -6.022 -21.895  1.00  0.00     0.171 HD
HETATM    8  C9  UNL     1       6.634  -5.485 -22.692  1.00  0.00     0.187 A
HETATM    9  S1  UNL     1       6.635  -6.838 -23.566  1.00  0.00    -0.040 SA
HETATM   10  N2  UNL     1       5.614  -4.632 -22.778  1.00  0.00    -0.272 N
ENDROOT
BRANCH  10  11
HETATM   11  C10 UNL     1       4.497  -4.780 -23.652  1.00  0.00     0.026 C
HETATM   12  C11 UNL     1       3.990  -6.125 -23.973  1.00  0.00     0.176 C
HETATM   13  N3  UNL     1       2.567  -5.946 -24.387  1.00  0.00    -0.356 N
HETATM   14  C12 UNL     1       2.339  -4.894 -25.282  1.00  0.00     0.218 C
ATOM     15  H3  UNL     1       1.816  -6.545 -24.042  1.00  0.00     0.162 HD
HETATM   16  O4  UNL     1       1.269  -4.925 -25.982  1.00  0.00    -0.274 OA
HETATM   17  C13 UNL     1       3.222  -3.738 -25.500  1.00  0.00     0.118 C
HETATM   18  C14 UNL     1       4.584  -3.883 -24.904  1.00  0.00     0.075 C
BRANCH  18  19
HETATM   19  C15 UNL     1       5.619  -4.251 -25.847  1.00  0.00    -0.048 A
HETATM   20  C16 UNL     1       6.908  -3.800 -25.686  1.00  0.00     0.009 A
HETATM   21  C17 UNL     1       7.918  -4.114 -26.576  1.00  0.00     0.024 A
HETATM   22  C18 UNL     1       7.637  -4.896 -27.656  1.00  0.00     0.034 A
HETATM   23 CL1  UNL     1       8.928  -5.302 -28.804  1.00  0.00    -0.084 Cl
HETATM   24  C19 UNL     1       6.364  -5.368 -27.857  1.00  0.00     0.024 A
HETATM   25  C20 UNL     1       5.369  -5.036 -26.944  1.00  0.00     0.009 A
ENDBRANCH  18  19
ENDBRANCH  10  11
BRANCH   1  26
HETATM   26  O2  UNL     1       4.745  -2.562 -21.962  1.00  0.00    -0.332 OA
BRANCH  26  27
HETATM   27  C5  UNL     1       3.482  -2.487 -21.439  1.00  0.00     0.203 C
BRANCH  27  28
HETATM   28  C4  UNL     1       3.228  -1.531 -20.311  1.00  0.00     0.194 C
BRANCH  28  29
HETATM   29  O1  UNL     1       1.876  -1.261 -20.110  1.00  0.00    -0.385 OA
BRANCH  29  30
HETATM   30  C3  UNL     1       1.043  -1.728 -21.106  1.00  0.00     0.194 C
BRANCH  30  31
HETATM   31  C2  UNL     1       0.022  -0.690 -21.477  1.00  0.00    -0.011 C
HETATM   32  C1  UNL     1       0.133   0.569 -21.085  1.00  0.00     0.009 C
ENDBRANCH  30  31
ENDBRANCH  29  30
ENDBRANCH  28  29
ENDBRANCH  27  28
ENDBRANCH  26  27
ENDBRANCH   1  26
TORSDOF 8
ENDMDL