MODEL 1
REMARK VINA RESULT: -10.303774538      0.000      0.000
REMARK  9 active torsions:
REMARK  status: ('A' for Active; 'I' for Inactive)
REMARK       I    between atoms: C2_2  and  N1_4
REMARK    1  A    between atoms: C5_7  and  O2_8
REMARK    2  A    between atoms: C5_7  and  C6_10
REMARK    3  A    between atoms: C6_10  and  C7_11
REMARK    4  A    between atoms: C9_13  and  C10_14
REMARK    5  A    between atoms: C12_16  and  N2_17
REMARK       I    between atoms: N2_17  and  C13_19
REMARK    6  A    between atoms: C13_19  and  C14_21
REMARK    7  A    between atoms: C14_21  and  C15_22
REMARK    8  A    between atoms: C15_22  and  C16_23
REMARK    9  A    between atoms: C16_23  and  N3_24
ROOT
HETATM    1  C10 UNL     1       2.533  -2.175 -21.009  1.00  0.00     0.015 A
HETATM    2  C11 UNL     1       1.270  -1.662 -20.791  1.00  0.00     0.044 A
HETATM    3  C12 UNL     1       0.174  -1.986 -21.606  1.00  0.00     0.038 A
HETATM    4  C21 UNL     1       0.463  -2.852 -22.631  1.00  0.00     0.073 A
HETATM    5  C22 UNL     1       1.726  -3.370 -22.854  1.00  0.00     0.141 A
HETATM    6  F1  UNL     1       1.979  -4.227 -23.881  1.00  0.00    -0.204 F
HETATM    7  C23 UNL     1       2.799  -3.035 -22.036  1.00  0.00     0.085 A
HETATM    8 CL1  UNL     1       4.384  -3.718 -22.360  1.00  0.00    -0.080 Cl
ENDROOT
BRANCH   1   9
HETATM    9  C9  UNL     1       3.619  -1.766 -20.086  1.00  0.00     0.046 A
HETATM   10  C8  UNL     1       5.061  -1.695 -20.299  1.00  0.00     0.094 A
HETATM   11  C7  UNL     1       5.659  -1.227 -18.983  1.00  0.00     0.160 A
HETATM   12  O4  UNL     1       4.534  -1.058 -18.190  1.00  0.00    -0.274 OA
HETATM   13  N4  UNL     1       3.402  -1.383 -18.848  1.00  0.00    -0.270 N
ATOM     14  H4  UNL     1       2.474  -1.337 -18.428  1.00  0.00     0.194 HD
BRANCH  11  15
HETATM   15  C6  UNL     1       6.514  -2.320 -18.403  1.00  0.00     0.072 C
BRANCH  15  16
HETATM   16  C5  UNL     1       7.793  -2.533 -19.157  1.00  0.00     0.063 C
HETATM   17  C4  UNL     1       8.094  -1.430 -20.146  1.00  0.00     0.057 C
HETATM   18  C3  UNL     1       9.572  -1.541 -20.484  1.00  0.00     0.128 C
HETATM   19  N1  UNL     1       9.819  -2.927 -20.861  1.00  0.00    -0.352 N
HETATM   20  C2  UNL     1      11.111  -3.455 -21.005  1.00  0.00     0.215 C
HETATM   21  C25 UNL     1       8.659  -3.787 -21.096  1.00  0.00     0.128 C
HETATM   22  C1  UNL     1      12.282  -2.579 -20.767  1.00  0.00     0.117 C
HETATM   23  O1  UNL     1      11.282  -4.641 -21.327  1.00  0.00    -0.274 OA
HETATM   24  C24 UNL     1       7.874  -3.882 -19.807  1.00  0.00     0.057 C
BRANCH  16  25
HETATM   25  O2  UNL     1       8.829  -2.475 -18.199  1.00  0.00    -0.390 OA
ATOM     26  H2  UNL     1       9.308  -3.291 -18.292  1.00  0.00     0.210 HD
ENDBRANCH  16  25
ENDBRANCH  15  16
ENDBRANCH  11  15
ENDBRANCH   1   9
BRANCH   3  27
HETATM   27  N2  UNL     1      -1.074  -1.428 -21.311  1.00  0.00    -0.327 N
HETATM   28  C13 UNL     1      -2.286  -2.128 -21.188  1.00  0.00     0.222 C
HETATM   29  O3  UNL     1      -2.459  -3.360 -21.321  1.00  0.00    -0.273 OA
ATOM     30  H2  UNL     1      -1.108  -0.417 -21.172  1.00  0.00     0.169 HD
BRANCH  28  31
HETATM   31  C14 UNL     1      -3.550  -1.366 -20.862  1.00  0.00     0.105 C
BRANCH  31  32
HETATM   32  C15 UNL     1      -4.793  -2.121 -21.203  1.00  0.00     0.039 C
BRANCH  32  33
HETATM   33  C16 UNL     1      -5.633  -2.476 -20.028  1.00  0.00     0.273 C
BRANCH  33  34
HETATM   34  N3  UNL     1      -4.883  -2.491 -18.783  1.00  0.00     0.088 N
HETATM   35  C17 UNL     1      -4.576  -3.851 -18.458  1.00  0.00     0.272 C
HETATM   36  C18 UNL     1      -4.597  -3.962 -16.948  1.00  0.00     0.032 C
HETATM   37  C19 UNL     1      -5.091  -2.648 -16.425  1.00  0.00     0.032 C
HETATM   38  C20 UNL     1      -5.630  -1.982 -17.677  1.00  0.00     0.272 C
ENDBRANCH  33  34
ENDBRANCH  32  33
ENDBRANCH  31  32
ENDBRANCH  28  31
ENDBRANCH   3  27
TORSDOF 9
ENDMDL