MODEL 3
REMARK VINA RESULT: -8.484407632      0.954      1.391
REMARK  15 active torsions:
REMARK  status: ('A' for Active; 'I' for Inactive)
REMARK    1  A    between atoms: C2_2  and  O1_4
REMARK    2  A    between atoms: C2_2  and  C4_6
REMARK    3  A    between atoms: C4_6  and  O2_7
REMARK    4  A    between atoms: C4_6  and  C5_9
REMARK    5  A    between atoms: C5_9  and  O3_10
REMARK    6  A    between atoms: C5_9  and  C6_12
REMARK    7  A    between atoms: C6_12  and  O4_13
REMARK    8  A    between atoms: C6_12  and  C7_15
REMARK    9  A    between atoms: C7_15  and  O5_16
REMARK   10  A    between atoms: C7_15  and  N1_18
REMARK   11  A    between atoms: C8_20  and  C9_21
REMARK   12  A    between atoms: N4_26  and  C10_27
REMARK   13  A    between atoms: C11_31  and  O6_32
REMARK   14  A    between atoms: C12_37  and  O7_38
REMARK   15  A    between atoms: C14_42  and  O9_43
ROOT
HETATM    1  C9  UNL     1      31.249  -7.468  27.341  1.00  0.00     0.103 A
HETATM    2  N2  UNL     1      30.577  -6.531  26.601  1.00  0.00    -0.282 N
ATOM      3  H2  UNL     1      30.097  -6.827  25.752  1.00  0.00     0.188 HD
HETATM    4  N3  UNL     1      30.529  -5.265  26.948  1.00  0.00    -0.235 N
ATOM      5  H3  UNL     1      30.007  -4.630  26.342  1.00  0.00     0.208 HD
HETATM    6  N4  UNL     1      31.107  -4.749  28.025  1.00  0.00    -0.204 N
HETATM    7  C13 UNL     1      31.779  -5.634  28.782  1.00  0.00     0.300 A
HETATM    8  O8  UNL     1      32.359  -5.275  29.810  1.00  0.00    -0.263 OA
HETATM    9  C14 UNL     1      31.870  -6.999  28.471  1.00  0.00     0.166 A
ENDROOT
BRANCH   1  10
HETATM   10  C8  UNL     1      31.259  -8.852  26.896  1.00  0.00     0.119 C
HETATM   11  N1  UNL     1      31.358  -9.160  25.665  1.00  0.00    -0.369 N
ATOM     12  H1  UNL     1      31.431  -8.416  24.972  1.00  0.00     0.161 HD
BRANCH  11  13
HETATM   13  C7  UNL     1      31.367 -10.521  25.229  1.00  0.00     0.249 C
BRANCH  13  14
HETATM   14  C6  UNL     1      29.971 -10.894  24.753  1.00  0.00     0.197 C
BRANCH  14  15
HETATM   15  C5  UNL     1      29.300 -11.842  25.727  1.00  0.00     0.182 C
BRANCH  15  16
HETATM   16  C4  UNL     1      27.984 -11.196  26.127  1.00  0.00     0.183 C
BRANCH  16  17
HETATM   17  C2  UNL     1      27.519 -11.655  27.481  1.00  0.00     0.079 C
HETATM   18  C1  UNL     1      28.322 -11.048  28.595  1.00  0.00     0.048 C
HETATM   19  C3  UNL     1      26.075 -11.203  27.636  1.00  0.00     0.048 C
BRANCH  17  20
HETATM   20  O1  UNL     1      27.505 -13.049  27.574  1.00  0.00    -0.388 OA
ATOM     21  H1  UNL     1      27.355 -13.330  28.469  1.00  0.00     0.210 HD
ENDBRANCH  17  20
ENDBRANCH  16  17
BRANCH  16  22
HETATM   22  O2  UNL     1      28.104  -9.806  26.165  1.00  0.00    -0.390 OA
ATOM     23  H2  UNL     1      28.999  -9.585  25.940  1.00  0.00     0.210 HD
ENDBRANCH  16  22
ENDBRANCH  15  16
BRANCH  15  24
HETATM   24  O3  UNL     1      28.999 -13.001  25.017  1.00  0.00    -0.390 OA
ATOM     25  H3  UNL     1      29.707 -13.153  24.402  1.00  0.00     0.210 HD
ENDBRANCH  15  24
ENDBRANCH  14  15
BRANCH  14  26
HETATM   26  O4  UNL     1      30.130 -11.571  23.548  1.00  0.00    -0.389 OA
ATOM     27  H4  UNL     1      29.824 -10.998  22.854  1.00  0.00     0.210 HD
ENDBRANCH  14  26
ENDBRANCH  13  14
BRANCH  13  28
HETATM   28  O5  UNL     1      32.223 -10.694  24.127  1.00  0.00    -0.374 OA
ATOM     29  H5  UNL     1      33.101 -10.776  24.479  1.00  0.00     0.212 HD
ENDBRANCH  13  28
ENDBRANCH  11  13
ENDBRANCH   1  10
BRANCH   9  30
HETATM   30  O9  UNL     1      32.571  -7.860  29.279  1.00  0.00    -0.354 OA
ATOM     31  H9  UNL     1      32.303  -8.768  29.353  1.00  0.00     0.218 HD
ENDBRANCH   9  30
BRANCH   6  32
HETATM   32  C10 UNL     1      31.007  -3.353  28.333  1.00  0.00     0.372 C
HETATM   33  N5  UNL     1      32.231  -2.716  28.685  1.00  0.00     0.004 N
HETATM   34  C11 UNL     1      31.761  -1.526  29.377  1.00  0.00     0.527 C
ATOM     35  H52 UNL     1      32.884  -3.295  29.214  1.00  0.00     0.285 HD
ATOM     36  H51 UNL     1      32.868  -2.542  27.907  1.00  0.00     0.285 HD
HETATM   37  N6  UNL     1      30.751  -2.128  30.264  1.00  0.00     0.007 N
HETATM   38  C12 UNL     1      29.988  -2.993  29.352  1.00  0.00     0.376 C
ATOM     39  H62 UNL     1      31.131  -2.601  31.084  1.00  0.00     0.285 HD
ATOM     40  H61 UNL     1      30.188  -1.456  30.786  1.00  0.00     0.285 HD
BRANCH  34  41
HETATM   41  O6  UNL     1      31.097  -0.657  28.495  1.00  0.00    -0.349 OA
ATOM     42  H6  UNL     1      31.031   0.217  28.861  1.00  0.00     0.213 HD
ENDBRANCH  34  41
BRANCH  38  43
HETATM   43  O7  UNL     1      29.367  -4.026  29.985  1.00  0.00    -0.367 OA
ATOM     44  H7  UNL     1      29.669  -4.900  29.770  1.00  0.00     0.212 HD
ENDBRANCH  38  43
ENDBRANCH   6  32
TORSDOF 15
ENDMDL