MODEL 1
REMARK VINA RESULT: -9.441357019      0.000      0.000
REMARK  10 active torsions:
REMARK  status: ('A' for Active; 'I' for Inactive)
REMARK       I    between atoms: C1_2  and  N1_3
REMARK    1  A    between atoms: C1_2  and  C6_17
REMARK    2  A    between atoms: N1_3  and  N2_5
REMARK    3  A    between atoms: N2_5  and  C2_7
REMARK    4  A    between atoms: C7_20  and  C8_21
REMARK    5  A    between atoms: C8_21  and  O4_22
REMARK    6  A    between atoms: C8_21  and  O5_24
REMARK    7  A    between atoms: C10_29  and  C11_30
REMARK    8  A    between atoms: C11_30  and  O8_31
REMARK    9  A    between atoms: C13_37  and  O9_38
REMARK   10  A    between atoms: C14_40  and  O10_41
ROOT
HETATM    1  C6  UNL     1      27.324 -12.023  27.807  1.00  0.00     0.121 A
HETATM    2  N5  UNL     1      26.995 -12.181  29.140  1.00  0.00    -0.331 N
ATOM      3  H5  UNL     1      27.294 -11.479  29.818  1.00  0.00     0.168 HD
HETATM    4  C7  UNL     1      26.301 -13.225  29.551  1.00  0.00     0.183 A
HETATM    5  O6  UNL     1      25.935 -14.102  28.664  1.00  0.00    -0.256 OA
HETATM    6  C9  UNL     1      26.223 -14.002  27.362  1.00  0.00     0.303 A
HETATM    7  O7  UNL     1      25.801 -14.928  26.632  1.00  0.00    -0.259 OA
HETATM    8  C10 UNL     1      26.950 -12.928  26.859  1.00  0.00     0.115 A
ENDROOT
BRANCH   1   9
HETATM    9  C1  UNL     1      28.045 -10.817  27.532  1.00  0.00     0.287 C
HETATM   10  O1  UNL     1      27.533  -9.980  26.756  1.00  0.00    -0.264 OA
HETATM   11  N1  UNL     1      29.287 -10.529  28.096  1.00  0.00    -0.263 N
ATOM     12  H1  UNL     1      29.664 -11.229  28.735  1.00  0.00     0.190 HD
BRANCH  11  13
HETATM   13  N2  UNL     1      30.065  -9.412  27.892  1.00  0.00    -0.282 N
ATOM     14  H2  UNL     1      30.005  -8.641  28.556  1.00  0.00     0.188 HD
BRANCH  13  15
HETATM   15  C2  UNL     1      30.936  -9.300  26.799  1.00  0.00     0.129 A
HETATM   16  C3  UNL     1      31.656  -8.151  26.614  1.00  0.00     0.124 A
HETATM   17  C4  UNL     1      32.502  -8.060  25.541  1.00  0.00     0.252 A
HETATM   18  O2  UNL     1      33.174  -6.990  25.366  1.00  0.00    -0.268 OA
HETATM   19  N3  UNL     1      32.618  -9.081  24.688  1.00  0.00    -0.275 N
HETATM   20  C5  UNL     1      31.907 -10.204  24.879  1.00  0.00     0.328 A
ATOM     21  H3  UNL     1      33.249  -9.008  23.890  1.00  0.00     0.173 HD
HETATM   22  O3  UNL     1      32.031 -11.159  24.062  1.00  0.00    -0.247 OA
HETATM   23  N4  UNL     1      31.073 -10.305  25.931  1.00  0.00    -0.293 N
ATOM     24  H4  UNL     1      30.537 -11.162  26.068  1.00  0.00     0.172 HD
ENDBRANCH  13  15
ENDBRANCH  11  13
ENDBRANCH   1   9
BRANCH   8  25
HETATM   25  C11 UNL     1      27.246 -12.798  25.469  1.00  0.00     0.289 C
HETATM   26  N6  UNL     1      27.354 -14.017  24.684  1.00  0.00    -0.033 N
HETATM   27  C12 UNL     1      27.769 -13.519  23.368  1.00  0.00     0.270 C
ATOM     28  H62 UNL     1      27.965 -14.730  25.083  1.00  0.00     0.281 HD
ATOM     29  H61 UNL     1      26.515 -14.597  24.676  1.00  0.00     0.281 HD
HETATM   30  C13 UNL     1      28.335 -12.153  23.544  1.00  0.00     0.177 C
HETATM   31  C14 UNL     1      28.594 -12.191  25.089  1.00  0.00     0.217 C
BRANCH  25  32
HETATM   32  O8  UNL     1      26.326 -12.010  24.729  1.00  0.00    -0.359 OA
ATOM     33  H8  UNL     1      25.411 -12.228  24.864  1.00  0.00     0.213 HD
ENDBRANCH  25  32
BRANCH  30  34
HETATM   34  O9  UNL     1      29.520 -11.930  22.882  1.00  0.00    -0.391 OA
ATOM     35  H9  UNL     1      30.121 -11.346  23.328  1.00  0.00     0.210 HD
ENDBRANCH  30  34
BRANCH  31  36
HETATM   36  O10 UNL     1      29.651 -13.067  25.201  1.00  0.00    -0.388 OA
ATOM     37  H10 UNL     1      30.101 -13.233  24.382  1.00  0.00     0.210 HD
ENDBRANCH  31  36
ENDBRANCH   8  25
BRANCH   4  38
HETATM   38  C8  UNL     1      25.931 -13.416  31.004  1.00  0.00     0.331 C
BRANCH  38  39
HETATM   39  O4  UNL     1      25.894 -14.788  31.236  1.00  0.00    -0.364 OA
ATOM     40  H4  UNL     1      26.771 -15.049  31.493  1.00  0.00     0.213 HD
ENDBRANCH  38  39
BRANCH  38  41
HETATM   41  O5  UNL     1      26.971 -12.901  31.761  1.00  0.00    -0.364 OA
ATOM     42  H5  UNL     1      27.780 -13.228  31.385  1.00  0.00     0.213 HD
ENDBRANCH  38  41
ENDBRANCH   4  38
TORSDOF 10
ENDMDL