MODEL 3
REMARK VINA RESULT: -8.516345603      2.890      7.357
REMARK  11 active torsions:
REMARK  status: ('A' for Active; 'I' for Inactive)
REMARK       I    between atoms: N1_2  and  C2_4
REMARK    1  A    between atoms: C2_4  and  C3_6
REMARK    2  A    between atoms: C3_6  and  O2_7
REMARK    3  A    between atoms: C3_6  and  C4_9
REMARK    4  A    between atoms: C4_9  and  O3_10
REMARK    5  A    between atoms: O3_10  and  C5_11
REMARK    6  A    between atoms: C5_11  and  C6_12
REMARK    7  A    between atoms: C7_14  and  N2_15
REMARK    8  A    between atoms: C10_20  and  N4_21
REMARK    9  A    between atoms: C11_26  and  N6_27
REMARK   10  A    between atoms: N8_33  and  C13_34
REMARK   11  A    between atoms: N12_39  and  N13_40
ROOT
HETATM    1  C6  UNL     1      30.441  -8.209  27.841  1.00  0.00     0.273 C
HETATM    2  O4  UNL     1      29.952  -9.312  28.580  1.00  0.00    -0.320 OA
HETATM    3  C7  UNL     1      29.996 -10.036  27.403  1.00  0.00     0.362 C
HETATM    4  N8  UNL     1      30.872  -9.069  26.784  1.00  0.00    -0.140 N
ENDROOT
BRANCH   3   5
HETATM    5  N2  UNL     1      28.693 -10.149  26.814  1.00  0.00    -0.281 N
HETATM    6  C8  UNL     1      28.125  -9.428  25.830  1.00  0.00     0.189 A
HETATM    7  N3  UNL     1      26.881  -9.904  25.618  1.00  0.00    -0.346 N
HETATM    8  C9  UNL     1      26.643 -10.930  26.461  1.00  0.00     0.123 A
ATOM      9  H3  UNL     1      26.222  -9.545  24.928  1.00  0.00     0.167 HD
HETATM   10  C10 UNL     1      25.578 -11.775  26.694  1.00  0.00     0.145 A
HETATM   11  C12 UNL     1      27.780 -11.079  27.208  1.00  0.00     0.158 A
HETATM   12  N5  UNL     1      25.678 -12.722  27.644  1.00  0.00    -0.175 N
HETATM   13  C11 UNL     1      26.794 -12.879  28.387  1.00  0.00     0.679 A
ATOM     14  H5  UNL     1      24.885 -13.341  27.808  1.00  0.00     0.186 HD
HETATM   15  N7  UNL     1      27.820 -12.044  28.144  1.00  0.00    -0.174 N
ATOM     16  H7  UNL     1      28.671 -12.148  28.696  1.00  0.00     0.186 HD
BRANCH  10  17
HETATM   17  N4  UNL     1      24.496 -11.658  26.006  1.00  0.00    -0.383 N
ATOM     18  H42 UNL     1      24.128 -10.733  25.780  1.00  0.00     0.157 HD
ATOM     19  H41 UNL     1      24.000 -12.489  25.684  1.00  0.00     0.157 HD
ENDBRANCH  10  17
BRANCH  13  20
HETATM   20  N6  UNL     1      26.857 -13.812  29.304  1.00  0.00    -0.234 N
ATOM     21  H62 UNL     1      26.490 -13.674  30.245  1.00  0.00     0.174 HD
ATOM     22  H61 UNL     1      27.280 -14.716  29.094  1.00  0.00     0.174 HD
ENDBRANCH  13  20
ENDBRANCH   3   5
BRANCH   4  23
HETATM   23  C13 UNL     1      31.709  -9.113  25.647  1.00  0.00     0.733 C
HETATM   24  N9  UNL     1      32.558  -8.217  25.249  1.00  0.00    -0.115 N
HETATM   25  N10 UNL     1      33.203  -8.599  24.094  1.00  0.00     0.008 NA
ATOM     26  H9  UNL     1      32.727  -7.335  25.733  1.00  0.00     0.203 HD
HETATM   27  N11 UNL     1      32.967  -9.958  23.891  1.00  0.00     0.030 NA
HETATM   28  N12 UNL     1      31.812 -10.158  24.676  1.00  0.00    -0.012 N
BRANCH  28  29
HETATM   29  N13 UNL     1      30.948 -11.216  24.493  1.00  0.00    -0.311 N
ATOM     30 2H13 UNL     1      30.045 -11.288  24.962  1.00  0.00     0.179 HD
ATOM     31 1H13 UNL     1      31.086 -12.031  23.895  1.00  0.00     0.179 HD
ENDBRANCH  28  29
ENDBRANCH   4  23
BRANCH   1  32
HETATM   32  C5  UNL     1      31.535  -7.553  28.655  1.00  0.00     0.222 C
BRANCH  32  33
HETATM   33  O3  UNL     1      31.937  -6.419  27.951  1.00  0.00    -0.384 OA
BRANCH  33  34
HETATM   34  C4  UNL     1      31.623  -5.256  28.670  1.00  0.00     0.209 C
BRANCH  34  35
HETATM   35  C3  UNL     1      30.716  -4.402  27.781  1.00  0.00     0.233 C
BRANCH  35  36
HETATM   36  C2  UNL     1      31.083  -4.701  26.352  1.00  0.00     0.248 C
HETATM   37  N1  UNL     1      32.306  -4.226  25.805  1.00  0.00    -0.363 N
HETATM   38  C1  UNL     1      32.595  -4.550  24.427  1.00  0.00     0.149 C
ATOM     39  H1  UNL     1      32.956  -3.675  26.365  1.00  0.00     0.162 HD
HETATM   40  O1  UNL     1      30.257  -5.377  25.706  1.00  0.00    -0.271 OA
ENDBRANCH  35  36
BRANCH  35  41
HETATM   41  O2  UNL     1      30.900  -3.061  28.009  1.00  0.00    -0.384 OA
ATOM     42  H2  UNL     1      31.736  -2.939  28.444  1.00  0.00     0.210 HD
ENDBRANCH  35  41
ENDBRANCH  34  35
ENDBRANCH  33  34
ENDBRANCH  32  33
ENDBRANCH   1  32
TORSDOF 11
ENDMDL