MODEL 4
REMARK VINA RESULT: -8.528550730      1.516      2.402
REMARK  13 active torsions:
REMARK  status: ('A' for Active; 'I' for Inactive)
REMARK    1  A    between atoms: N1_1  and  C1_4
REMARK    2  A    between atoms: N3_8  and  C3_10
REMARK    3  A    between atoms: C3_10  and  C4_11
REMARK    4  A    between atoms: C4_11  and  O1_12
REMARK    5  A    between atoms: N6_21  and  C8_22
REMARK    6  A    between atoms: C10_25  and  O3_26
REMARK    7  A    between atoms: C10_25  and  C11_28
REMARK    8  A    between atoms: C11_28  and  O4_29
REMARK    9  A    between atoms: C11_28  and  O5_31
REMARK   10  A    between atoms: C11_28  and  C12_33
REMARK       I    between atoms: C12_33  and  N7_35
REMARK   11  A    between atoms: N7_35  and  N8_37
REMARK   12  A    between atoms: C13_40  and  C14_41
REMARK   13  A    between atoms: C14_41  and  O7_42
ROOT
HETATM    1  C8  UNL     1      30.059 -11.173  26.448  1.00  0.00     0.380 C
HETATM    2  O2  UNL     1      29.454 -11.850  25.446  1.00  0.00    -0.340 OA
HETATM    3  C9  UNL     1      28.128 -12.105  25.536  1.00  0.00     0.219 C
HETATM    4  C10 UNL     1      27.525 -12.122  26.892  1.00  0.00     0.173 C
HETATM    5  C13 UNL     1      28.129 -11.078  27.754  1.00  0.00     0.192 C
HETATM    6  O8  UNL     1      29.279 -10.496  27.329  1.00  0.00    -0.333 OA
ENDROOT
BRANCH   1   7
HETATM    7  N6  UNL     1      30.996 -10.233  25.855  1.00  0.00    -0.277 N
HETATM    8  C5  UNL     1      31.395  -9.100  26.456  1.00  0.00     0.158 A
HETATM    9  N4  UNL     1      31.130  -8.492  27.640  1.00  0.00    -0.174 N
HETATM   10  C6  UNL     1      32.271  -8.493  25.587  1.00  0.00     0.123 A
HETATM   11  C2  UNL     1      31.698  -7.323  27.978  1.00  0.00     0.681 A
ATOM     12  H4  UNL     1      30.482  -8.934  28.291  1.00  0.00     0.186 HD
HETATM   13  N2  UNL     1      32.550  -6.730  27.136  1.00  0.00    -0.175 N
HETATM   14  N3  UNL     1      31.440  -6.759  29.097  1.00  0.00    -0.224 N
HETATM   15  C1  UNL     1      32.843  -7.294  25.953  1.00  0.00     0.145 A
ATOM     16  H2  UNL     1      32.981  -5.841  27.394  1.00  0.00     0.186 HD
ATOM     17  H3  UNL     1      30.784  -7.251  29.705  1.00  0.00     0.177 HD
HETATM   18  N5  UNL     1      32.380  -9.272  24.484  1.00  0.00    -0.346 N
HETATM   19  C7  UNL     1      31.588 -10.342  24.663  1.00  0.00     0.190 A
ATOM     20  H5  UNL     1      32.959  -9.080  23.666  1.00  0.00     0.167 HD
BRANCH  15  21
HETATM   21  N1  UNL     1      33.678  -6.703  25.140  1.00  0.00    -0.383 N
ATOM     22  H12 UNL     1      34.621  -6.482  25.459  1.00  0.00     0.157 HD
ATOM     23  H11 UNL     1      33.383  -6.467  24.192  1.00  0.00     0.157 HD
ENDBRANCH  15  21
BRANCH  14  24
HETATM   24  C3  UNL     1      31.954  -5.532  29.598  1.00  0.00     0.164 C
BRANCH  24  25
HETATM   25  C4  UNL     1      31.195  -4.310  29.134  1.00  0.00     0.184 C
BRANCH  25  26
HETATM   26  O1  UNL     1      31.754  -3.765  27.979  1.00  0.00    -0.399 OA
ATOM     27  H1  UNL     1      31.830  -2.819  28.039  1.00  0.00     0.209 HD
ENDBRANCH  25  26
ENDBRANCH  24  25
ENDBRANCH  14  24
ENDBRANCH   1   7
BRANCH   5  28
HETATM   28  C14 UNL     1      28.452 -11.700  29.122  1.00  0.00     0.199 C
BRANCH  28  29
HETATM   29  O7  UNL     1      27.403 -11.563  30.004  1.00  0.00    -0.398 OA
ATOM     30  H7  UNL     1      26.637 -12.045  29.715  1.00  0.00     0.209 HD
ENDBRANCH  28  29
ENDBRANCH   5  28
BRANCH   4  31
HETATM   31  O3  UNL     1      27.822 -13.380  27.458  1.00  0.00    -0.379 OA
ATOM     32  H3  UNL     1      27.011 -13.723  27.814  1.00  0.00     0.211 HD
ENDBRANCH   4  31
BRANCH   4  33
HETATM   33  C11 UNL     1      26.021 -11.942  26.862  1.00  0.00     0.282 C
BRANCH  33  34
HETATM   34  O4  UNL     1      25.752 -10.692  27.412  1.00  0.00    -0.356 OA
ATOM     35  H4  UNL     1      24.865 -10.465  27.160  1.00  0.00     0.213 HD
ENDBRANCH  33  34
BRANCH  33  36
HETATM   36  O5  UNL     1      25.569 -11.933  25.546  1.00  0.00    -0.356 OA
ATOM     37  H5  UNL     1      25.285 -12.803  25.294  1.00  0.00     0.213 HD
ENDBRANCH  33  36
BRANCH  33  38
HETATM   38  C12 UNL     1      25.285 -12.982  27.622  1.00  0.00     0.301 C
HETATM   39  O6  UNL     1      24.836 -14.006  27.054  1.00  0.00    -0.265 OA
HETATM   40  N7  UNL     1      25.058 -12.868  29.020  1.00  0.00    -0.272 N
ATOM     41  H7  UNL     1      25.403 -12.055  29.530  1.00  0.00     0.189 HD
BRANCH  40  42
HETATM   42  N8  UNL     1      24.361 -13.873  29.690  1.00  0.00    -0.342 N
ATOM     43  H82 UNL     1      23.636 -13.614  30.360  1.00  0.00     0.176 HD
ATOM     44  H81 UNL     1      24.582 -14.852  29.505  1.00  0.00     0.176 HD
ENDBRANCH  40  42
ENDBRANCH  33  38
ENDBRANCH   4  33
TORSDOF 13
ENDMDL