MODEL 1
REMARK VINA RESULT: -9.503840863      0.000      0.000
REMARK  12 active torsions:
REMARK  status: ('A' for Active; 'I' for Inactive)
REMARK    1  A    between atoms: N1_2  and  N2_3
REMARK    2  A    between atoms: N1_2  and  C2_6
REMARK    3  A    between atoms: N5_14  and  C6_15
REMARK    4  A    between atoms: C7_17  and  C8_18
REMARK    5  A    between atoms: C8_18  and  O2_19
REMARK    6  A    between atoms: C8_18  and  C9_21
REMARK    7  A    between atoms: C9_21  and  N6_22
REMARK    8  A    between atoms: C9_21  and  C11_27
REMARK       I    between atoms: N6_22  and  C10_24
REMARK    9  A    between atoms: C11_27  and  N8_28
REMARK   10  A    between atoms: C11_27  and  O4_32
REMARK   11  A    between atoms: C12_34  and  O5_35
REMARK   12  A    between atoms: C13_37  and  O6_38
ROOT
HETATM    1  C6  UNL     1      29.407 -11.364  25.864  1.00  0.00     0.262 C
HETATM    2  O1  UNL     1      29.745 -10.352  26.728  1.00  0.00    -0.353 OA
HETATM    3  C7  UNL     1      30.944  -9.810  26.342  1.00  0.00     0.186 C
HETATM    4  C12 UNL     1      31.145 -10.098  24.883  1.00  0.00     0.182 C
HETATM    5  C13 UNL     1      30.083 -11.095  24.543  1.00  0.00     0.198 C
ENDROOT
BRANCH   1   6
HETATM    6  N5  UNL     1      27.961 -11.424  25.676  1.00  0.00    -0.297 N
HETATM    7  C3  UNL     1      27.053 -11.804  26.594  1.00  0.00     0.159 A
HETATM    8  N3  UNL     1      27.170 -12.210  27.849  1.00  0.00    -0.172 N
HETATM    9  C4  UNL     1      25.776 -11.736  26.066  1.00  0.00     0.147 A
HETATM   10  C2  UNL     1      26.112 -12.550  28.606  1.00  0.00     0.702 A
ATOM     11  H3  UNL     1      28.102 -12.267  28.259  1.00  0.00     0.186 HD
HETATM   12  N9  UNL     1      24.865 -12.478  28.072  1.00  0.00    -0.152 N
HETATM   13  C14 UNL     1      24.666 -12.076  26.809  1.00  0.00     0.290 A
ATOM     14  H9  UNL     1      24.061 -12.735  28.644  1.00  0.00     0.187 HD
HETATM   15  O7  UNL     1      23.491 -12.033  26.380  1.00  0.00    -0.265 OA
HETATM   16  N4  UNL     1      25.923 -11.306  24.801  1.00  0.00    -0.345 N
HETATM   17  C5  UNL     1      27.255 -11.118  24.572  1.00  0.00     0.188 A
ATOM     18  H4  UNL     1      25.171 -11.147  24.130  1.00  0.00     0.167 HD
BRANCH  10  19
HETATM   19  N1  UNL     1      26.333 -12.972  29.936  1.00  0.00    -0.135 N
HETATM   20  C1  UNL     1      25.495 -13.966  30.535  1.00  0.00     0.197 C
BRANCH  19  21
HETATM   21  N2  UNL     1      27.377 -12.408  30.653  1.00  0.00    -0.329 N
ATOM     22  H22 UNL     1      27.212 -11.538  31.161  1.00  0.00     0.177 HD
ATOM     23  H21 UNL     1      28.293 -12.857  30.673  1.00  0.00     0.177 HD
ENDBRANCH  19  21
ENDBRANCH  10  19
ENDBRANCH   1   6
BRANCH   5  24
HETATM   24  O6  UNL     1      29.125 -10.565  23.682  1.00  0.00    -0.388 OA
ATOM     25  H6  UNL     1      28.484 -11.245  23.514  1.00  0.00     0.210 HD
ENDBRANCH   5  24
BRANCH   3  26
HETATM   26  C8  UNL     1      30.870  -8.309  26.610  1.00  0.00     0.176 C
BRANCH  26  27
HETATM   27  O2  UNL     1      29.872  -8.016  27.508  1.00  0.00    -0.391 OA
ATOM     28  H2  UNL     1      29.805  -7.080  27.652  1.00  0.00     0.210 HD
ENDBRANCH  26  27
BRANCH  26  29
HETATM   29  C9  UNL     1      32.238  -7.860  27.066  1.00  0.00     0.173 C
BRANCH  29  30
HETATM   30  N6  UNL     1      32.593  -6.664  26.334  1.00  0.00    -0.334 N
HETATM   31  C10 UNL     1      33.320  -6.678  25.131  1.00  0.00     0.329 C
HETATM   32  N7  UNL     1      33.681  -5.535  24.396  1.00  0.00    -0.040 NA
HETATM   33  O3  UNL     1      33.690  -7.803  24.656  1.00  0.00    -0.251 OA
ATOM     34  H6  UNL     1      32.300  -5.762  26.711  1.00  0.00     0.164 HD
ENDBRANCH  29  30
BRANCH  29  35
HETATM   35  C11 UNL     1      32.248  -7.499  28.535  1.00  0.00     0.341 C
BRANCH  35  36
HETATM   36  N8  UNL     1      31.995  -6.088  28.706  1.00  0.00    -0.051 N
ATOM     37  H83 UNL     1      32.335  -5.542  27.914  1.00  0.00     0.277 HD
ATOM     38  H82 UNL     1      31.002  -5.868  28.625  1.00  0.00     0.277 HD
ATOM     39  H81 UNL     1      32.386  -5.763  29.589  1.00  0.00     0.277 HD
ENDBRANCH  35  36
BRANCH  35  40
HETATM   40  O4  UNL     1      33.459  -7.844  29.151  1.00  0.00    -0.368 OA
ATOM     41  H4  UNL     1      33.348  -8.539  29.789  1.00  0.00     0.212 HD
ENDBRANCH  35  40
ENDBRANCH  29  35
ENDBRANCH  26  29
ENDBRANCH   3  26
BRANCH   4  42
HETATM   42  O5  UNL     1      32.390 -10.606  24.585  1.00  0.00    -0.390 OA
ATOM     43  H5  UNL     1      32.452 -10.975  23.712  1.00  0.00     0.210 HD
ENDBRANCH   4  42
TORSDOF 12
ENDMDL