MODEL 5
REMARK VINA RESULT: -8.914317528      2.639      8.691
REMARK  10 active torsions:
REMARK  status: ('A' for Active; 'I' for Inactive)
REMARK    1  A    between atoms: N2_3  and  C2_5
REMARK    2  A    between atoms: C3_9  and  C4_10
REMARK       I    between atoms: C4_10  and  N4_12
REMARK    3  A    between atoms: N4_12  and  C5_14
REMARK    4  A    between atoms: C5_14  and  C6_15
REMARK    5  A    between atoms: C7_19  and  O2_20
REMARK    6  A    between atoms: C8_22  and  N6_23
REMARK    7  A    between atoms: C11_28  and  N8_29
REMARK    8  A    between atoms: C14_39  and  C15_40
REMARK    9  A    between atoms: C15_40  and  O4_41
REMARK   10  A    between atoms: C15_40  and  O5_43
ROOT
HETATM    1  N1  UNL     1      25.973  -9.440  22.024  1.00  0.00    -0.172 NA
HETATM    2  C1  UNL     1      25.533 -10.112  22.859  1.00  0.00     0.180 C
HETATM    3  N2  UNL     1      24.986 -10.934  23.852  1.00  0.00    -0.277 N
ATOM      4  H2  UNL     1      24.144 -11.476  23.655  1.00  0.00     0.175 HD
ENDROOT
BRANCH   3   5
HETATM    5  C2  UNL     1      25.602 -11.017  25.143  1.00  0.00     0.495 C
HETATM    6  N3  UNL     1      26.759 -11.858  25.176  1.00  0.00    -0.013 N
HETATM    7  C3  UNL     1      26.889 -12.225  26.565  1.00  0.00     0.317 C
ATOM      8  H32 UNL     1      26.718 -12.651  24.536  1.00  0.00     0.282 HD
ATOM      9  H31 UNL     1      27.595 -11.435  24.775  1.00  0.00     0.282 HD
HETATM   10  C14 UNL     1      25.475 -12.318  27.050  1.00  0.00     0.284 C
HETATM   11  N11 UNL     1      24.688 -11.649  26.063  1.00  0.00    -0.017 N
ATOM     12 2H11 UNL     1      24.013 -10.998  26.465  1.00  0.00     0.282 HD
ATOM     13 1H11 UNL     1      24.019 -12.265  25.602  1.00  0.00     0.282 HD
BRANCH   7  14
HETATM   14  C4  UNL     1      27.591 -11.151  27.313  1.00  0.00     0.251 C
HETATM   15  O1  UNL     1      27.025 -10.568  28.292  1.00  0.00    -0.271 OA
HETATM   16  N4  UNL     1      28.901 -10.739  26.968  1.00  0.00    -0.355 N
ATOM     17  H4  UNL     1      29.384 -11.184  26.188  1.00  0.00     0.162 HD
BRANCH  16  18
HETATM   18  C5  UNL     1      29.552  -9.703  27.707  1.00  0.00     0.184 C
BRANCH  18  19
HETATM   19  C6  UNL     1      30.319  -8.742  26.846  1.00  0.00     0.344 C
HETATM   20  N5  UNL     1      31.752  -8.931  27.005  1.00  0.00    -0.017 N
HETATM   21  C7  UNL     1      32.222  -7.549  26.987  1.00  0.00     0.371 C
ATOM     22  H52 UNL     1      32.034  -9.478  27.818  1.00  0.00     0.283 HD
ATOM     23  H51 UNL     1      32.191  -9.550  26.324  1.00  0.00     0.283 HD
HETATM   24  C8  UNL     1      31.150  -6.979  27.878  1.00  0.00     0.289 C
HETATM   25  O3  UNL     1      30.026  -7.447  27.235  1.00  0.00    -0.328 OA
BRANCH  21  26
HETATM   26  O2  UNL     1      32.099  -7.166  25.664  1.00  0.00    -0.366 OA
ATOM     27  H2  UNL     1      31.938  -7.978  25.199  1.00  0.00     0.212 HD
ENDBRANCH  21  26
BRANCH  24  28
HETATM   28  N6  UNL     1      31.209  -5.594  28.114  1.00  0.00    -0.295 N
HETATM   29  C9  UNL     1      30.940  -4.636  27.191  1.00  0.00     0.188 A
HETATM   30  N7  UNL     1      31.078  -3.423  27.705  1.00  0.00    -0.346 N
HETATM   31  C10 UNL     1      31.443  -3.546  28.987  1.00  0.00     0.122 A
ATOM     32  H7  UNL     1      30.931  -2.544  27.209  1.00  0.00     0.167 HD
HETATM   33  C11 UNL     1      31.731  -2.679  30.022  1.00  0.00     0.131 A
HETATM   34  C13 UNL     1      31.521  -4.902  29.230  1.00  0.00     0.142 A
HETATM   35  N9  UNL     1      32.080  -3.113  31.240  1.00  0.00    -0.337 N
HETATM   36  C12 UNL     1      32.146  -4.435  31.440  1.00  0.00     0.183 A
ATOM     37  H9  UNL     1      32.290  -2.456  31.992  1.00  0.00     0.168 HD
HETATM   38  N10 UNL     1      31.870  -5.293  30.451  1.00  0.00    -0.336 N
ATOM     39  H10 UNL     1      31.931  -6.292  30.644  1.00  0.00     0.168 HD
BRANCH  33  40
HETATM   40  N8  UNL     1      31.667  -1.402  29.822  1.00  0.00    -0.383 N
ATOM     41  H82 UNL     1      32.177  -1.012  29.029  1.00  0.00     0.157 HD
ATOM     42  H81 UNL     1      31.114  -0.822  30.452  1.00  0.00     0.157 HD
ENDBRANCH  33  40
ENDBRANCH  24  28
ENDBRANCH  18  19
ENDBRANCH  16  18
ENDBRANCH   7  14
BRANCH  10  43
HETATM   43  C15 UNL     1      25.119 -13.786  27.149  1.00  0.00     0.287 C
BRANCH  43  44
HETATM   44  O4  UNL     1      26.144 -14.596  26.714  1.00  0.00    -0.369 OA
ATOM     45  H4  UNL     1      25.911 -15.072  25.926  1.00  0.00     0.212 HD
ENDBRANCH  43  44
BRANCH  43  46
HETATM   46  O5  UNL     1      24.793 -14.052  28.496  1.00  0.00    -0.369 OA
ATOM     47  H5  UNL     1      24.651 -14.988  28.574  1.00  0.00     0.212 HD
ENDBRANCH  43  46
ENDBRANCH  10  43
ENDBRANCH   3   5
TORSDOF 10
ENDMDL