MODEL 2
REMARK VINA RESULT: -8.241145490      0.672      1.203
REMARK  14 active torsions:
REMARK  status: ('A' for Active; 'I' for Inactive)
REMARK    1  A    between atoms: N1_1  and  C1_4
REMARK    2  A    between atoms: N6_18  and  C7_19
REMARK    3  A    between atoms: C8_20  and  O2_21
REMARK    4  A    between atoms: O2_21  and  C9_22
REMARK    5  A    between atoms: C9_22  and  C10_24
REMARK    6  A    between atoms: C10_24  and  O4_25
REMARK    7  A    between atoms: C10_24  and  C11_27
REMARK    8  A    between atoms: C11_27  and  O5_28
REMARK    9  A    between atoms: C12_33  and  C13_34
REMARK   10  A    between atoms: C13_34  and  O6_35
REMARK   11  A    between atoms: C13_34  and  C14_37
REMARK   12  A    between atoms: C14_37  and  O7_38
REMARK   13  A    between atoms: C14_37  and  N8_40
REMARK   14  A    between atoms: N8_40  and  N9_42
ROOT
HETATM    1  C7  UNL     1      28.980 -10.765  26.594  1.00  0.00     0.185 C
HETATM    2  C8  UNL     1      29.346  -9.305  26.631  1.00  0.00     0.356 C
HETATM    3  N7  UNL     1      30.403  -9.748  25.688  1.00  0.00    -0.037 N
ATOM      4  H71 UNL     1      31.305 -10.110  25.996  1.00  0.00     0.281 HD
ATOM      5  H72 UNL     1      30.933  -9.100  25.104  1.00  0.00     0.281 HD
HETATM    6  C12 UNL     1      29.327 -10.613  25.159  1.00  0.00     0.249 C
ENDROOT
BRANCH   1   7
HETATM    7  N6  UNL     1      27.751 -11.213  27.048  1.00  0.00    -0.284 N
HETATM    8  C3  UNL     1      26.566 -11.082  26.432  1.00  0.00     0.143 A
HETATM    9  N3  UNL     1      26.530 -10.461  25.257  1.00  0.00    -0.336 N
HETATM   10  C4  UNL     1      25.393 -11.564  26.967  1.00  0.00     0.122 A
HETATM   11  C2  UNL     1      25.408 -10.274  24.556  1.00  0.00     0.183 A
ATOM     12  H3  UNL     1      27.406 -10.108  24.871  1.00  0.00     0.168 HD
HETATM   13  N2  UNL     1      24.255 -10.738  25.065  1.00  0.00    -0.337 N
HETATM   14  C1  UNL     1      24.224 -11.372  26.240  1.00  0.00     0.131 A
ATOM     15  H2  UNL     1      23.389 -10.606  24.544  1.00  0.00     0.168 HD
HETATM   16  N4  UNL     1      25.370 -12.204  28.156  1.00  0.00    -0.334 N
HETATM   17  C5  UNL     1      26.538 -12.351  28.799  1.00  0.00     0.185 A
ATOM     18  H4  UNL     1      24.499 -12.560  28.549  1.00  0.00     0.167 HD
HETATM   19  N5  UNL     1      26.589 -13.027  30.078  1.00  0.00    -0.077 NA
HETATM   20  C6  UNL     1      27.676 -11.868  28.251  1.00  0.00     0.291 A
HETATM   21  O1  UNL     1      28.759 -12.036  28.903  1.00  0.00    -0.264 OA
BRANCH  14  22
HETATM   22  N1  UNL     1      23.126 -11.818  26.731  1.00  0.00    -0.383 N
ATOM     23  H12 UNL     1      22.257 -11.608  26.237  1.00  0.00     0.157 HD
ATOM     24  H11 UNL     1      23.111 -12.367  27.590  1.00  0.00     0.157 HD
ENDBRANCH  14  22
ENDBRANCH   1   7
BRANCH   2  25
HETATM   25  O2  UNL     1      29.846  -8.829  27.852  1.00  0.00    -0.283 OA
BRANCH  25  26
HETATM   26  C9  UNL     1      30.743  -7.767  27.834  1.00  0.00     0.292 C
HETATM   27  O3  UNL     1      31.341  -7.453  28.897  1.00  0.00    -0.262 OA
BRANCH  26  28
HETATM   28  C10 UNL     1      31.044  -6.967  26.637  1.00  0.00     0.241 C
BRANCH  28  29
HETATM   29  O4  UNL     1      32.275  -7.306  26.109  1.00  0.00    -0.383 OA
ATOM     30  H4  UNL     1      32.243  -7.337  25.160  1.00  0.00     0.210 HD
ENDBRANCH  28  29
BRANCH  28  31
HETATM   31  C11 UNL     1      30.938  -5.484  26.870  1.00  0.00     0.206 C
BRANCH  31  32
HETATM   32  O5  UNL     1      30.551  -4.900  25.662  1.00  0.00    -0.398 OA
ATOM     33  H5  UNL     1      30.081  -5.560  25.166  1.00  0.00     0.209 HD
ENDBRANCH  31  32
ENDBRANCH  28  31
ENDBRANCH  26  28
ENDBRANCH  25  26
ENDBRANCH   2  25
BRANCH   6  34
HETATM   34  C13 UNL     1      29.777 -11.886  24.542  1.00  0.00     0.200 C
BRANCH  34  35
HETATM   35  O6  UNL     1      30.934 -11.673  23.791  1.00  0.00    -0.389 OA
ATOM     36  H6  UNL     1      30.967 -12.283  23.063  1.00  0.00     0.210 HD
ENDBRANCH  34  35
BRANCH  34  37
HETATM   37  C14 UNL     1      28.775 -12.562  23.666  1.00  0.00     0.263 C
BRANCH  37  38
HETATM   38  O7  UNL     1      27.994 -11.567  23.067  1.00  0.00    -0.373 OA
ATOM     39  H7  UNL     1      27.960 -10.828  23.663  1.00  0.00     0.212 HD
ENDBRANCH  37  38
BRANCH  37  40
HETATM   40  N8  UNL     1      27.931 -13.496  24.286  1.00  0.00    -0.312 N
ATOM     41  H8  UNL     1      26.946 -13.557  24.032  1.00  0.00     0.182 HD
BRANCH  40  42
HETATM   42  N9  UNL     1      28.456 -14.316  25.232  1.00  0.00    -0.347 N
ATOM     43  H92 UNL     1      28.436 -15.326  25.095  1.00  0.00     0.176 HD
ATOM     44  H91 UNL     1      28.863 -13.896  26.068  1.00  0.00     0.176 HD
ENDBRANCH  40  42
ENDBRANCH  37  40
ENDBRANCH  34  37
ENDBRANCH   6  34
TORSDOF 14
ENDMDL