MODEL 5
REMARK VINA RESULT: -8.711656081      2.647      5.119
REMARK  14 active torsions:
REMARK  status: ('A' for Active; 'I' for Inactive)
REMARK    1  A    between atoms: N1_1  and  C1_4
REMARK    2  A    between atoms: N4_9  and  C2_10
REMARK    3  A    between atoms: C3_12  and  C4_13
REMARK    4  A    between atoms: C4_13  and  O2_14
REMARK    5  A    between atoms: C4_13  and  C10_29
REMARK    6  A    between atoms: O2_14  and  C5_15
REMARK    7  A    between atoms: C5_15  and  C6_17
REMARK    8  A    between atoms: C9_23  and  N6_24
REMARK    9  A    between atoms: C10_29  and  N8_30
REMARK   10  A    between atoms: C10_29  and  C11_34
REMARK   11  A    between atoms: C11_34  and  O5_35
REMARK   12  A    between atoms: C11_34  and  C12_37
REMARK   13  A    between atoms: C12_37  and  O6_38
REMARK   14  A    between atoms: C14_41  and  O7_42
ROOT
HETATM    1  C4  UNL     1      27.423 -11.235  26.173  1.00  0.00     0.194 C
ENDROOT
BRANCH   1   2
HETATM    2  C3  UNL     1      26.245 -11.519  27.079  1.00  0.00     0.158 C
HETATM    3  O1  UNL     1      26.659 -11.694  28.356  1.00  0.00    -0.353 OA
HETATM    4  C2  UNL     1      26.569 -13.039  28.683  1.00  0.00     0.293 C
HETATM    5  C14 UNL     1      25.228 -13.394  28.026  1.00  0.00     0.172 C
HETATM    6  C13 UNL     1      25.461 -12.736  26.657  1.00  0.00     0.071 C
BRANCH   4   7
HETATM    7  N4  UNL     1      26.525 -13.269  30.097  1.00  0.00    -0.172 N
HETATM    8  N3  UNL     1      27.240 -12.525  30.957  1.00  0.00    -0.209 N
HETATM    9  N2  UNL     1      27.010 -12.951  32.171  1.00  0.00    -0.115 N
ATOM     10  H3  UNL     1      27.860 -11.755  30.705  1.00  0.00     0.210 HD
HETATM   11  C1  UNL     1      26.141 -13.971  32.058  1.00  0.00     0.707 A
ATOM     12  H2  UNL     1      27.410 -12.582  33.033  1.00  0.00     0.207 HD
HETATM   13  N9  UNL     1      25.833 -14.176  30.761  1.00  0.00    -0.111 N
ATOM     14  H9  UNL     1      25.202 -14.879  30.377  1.00  0.00     0.207 HD
BRANCH  11  15
HETATM   15  N1  UNL     1      25.672 -14.655  33.062  1.00  0.00    -0.232 N
ATOM     16  H12 UNL     1      24.691 -14.705  33.336  1.00  0.00     0.174 HD
ATOM     17  H11 UNL     1      26.240 -15.223  33.691  1.00  0.00     0.174 HD
ENDBRANCH  11  15
ENDBRANCH   4   7
BRANCH   5  18
HETATM   18  O7  UNL     1      24.246 -12.732  28.745  1.00  0.00    -0.391 OA
ATOM     19  H7  UNL     1      23.501 -12.634  28.163  1.00  0.00     0.210 HD
ENDBRANCH   5  18
ENDBRANCH   1   2
BRANCH   1  20
HETATM   20  O2  UNL     1      28.637 -11.471  26.888  1.00  0.00    -0.306 OA
BRANCH  20  21
HETATM   21  C5  UNL     1      29.447 -10.416  27.292  1.00  0.00     0.311 C
HETATM   22  O3  UNL     1      29.186  -9.916  28.417  1.00  0.00    -0.258 OA
BRANCH  21  23
HETATM   23  C6  UNL     1      30.533  -9.900  26.489  1.00  0.00     0.129 A
HETATM   24  C7  UNL     1      31.167 -10.670  25.538  1.00  0.00     0.111 A
HETATM   25  C8  UNL     1      32.206 -10.078  24.814  1.00  0.00     0.261 A
HETATM   26  O4  UNL     1      32.803 -10.757  23.938  1.00  0.00    -0.268 OA
HETATM   27  N5  UNL     1      32.587  -8.808  25.024  1.00  0.00    -0.156 N
HETATM   28  C9  UNL     1      31.947  -8.086  25.960  1.00  0.00     0.679 A
ATOM     29  H5  UNL     1      33.348  -8.398  24.483  1.00  0.00     0.187 HD
HETATM   30  N7  UNL     1      30.943  -8.637  26.669  1.00  0.00    -0.186 N
ATOM     31  H7  UNL     1      30.474  -8.068  27.374  1.00  0.00     0.184 HD
BRANCH  28  32
HETATM   32  N6  UNL     1      32.312  -6.856  26.169  1.00  0.00    -0.234 N
ATOM     33  H62 UNL     1      31.789  -6.081  25.762  1.00  0.00     0.174 HD
ATOM     34  H61 UNL     1      33.131  -6.672  26.749  1.00  0.00     0.174 HD
ENDBRANCH  28  32
ENDBRANCH  21  23
ENDBRANCH  20  21
ENDBRANCH   1  20
BRANCH   1  35
HETATM   35  C10 UNL     1      27.309 -12.098  24.966  1.00  0.00     0.245 C
BRANCH  35  36
HETATM   36  N8  UNL     1      26.964 -11.380  23.782  1.00  0.00    -0.070 N
ATOM     37  H83 UNL     1      26.694 -10.423  24.006  1.00  0.00     0.274 HD
ATOM     38  H82 UNL     1      27.794 -11.195  23.218  1.00  0.00     0.274 HD
ATOM     39  H81 UNL     1      26.244 -11.837  23.223  1.00  0.00     0.274 HD
ENDBRANCH  35  36
BRANCH  35  40
HETATM   40  C11 UNL     1      28.514 -12.968  24.701  1.00  0.00     0.174 C
BRANCH  40  41
HETATM   41  O5  UNL     1      29.266 -12.577  23.627  1.00  0.00    -0.391 OA
ATOM     42  H5  UNL     1      28.766 -12.418  22.836  1.00  0.00     0.210 HD
ENDBRANCH  40  41
BRANCH  40  43
HETATM   43  C12 UNL     1      28.125 -14.447  24.635  1.00  0.00     0.198 C
BRANCH  43  44
HETATM   44  O6  UNL     1      29.251 -15.178  25.028  1.00  0.00    -0.398 OA
ATOM     45  H6  UNL     1      29.888 -15.096  24.328  1.00  0.00     0.209 HD
ENDBRANCH  43  44
ENDBRANCH  40  43
ENDBRANCH  35  40
ENDBRANCH   1  35
TORSDOF 14
ENDMDL