MODEL 1
REMARK VINA RESULT: -8.778382709      0.000      0.000
REMARK  12 active torsions:
REMARK  status: ('A' for Active; 'I' for Inactive)
REMARK    1  A    between atoms: C2_6  and  C3_7
REMARK    2  A    between atoms: C3_7  and  O2_8
REMARK    3  A    between atoms: C3_7  and  N2_10
REMARK    4  A    between atoms: N2_10  and  C4_12
REMARK    5  A    between atoms: C4_12  and  C5_13
REMARK    6  A    between atoms: C4_12  and  C6_18
REMARK    7  A    between atoms: C5_13  and  O3_14
REMARK    8  A    between atoms: O3_14  and  N3_15
REMARK    9  A    between atoms: N5_26  and  N6_27
REMARK   10  A    between atoms: N6_27  and  C9_29
REMARK   11  A    between atoms: C11_33  and  N8_34
REMARK   12  A    between atoms: C12_38  and  O8_39
ROOT
HETATM    1  N1  UNL     1      27.387  -9.511  25.635  1.00  0.00    -0.380 N
ATOM      2  H11 UNL     1      26.831 -10.297  25.298  1.00  0.00     0.158 HD
ATOM      3  H12 UNL     1      26.865  -8.635  25.614  1.00  0.00     0.158 HD
HETATM    4  C1  UNL     1      28.565  -9.595  26.030  1.00  0.00     0.158 C
HETATM    5  O1  UNL     1      29.340  -8.501  26.499  1.00  0.00    -0.317 OA
HETATM    6  C2  UNL     1      30.748  -8.542  26.399  1.00  0.00     0.270 C
HETATM    7  C7  UNL     1      31.184  -9.498  25.379  1.00  0.00     0.264 C
HETATM    8  O6  UNL     1      32.312  -9.478  24.773  1.00  0.00    -0.270 OA
HETATM    9  N4  UNL     1      30.352 -10.574  24.987  1.00  0.00    -0.234 N
HETATM   10  C8  UNL     1      29.736 -11.628  24.287  1.00  0.00     0.351 C
HETATM   11  O7  UNL     1      29.869 -12.048  23.074  1.00  0.00    -0.245 OA
HETATM   12  N5  UNL     1      28.949 -12.024  25.389  1.00  0.00    -0.195 N
HETATM   13  C13 UNL     1      29.325 -10.869  26.060  1.00  0.00     0.300 C
ENDROOT
BRANCH  12  14
HETATM   14  N6  UNL     1      28.162 -13.158  25.645  1.00  0.00    -0.124 N
ATOM     15  H6  UNL     1      28.394 -14.064  25.238  1.00  0.00     0.206 HD
BRANCH  14  16
HETATM   16  C9  UNL     1      27.012 -12.997  26.504  1.00  0.00     0.691 C
HETATM   17  N7  UNL     1      27.155 -12.960  27.787  1.00  0.00    -0.223 N
HETATM   18  C10 UNL     1      25.975 -12.811  28.609  1.00  0.00     0.175 C
ATOM     19  H7  UNL     1      28.080 -13.035  28.212  1.00  0.00     0.177 HD
HETATM   20  C11 UNL     1      24.952 -11.882  28.051  1.00  0.00     0.250 C
HETATM   21  C12 UNL     1      24.706 -12.034  26.576  1.00  0.00     0.267 C
HETATM   22  N9  UNL     1      25.719 -12.892  25.958  1.00  0.00    -0.197 N
ATOM     23  H9  UNL     1      25.484 -13.422  25.118  1.00  0.00     0.180 HD
BRANCH  20  24
HETATM   24  N8  UNL     1      25.166 -10.498  28.438  1.00  0.00    -0.069 N
ATOM     25  H83 UNL     1      24.552 -10.238  29.211  1.00  0.00     0.275 HD
ATOM     26  H82 UNL     1      26.070 -10.385  28.897  1.00  0.00     0.275 HD
ATOM     27  H81 UNL     1      25.068  -9.844  27.661  1.00  0.00     0.275 HD
ENDBRANCH  20  24
BRANCH  21  28
HETATM   28  O8  UNL     1      24.887 -10.768  25.997  1.00  0.00    -0.374 OA
ATOM     29  H8  UNL     1      25.314 -10.904  25.159  1.00  0.00     0.212 HD
ENDBRANCH  21  28
ENDBRANCH  14  16
ENDBRANCH  12  14
BRANCH   6  30
HETATM   30  C3  UNL     1      31.313  -7.156  26.269  1.00  0.00     0.253 C
BRANCH  30  31
HETATM   31  O2  UNL     1      32.735  -7.340  26.401  1.00  0.00    -0.374 OA
ATOM     32  H2  UNL     1      33.110  -6.671  25.840  1.00  0.00     0.212 HD
ENDBRANCH  30  31
BRANCH  30  33
HETATM   33  N2  UNL     1      30.929  -6.311  27.274  1.00  0.00    -0.379 N
ATOM     34  H2  UNL     1      29.926  -6.373  27.447  1.00  0.00     0.156 HD
BRANCH  33  35
HETATM   35  C4  UNL     1      31.516  -5.415  28.103  1.00  0.00     0.207 C
BRANCH  35  36
HETATM   36  C5  UNL     1      31.749  -6.019  29.531  1.00  0.00     0.236 C
BRANCH  36  37
HETATM   37  O3  UNL     1      32.108  -7.288  29.395  1.00  0.00    -0.285 OA
BRANCH  37  38
HETATM   38  N3  UNL     1      33.248  -7.777  29.166  1.00  0.00    -0.311 N
ATOM     39  H32 UNL     1      33.474  -7.863  28.175  1.00  0.00     0.184 HD
ATOM     40  H31 UNL     1      33.962  -8.090  29.824  1.00  0.00     0.184 HD
ENDBRANCH  37  38
ENDBRANCH  36  37
ENDBRANCH  35  36
BRANCH  35  41
HETATM   41  C6  UNL     1      30.736  -4.185  28.284  1.00  0.00     0.198 C
HETATM   42  O4  UNL     1      29.910  -3.991  29.171  1.00  0.00    -0.646 OA
HETATM   43  O5  UNL     1      30.967  -3.124  27.356  1.00  0.00    -0.646 OA
ENDBRANCH  35  41
ENDBRANCH  33  35
ENDBRANCH  30  33
ENDBRANCH   6  30
TORSDOF 12
ENDMDL