MODEL 5
REMARK VINA RESULT: -8.326368509      1.608      2.350
REMARK  13 active torsions:
REMARK  status: ('A' for Active; 'I' for Inactive)
REMARK    1  A    between atoms: O1_2  and  C2_3
REMARK    2  A    between atoms: C2_3  and  C3_5
REMARK    3  A    between atoms: C5_8  and  O4_9
REMARK    4  A    between atoms: N1_12  and  N2_13
REMARK    5  A    between atoms: N2_13  and  C7_15
REMARK    6  A    between atoms: C7_15  and  O5_16
REMARK       I    between atoms: N4_21  and  C9_22
REMARK    7  A    between atoms: N5_25  and  N6_26
REMARK    8  A    between atoms: N6_26  and  N7_27
REMARK    9  A    between atoms: C11_30  and  C12_31
REMARK   10  A    between atoms: C12_31  and  O7_32
REMARK   11  A    between atoms: C12_31  and  O8_34
REMARK   12  A    between atoms: C13_36  and  C14_37
REMARK   13  A    between atoms: C14_37  and  O9_38
ROOT
HETATM    1  C3  UNL     1      27.363 -12.250  24.830  1.00  0.00     0.124 C
HETATM    2  C4  UNL     1      26.248 -11.730  23.964  1.00  0.00     0.198 C
HETATM    3  O3  UNL     1      26.048 -10.453  24.428  1.00  0.00    -0.358 OA
HETATM    4  C5  UNL     1      27.288  -9.926  24.763  1.00  0.00     0.283 C
HETATM    5  C6  UNL     1      28.286 -11.055  24.802  1.00  0.00     0.188 C
HETATM    6  N1  UNL     1      28.922 -11.206  26.085  1.00  0.00    -0.278 N
HETATM    7  C11 UNL     1      27.922 -11.731  26.973  1.00  0.00     0.089 C
HETATM    8  C13 UNL     1      27.001 -12.343  26.275  1.00  0.00    -0.005 C
ENDROOT
BRANCH   6   9
HETATM    9  N2  UNL     1      30.237 -10.899  26.378  1.00  0.00    -0.274 N
ATOM     10  H2  UNL     1      30.809 -11.592  26.861  1.00  0.00     0.189 HD
BRANCH   9  11
HETATM   11  C7  UNL     1      30.823  -9.645  26.029  1.00  0.00     0.205 C
HETATM   12  C8  UNL     1      30.978  -8.692  26.952  1.00  0.00     0.214 A
HETATM   13  N3  UNL     1      30.716  -8.513  28.325  1.00  0.00    -0.254 N
HETATM   14  N5  UNL     1      31.507  -7.377  26.939  1.00  0.00    -0.134 N
HETATM   15  N4  UNL     1      31.237  -7.227  28.294  1.00  0.00    -0.138 N
ATOM     16  H3  UNL     1      30.305  -9.098  29.053  1.00  0.00     0.191 HD
HETATM   17  C9  UNL     1      31.416  -6.186  29.263  1.00  0.00     0.255 C
HETATM   18  C10 UNL     1      32.027  -4.898  28.870  1.00  0.00     0.121 C
HETATM   19  O6  UNL     1      31.064  -6.344  30.452  1.00  0.00    -0.270 OA
BRANCH  11  20
HETATM   20  O5  UNL     1      31.223  -9.425  24.743  1.00  0.00    -0.342 OA
ATOM     21  H5  UNL     1      30.636  -9.637  24.027  1.00  0.00     0.219 HD
ENDBRANCH  11  20
BRANCH  14  22
HETATM   22  N6  UNL     1      32.070  -6.556  25.967  1.00  0.00    -0.003 NA
BRANCH  22  23
HETATM   23  N7  UNL     1      33.296  -7.113  25.582  1.00  0.00    -0.327 N
ATOM     24  H72 UNL     1      34.205  -6.853  25.965  1.00  0.00     0.174 HD
ATOM     25  H71 UNL     1      33.115  -7.812  24.862  1.00  0.00     0.174 HD
ENDBRANCH  22  23
ENDBRANCH  14  22
ENDBRANCH   9  11
ENDBRANCH   6   9
BRANCH   7  26
HETATM   26  C12 UNL     1      28.041 -11.538  28.457  1.00  0.00     0.307 C
BRANCH  26  27
HETATM   27  O7  UNL     1      29.013 -12.259  29.074  1.00  0.00    -0.366 OA
ATOM     28  H7  UNL     1      29.449 -12.912  28.539  1.00  0.00     0.213 HD
ENDBRANCH  26  27
BRANCH  26  29
HETATM   29  O8  UNL     1      28.352 -10.177  28.726  1.00  0.00    -0.366 OA
ATOM     30  H8  UNL     1      27.545  -9.681  28.796  1.00  0.00     0.213 HD
ENDBRANCH  26  29
ENDBRANCH   7  26
BRANCH   1  31
HETATM   31  C2  UNL     1      27.993 -13.462  24.331  1.00  0.00     0.276 C
HETATM   32  O2  UNL     1      28.979 -13.390  23.572  1.00  0.00    -0.264 OA
BRANCH  31  33
HETATM   33  O1  UNL     1      27.506 -14.698  24.690  1.00  0.00    -0.326 OA
HETATM   34  C1  UNL     1      27.281 -15.726  23.753  1.00  0.00     0.213 C
ENDBRANCH  31  33
ENDBRANCH   1  31
BRANCH   4  35
HETATM   35  O4  UNL     1      27.142  -9.304  26.011  1.00  0.00    -0.369 OA
ATOM     36  H4  UNL     1      26.240  -9.012  26.070  1.00  0.00     0.212 HD
ENDBRANCH   4  35
BRANCH   8  37
HETATM   37  C14 UNL     1      25.771 -13.053  26.734  1.00  0.00     0.202 C
BRANCH  37  38
HETATM   38  O9  UNL     1      26.065 -14.353  27.209  1.00  0.00    -0.397 OA
ATOM     39  H9  UNL     1      25.482 -14.608  27.914  1.00  0.00     0.209 HD
ENDBRANCH  37  38
ENDBRANCH   8  37
TORSDOF 13
ENDMDL