MODEL 3
REMARK VINA RESULT: -5.457739514      5.920      7.985
REMARK  4 active torsions:
REMARK  status: ('A' for Active; 'I' for Inactive)
REMARK    1  A    between atoms: N1_7  and  C6_8
REMARK    2  A    between atoms: C6_8  and  N2_10
REMARK    3  A    between atoms: N2_10  and  C7_12
REMARK    4  A    between atoms: C9_17  and  C10_18
ROOT
HETATM    1  C1  UNL     1      12.891  19.309 -25.894  1.00  0.00     0.052 C
HETATM    2  C2  UNL     1      12.431  20.714 -25.504  1.00  0.00     0.102 C
HETATM    3  F1  UNL     1      11.293  20.955 -26.275  1.00  0.00    -0.243 F
HETATM    4  C3  UNL     1      12.027  20.679 -24.074  1.00  0.00     0.045 C
HETATM    5  C4  UNL     1      10.899  21.690 -23.828  1.00  0.00     0.023 C
HETATM    6  C5  UNL     1      11.444  23.043 -24.230  1.00  0.00     0.127 C
HETATM    7  N1  UNL     1      12.849  23.053 -23.887  1.00  0.00    -0.341 N
HETATM    8  C11 UNL     1      13.930  22.559 -24.684  1.00  0.00     0.197 C
HETATM    9  C12 UNL     1      14.695  23.673 -25.298  1.00  0.00     0.085 C
HETATM   10  N4  UNL     1      15.298  24.549 -25.760  1.00  0.00    -0.195 NA
HETATM   11  C13 UNL     1      13.460  21.725 -25.857  1.00  0.00     0.083 C
ENDROOT
BRANCH   7  12
HETATM   12  C6  UNL     1      13.136  23.611 -22.642  1.00  0.00     0.177 C
HETATM   13  S1  UNL     1      12.262  24.852 -22.077  1.00  0.00    -0.041 SA
BRANCH  12  14
HETATM   14  N2  UNL     1      14.199  23.107 -21.841  1.00  0.00    -0.311 N
ATOM     15  H2  UNL     1      14.369  22.101 -21.809  1.00  0.00     0.170 HD
BRANCH  14  16
HETATM   16  C7  UNL     1      15.030  23.977 -21.084  1.00  0.00     0.185 A
HETATM   17  O1  UNL     1      15.154  25.282 -21.341  1.00  0.00    -0.286 OA
HETATM   18  C8  UNL     1      15.975  25.811 -20.489  1.00  0.00     0.236 A
HETATM   19  N3  UNL     1      16.406  24.854 -19.651  1.00  0.00    -0.338 N
HETATM   20  C9  UNL     1      15.811  23.672 -20.017  1.00  0.00     0.163 A
ATOM     21  H3  UNL     1      17.061  24.982 -18.879  1.00  0.00     0.167 HD
BRANCH  20  22
HETATM   22  C10 UNL     1      16.024  22.414 -19.357  1.00  0.00     0.231 C
HETATM   23  O2  UNL     1      15.023  21.695 -19.014  1.00  0.00    -0.643 OA
HETATM   24  O3  UNL     1      17.264  21.918 -19.063  1.00  0.00    -0.643 OA
ENDBRANCH  20  22
ENDBRANCH  14  16
ENDBRANCH  12  14
ENDBRANCH   7  12
TORSDOF 4
ENDMDL