MODEL 2
REMARK VINA RESULT: -7.171688429      1.224      2.119
REMARK  4 active torsions:
REMARK  status: ('A' for Active; 'I' for Inactive)
REMARK    1  A    between atoms: C2_2  and  O1_4
REMARK    2  A    between atoms: C2_2  and  C4_6
REMARK    3  A    between atoms: C7_9  and  N1_10
REMARK    4  A    between atoms: C8_11  and  O2_12
ROOT
HETATM    1  N1  UNL     1      18.159  26.379 -17.987  1.00  0.00    -0.273 N
HETATM    2  C8  UNL     1      17.899  27.069 -19.087  1.00  0.00     0.176 A
HETATM    3  C9  UNL     1      18.351  28.374 -18.922  1.00  0.00     0.112 A
HETATM    4  N2  UNL     1      18.889  28.466 -17.709  1.00  0.00    -0.290 N
HETATM    5  C10 UNL     1      18.766  27.226 -17.137  1.00  0.00     0.332 A
HETATM    6  O3  UNL     1      19.197  27.009 -15.962  1.00  0.00    -0.246 OA
HETATM    7  C11 UNL     1      19.369  29.808 -17.505  1.00  0.00     0.163 A
HETATM    8  C12 UNL     1      19.050  30.512 -18.754  1.00  0.00     0.020 A
HETATM    9  C13 UNL     1      18.457  29.669 -19.574  1.00  0.00     0.063 A
HETATM   10 CL1  UNL     1      17.886  30.039 -21.186  1.00  0.00    -0.082 Cl
ENDROOT
BRANCH   1  11
HETATM   11  C7  UNL     1      17.886  24.998 -17.676  1.00  0.00     0.097 C
HETATM   12  C6  UNL     1      16.763  24.442 -18.488  1.00  0.00     0.026 C
HETATM   13  C5  UNL     1      16.568  22.978 -18.289  1.00  0.00     0.009 C
HETATM   14  C4  UNL     1      17.733  22.329 -17.591  1.00  0.00     0.019 C
HETATM   15  C15 UNL     1      18.984  22.829 -18.282  1.00  0.00     0.009 C
HETATM   16  C14 UNL     1      19.183  24.246 -17.823  1.00  0.00     0.026 C
BRANCH  14  17
HETATM   17  C2  UNL     1      17.709  20.850 -17.592  1.00  0.00     0.054 C
HETATM   18  C1  UNL     1      18.472  20.368 -16.375  1.00  0.00     0.045 C
HETATM   19  C3  UNL     1      16.337  20.247 -17.530  1.00  0.00     0.045 C
BRANCH  17  20
HETATM   20  O1  UNL     1      18.410  20.361 -18.708  1.00  0.00    -0.390 OA
ATOM     21  H1  UNL     1      17.797  19.810 -19.180  1.00  0.00     0.210 HD
ENDBRANCH  17  20
ENDBRANCH  14  17
ENDBRANCH   1  11
BRANCH   2  22
HETATM   22  O2  UNL     1      17.288  26.622 -20.223  1.00  0.00    -0.344 OA
ATOM     23  H2  UNL     1      16.390  26.770 -20.493  1.00  0.00     0.219 HD
ENDBRANCH   2  22
TORSDOF 4
ENDMDL