MODEL 1
REMARK VINA RESULT: -6.023946391      0.000      0.000
REMARK  4 active torsions:
REMARK  status: ('A' for Active; 'I' for Inactive)
REMARK    1  A    between atoms: N2_7  and  N3_8
REMARK    2  A    between atoms: N3_8  and  C5_10
REMARK    3  A    between atoms: C5_10  and  N4_12
REMARK       I    between atoms: N4_12  and  C6_14
REMARK    4  A    between atoms: C6_14  and  C7_16
ROOT
HETATM    1  C5  UNL     1      18.422  26.244 -15.970  1.00  0.00     0.193 C
HETATM    2  S1  UNL     1      18.445  26.041 -14.327  1.00  0.00    -0.039 SA
ENDROOT
BRANCH   1   3
HETATM    3  N3  UNL     1      19.467  27.032 -16.541  1.00  0.00    -0.272 N
ATOM      4  H3  UNL     1      20.389  26.616 -16.671  1.00  0.00     0.189 HD
BRANCH   3   5
HETATM    5  N2  UNL     1      19.258  28.349 -16.923  1.00  0.00    -0.277 N
HETATM    6  C2  UNL     1      20.139  29.451 -16.888  1.00  0.00     0.090 C
HETATM    7  C1  UNL     1      21.624  29.315 -16.720  1.00  0.00     0.090 C
HETATM    8  N1  UNL     1      19.556  30.560 -17.013  1.00  0.00    -0.377 N
HETATM    9  C3  UNL     1      18.152  30.373 -17.154  1.00  0.00     0.143 C
ATOM     10  H1  UNL     1      20.025  31.466 -17.012  1.00  0.00     0.160 HD
HETATM   11  C4  UNL     1      18.004  28.889 -17.472  1.00  0.00     0.170 C
ENDBRANCH   3   5
ENDBRANCH   1   3
BRANCH   1  12
HETATM   12  N4  UNL     1      17.419  25.669 -16.789  1.00  0.00    -0.298 N
HETATM   13  C6  UNL     1      17.730  24.871 -17.894  1.00  0.00     0.266 C
HETATM   14  O1  UNL     1      18.989  24.700 -18.109  1.00  0.00    -0.267 OA
ATOM     15  H4  UNL     1      16.438  25.842 -16.565  1.00  0.00     0.171 HD
BRANCH  13  16
HETATM   16  C7  UNL     1      16.788  24.235 -18.795  1.00  0.00     0.095 A
HETATM   17  S2  UNL     1      16.325  22.573 -18.615  1.00  0.00    -0.094 SA
HETATM   18  C8  UNL     1      15.243  22.438 -19.924  1.00  0.00     0.059 A
HETATM   19  C9  UNL     1      15.276  23.696 -20.463  1.00  0.00    -0.032 A
HETATM   20  C10 UNL     1      14.411  23.965 -21.678  1.00  0.00     0.050 C
HETATM   21  C11 UNL     1      16.067  24.606 -19.879  1.00  0.00     0.063 A
HETATM   22 CL1  UNL     1      16.188  26.279 -20.496  1.00  0.00    -0.082 Cl
ENDBRANCH  13  16
ENDBRANCH   1  12
TORSDOF 4
ENDMDL