MODEL 1
REMARK VINA RESULT: -6.076865458      0.000      0.000
REMARK  6 active torsions:
REMARK  status: ('A' for Active; 'I' for Inactive)
REMARK    1  A    between atoms: C2_2  and  C3_3
REMARK    2  A    between atoms: C4_6  and  N2_7
REMARK    3  A    between atoms: N2_7  and  N3_9
REMARK    4  A    between atoms: C5_11  and  O1_12
REMARK    5  A    between atoms: C5_11  and  N4_17
REMARK    6  A    between atoms: O1_12  and  C6_13
ROOT
HETATM    1  N3  UNL     1      16.751  25.546 -18.736  1.00  0.00    -0.251 N
ATOM      2  H3  UNL     1      16.300  26.374 -18.349  1.00  0.00     0.191 HD
HETATM    3  C5  UNL     1      17.161  24.682 -17.897  1.00  0.00     0.240 C
ENDROOT
BRANCH   1   4
HETATM    4  N2  UNL     1      16.849  25.487 -20.121  1.00  0.00    -0.128 N
ATOM      5  H2  UNL     1      17.742  25.475 -20.614  1.00  0.00     0.205 HD
BRANCH   4   6
HETATM    6  C4  UNL     1      15.686  25.449 -20.744  1.00  0.00     0.712 A
HETATM    7  N1  UNL     1      14.866  24.428 -20.961  1.00  0.00    -0.177 N
HETATM    8  C3  UNL     1      13.785  24.827 -21.636  1.00  0.00     0.112 A
ATOM      9  H1  UNL     1      15.038  23.470 -20.656  1.00  0.00     0.185 HD
HETATM   10  N6  UNL     1      13.962  26.164 -21.836  1.00  0.00    -0.274 N
HETATM   11  N5  UNL     1      15.098  26.523 -21.300  1.00  0.00    -0.129 N
ATOM     12  H6  UNL     1      13.314  26.783 -22.324  1.00  0.00     0.189 HD
ATOM     13  H5  UNL     1      15.479  27.470 -21.302  1.00  0.00     0.205 HD
BRANCH   8  14
HETATM   14  C2  UNL     1      12.621  23.997 -22.085  1.00  0.00     0.074 C
HETATM   15  C1  UNL     1      13.129  23.071 -23.195  1.00  0.00     0.013 C
ENDBRANCH   8  14
ENDBRANCH   4   6
ENDBRANCH   1   4
BRANCH   3  16
HETATM   16  O1  UNL     1      16.942  24.980 -16.542  1.00  0.00    -0.311 OA
BRANCH  16  17
HETATM   17  C6  UNL     1      17.797  25.793 -15.789  1.00  0.00     0.060 C
HETATM   18  C7  UNL     1      18.614  24.919 -14.850  1.00  0.00     0.046 C
HETATM   19  C8  UNL     1      16.965  26.706 -14.888  1.00  0.00     0.046 C
HETATM   20  C9  UNL     1      18.746  26.602 -16.616  1.00  0.00     0.046 C
ENDBRANCH  16  17
ENDBRANCH   3  16
BRANCH   3  21
HETATM   21  N4  UNL     1      17.804  23.477 -18.231  1.00  0.00    -0.310 N
HETATM   22  C10 UNL     1      19.250  23.459 -18.299  1.00  0.00     0.130 C
HETATM   23  C11 UNL     1      19.792  22.148 -17.825  1.00  0.00     0.020 C
HETATM   24  C12 UNL     1      18.788  21.480 -16.951  1.00  0.00     0.007 C
HETATM   25  C13 UNL     1      17.520  21.119 -17.689  1.00  0.00     0.066 C
HETATM   26  C14 UNL     1      16.999  22.301 -18.482  1.00  0.00     0.177 C
HETATM   27  C15 UNL     1      15.572  22.607 -18.117  1.00  0.00     0.077 C
HETATM   28  F1  UNL     1      17.041  21.932 -19.811  1.00  0.00    -0.219 F
ENDBRANCH   3  21
TORSDOF 6
ENDMDL