MODEL 5
REMARK VINA RESULT: -4.868245074      2.837      3.775
REMARK  3 active torsions:
REMARK  status: ('A' for Active; 'I' for Inactive)
REMARK    1  A    between atoms: C1_2  and  C2_4
REMARK    2  A    between atoms: C3_5  and  C4_6
REMARK    3  A    between atoms: C13_20  and  O2_21
ROOT
HETATM    1  C4  UNL     1      16.176  24.531 -19.554  1.00  0.00    -0.009 C
HETATM    2  C5  UNL     1      16.184  23.549 -20.439  1.00  0.00    -0.014 C
HETATM    3  C6  UNL     1      15.924  22.227 -19.796  1.00  0.00     0.040 C
HETATM    4  C7  UNL     1      16.535  22.473 -18.426  1.00  0.00     0.001 C
HETATM    5  C8  UNL     1      15.850  21.613 -17.428  1.00  0.00     0.032 C
HETATM    6  C9  UNL     1      16.511  20.252 -17.443  1.00  0.00     0.114 C
HETATM    7  N2  UNL     1      17.915  20.355 -17.169  1.00  0.00    -0.421 N
ATOM      8  H2  UNL     1      18.351  19.862 -16.389  1.00  0.00     0.153 HD
HETATM    9  C10 UNL     1      18.654  21.179 -18.044  1.00  0.00     0.114 C
HETATM   10  C11 UNL     1      18.010  22.488 -18.398  1.00  0.00     0.032 C
HETATM   11  C12 UNL     1      15.999  23.923 -18.228  1.00  0.00     0.213 C
HETATM   12  F1  UNL     1      16.845  24.492 -17.272  1.00  0.00    -0.243 F
ENDROOT
BRANCH   1  13
HETATM   13  C3  UNL     1      16.415  25.974 -19.922  1.00  0.00     0.039 A
HETATM   14  C2  UNL     1      17.439  26.770 -19.547  1.00  0.00     0.088 A
HETATM   15  C13 UNL     1      17.568  28.006 -20.138  1.00  0.00     0.130 A
HETATM   16  S2  UNL     1      16.416  28.438 -21.296  1.00  0.00    -0.026 SA
HETATM   17  S1  UNL     1      15.377  26.679 -21.138  1.00  0.00    -0.049 SA
BRANCH  14  18
HETATM   18  C1  UNL     1      18.377  26.498 -18.397  1.00  0.00     0.269 C
HETATM   19  N1  UNL     1      18.357  27.364 -17.295  1.00  0.00    -0.057 NA
HETATM   20  O1  UNL     1      19.171  25.546 -18.370  1.00  0.00    -0.271 OA
ENDBRANCH  14  18
BRANCH  15  21
HETATM   21  O2  UNL     1      18.510  28.862 -19.869  1.00  0.00    -0.353 OA
ATOM     22  H2  UNL     1      19.433  28.728 -20.053  1.00  0.00     0.218 HD
ENDBRANCH  15  21
ENDBRANCH   1  13
TORSDOF 3
ENDMDL