MODEL 1
REMARK VINA RESULT: -6.994703339      0.000      0.000
REMARK  4 active torsions:
REMARK  status: ('A' for Active; 'I' for Inactive)
REMARK    1  A    between atoms: C7_9  and  C8_10
REMARK    2  A    between atoms: C9_11  and  O2_12
REMARK    3  A    between atoms: C11_15  and  O3_16
REMARK    4  A    between atoms: C14_21  and  C15_22
ROOT
HETATM    1  C1  UNL     1      19.207  30.639 -16.979  1.00  0.00     0.309 C
HETATM    2  N1  UNL     1      19.860  29.535 -17.639  1.00  0.00     0.084 N
HETATM    3  C2  UNL     1      20.598  28.661 -16.789  1.00  0.00     0.272 C
HETATM    4  C3  UNL     1      19.730  27.565 -16.144  1.00  0.00     0.036 C
HETATM    5  C4  UNL     1      19.096  26.840 -17.254  1.00  0.00     0.008 C
HETATM    6  C5  UNL     1      18.254  27.735 -18.088  1.00  0.00     0.043 C
HETATM    7  C6  UNL     1      17.799  26.927 -19.302  1.00  0.00     0.175 C
HETATM    8  O1  UNL     1      18.238  25.588 -19.137  1.00  0.00    -0.380 OA
HETATM    9  C7  UNL     1      17.603  25.076 -17.976  1.00  0.00     0.169 C
HETATM   10  C14 UNL     1      18.243  25.612 -16.768  1.00  0.00     0.085 C
HETATM   11  C16 UNL     1      19.049  28.888 -18.607  1.00  0.00     0.279 C
ENDROOT
BRANCH   9  12
HETATM   12  C8  UNL     1      17.346  23.667 -18.143  1.00  0.00     0.026 A
HETATM   13  C9  UNL     1      16.003  23.214 -18.307  1.00  0.00     0.078 A
HETATM   14  C10 UNL     1      15.657  21.900 -18.262  1.00  0.00     0.073 A
HETATM   15  C11 UNL     1      16.588  20.933 -18.060  1.00  0.00     0.070 A
HETATM   16  C12 UNL     1      17.895  21.298 -17.902  1.00  0.00     0.061 A
HETATM   17  C13 UNL     1      18.259  22.658 -17.946  1.00  0.00     0.048 A
HETATM   18 CL1  UNL     1      19.931  22.968 -17.692  1.00  0.00    -0.084 Cl
BRANCH  13  19
HETATM   19  O2  UNL     1      15.079  24.233 -18.533  1.00  0.00    -0.360 OA
ATOM     20  H2  UNL     1      14.789  24.303 -19.435  1.00  0.00     0.217 HD
ENDBRANCH  13  19
BRANCH  15  21
HETATM   21  O3  UNL     1      16.210  19.576 -18.024  1.00  0.00    -0.361 OA
ATOM     22  H3  UNL     1      15.725  19.231 -17.284  1.00  0.00     0.217 HD
ENDBRANCH  15  21
ENDBRANCH   9  12
BRANCH  10  23
HETATM   23  C15 UNL     1      17.503  26.040 -15.608  1.00  0.00     0.238 C
HETATM   24  O4  UNL     1      17.757  25.692 -14.446  1.00  0.00    -0.306 OA
ENDBRANCH  10  23
TORSDOF 4
ENDMDL