MODEL 3
REMARK VINA RESULT: -6.402458014      1.448      1.650
REMARK  4 active torsions:
REMARK  status: ('A' for Active; 'I' for Inactive)
REMARK    1  A    between atoms: C7_8  and  N1_9
REMARK       I    between atoms: N1_9  and  C8_11
REMARK    2  A    between atoms: C8_11  and  C9_13
REMARK    3  A    between atoms: C13_21  and  C14_22
REMARK    4  A    between atoms: C14_22  and  N3_23
ROOT
HETATM    1  C1  UNL     1      21.362  30.509 -18.057  1.00  0.00     0.046 C
HETATM    2  C2  UNL     1      19.911  30.867 -17.725  1.00  0.00     0.058 C
HETATM    3  C3  UNL     1      20.003  32.124 -16.846  1.00  0.00     0.046 C
HETATM    4  C4  UNL     1      19.337  29.819 -16.890  1.00  0.00     0.078 C
HETATM    5  C5  UNL     1      18.813  28.679 -17.789  1.00  0.00    -0.018 A
HETATM    6  C6  UNL     1      18.503  28.956 -19.090  1.00  0.00     0.016 A
HETATM    7  S1  UNL     1      17.839  27.508 -19.672  1.00  0.00    -0.073 SA
HETATM    8  C7  UNL     1      17.972  26.561 -18.256  1.00  0.00     0.097 A
HETATM    9  C13 UNL     1      18.544  27.432 -17.354  1.00  0.00     0.068 A
HETATM   10  C15 UNL     1      18.835  30.286 -19.731  1.00  0.00     0.215 C
HETATM   11  O2  UNL     1      19.166  31.228 -18.823  1.00  0.00    -0.376 OA
ENDROOT
BRANCH   8  12
HETATM   12  N1  UNL     1      17.506  25.239 -18.001  1.00  0.00    -0.318 N
HETATM   13  C8  UNL     1      18.359  24.128 -18.005  1.00  0.00     0.253 C
HETATM   14  O1  UNL     1      19.570  24.313 -18.315  1.00  0.00    -0.271 OA
ATOM     15  H1  UNL     1      16.515  25.095 -17.807  1.00  0.00     0.169 HD
BRANCH  13  16
HETATM   16  C9  UNL     1      17.848  22.831 -17.663  1.00  0.00     0.280 C
HETATM   17  C10 UNL     1      18.972  21.756 -17.494  1.00  0.00     0.081 C
HETATM   18  C11 UNL     1      18.205  20.468 -17.704  1.00  0.00     0.198 C
HETATM   19  F1  UNL     1      18.805  19.744 -18.731  1.00  0.00    -0.248 F
HETATM   20  C12 UNL     1      16.837  20.877 -18.273  1.00  0.00     0.270 C
HETATM   21  N2  UNL     1      17.238  22.181 -18.857  1.00  0.00    -0.060 N
ATOM     22  H22 UNL     1      16.495  22.708 -19.316  1.00  0.00     0.278 HD
ATOM     23  H21 UNL     1      17.830  22.132 -19.686  1.00  0.00     0.278 HD
ENDBRANCH  13  16
ENDBRANCH   8  12
BRANCH   9  24
HETATM   24  C14 UNL     1      18.823  26.936 -15.983  1.00  0.00    -0.034 C
BRANCH  24  25
HETATM   25  N3  UNL     1      19.041  26.518 -14.878  1.00  0.00    -0.365 N
ATOM     26  H32 UNL     1      19.456  26.601 -15.807  1.00  0.00     0.165 HD
ATOM     27  H31 UNL     1      19.214  26.168 -13.936  1.00  0.00     0.165 HD
ENDBRANCH  24  25
ENDBRANCH   9  24
TORSDOF 4
ENDMDL