MODEL 3
REMARK VINA RESULT: -5.683760387      1.333      1.424
REMARK  5 active torsions:
REMARK  status: ('A' for Active; 'I' for Inactive)
REMARK    1  A    between atoms: C2_2  and  O1_3
REMARK    2  A    between atoms: O1_3  and  C3_4
REMARK       I    between atoms: C3_4  and  N1_6
REMARK    3  A    between atoms: N1_6  and  C4_7
REMARK    4  A    between atoms: C10_18  and  C12_20
REMARK    5  A    between atoms: C12_20  and  O3_21
ROOT
HETATM    1  C4  UNL     1      15.624  24.736 -20.424  1.00  0.00     0.185 C
HETATM    2  N2  UNL     1      16.119  25.982 -20.580  1.00  0.00    -0.339 N
ATOM      3  H2  UNL     1      16.943  26.208 -20.022  1.00  0.00     0.168 HD
HETATM    4  C5  UNL     1      15.641  27.001 -21.410  1.00  0.00     0.120 C
HETATM    5  C6  UNL     1      14.838  26.455 -22.544  1.00  0.00     0.051 C
HETATM    6  N3  UNL     1      14.743  27.116 -23.652  1.00  0.00    -0.386 N
ATOM      7  H3  UNL     1      15.218  28.015 -23.735  1.00  0.00     0.159 HD
HETATM    8  C7  UNL     1      13.996  26.623 -24.755  1.00  0.00     0.146 C
HETATM    9  C8  UNL     1      13.511  25.201 -24.657  1.00  0.00     0.063 C
HETATM   10  C9  UNL     1      14.661  24.314 -25.124  1.00  0.00     0.035 C
HETATM   11 CL1  UNL     1      12.141  24.916 -25.752  1.00  0.00    -0.117 Cl
HETATM   12  C10 UNL     1      13.118  24.813 -23.280  1.00  0.00     0.029 C
HETATM   13  C11 UNL     1      11.981  25.790 -22.891  1.00  0.00     0.025 C
HETATM   14  C13 UNL     1      14.231  25.156 -22.355  1.00  0.00    -0.013 C
HETATM   15  C14 UNL     1      14.612  24.353 -21.378  1.00  0.00     0.074 C
ENDROOT
BRANCH   1  16
HETATM   16  N1  UNL     1      16.328  23.968 -19.503  1.00  0.00    -0.327 NA
HETATM   17  C3  UNL     1      16.992  23.245 -18.635  1.00  0.00     0.441 C
HETATM   18  O2  UNL     1      16.635  22.138 -18.065  1.00  0.00    -0.221 OA
BRANCH  17  19
HETATM   19  O1  UNL     1      18.292  23.692 -18.234  1.00  0.00    -0.293 OA
BRANCH  19  20
HETATM   20  C2  UNL     1      18.485  25.060 -17.993  1.00  0.00     0.177 C
HETATM   21  C1  UNL     1      17.878  25.361 -16.636  1.00  0.00     0.034 C
ENDBRANCH  19  20
ENDBRANCH  17  19
ENDBRANCH   1  16
BRANCH  12  22
HETATM   22  C12 UNL     1      12.546  23.452 -23.110  1.00  0.00     0.180 C
BRANCH  22  23
HETATM   23  O3  UNL     1      11.250  23.542 -22.539  1.00  0.00    -0.400 OA
ATOM     24  H3  UNL     1      10.909  24.423 -22.652  1.00  0.00     0.209 HD
ENDBRANCH  22  23
ENDBRANCH  12  22
TORSDOF 5
ENDMDL