MODEL 2
REMARK VINA RESULT: -5.739364448      1.924      3.453
REMARK  4 active torsions:
REMARK  status: ('A' for Active; 'I' for Inactive)
REMARK    1  A    between atoms: C2_2  and  C3_4
REMARK    2  A    between atoms: C4_5  and  N1_6
REMARK    3  A    between atoms: C13_16  and  O2_17
REMARK    4  A    between atoms: C15_21  and  O3_22
ROOT
HETATM    1  C3  UNL     1      18.019  28.342 -18.955  1.00  0.00    -0.003 C
HETATM    2  C4  UNL     1      18.675  29.058 -18.094  1.00  0.00     0.016 C
HETATM    3  C9  UNL     1      18.918  28.418 -16.727  1.00  0.00     0.062 C
HETATM    4  C10 UNL     1      19.399  27.035 -16.858  1.00  0.00     0.050 C
HETATM    5  C11 UNL     1      18.499  26.259 -17.737  1.00  0.00     0.008 A
HETATM    6  C12 UNL     1      17.883  26.846 -18.807  1.00  0.00     0.035 A
HETATM    7  C13 UNL     1      17.176  25.882 -19.497  1.00  0.00     0.155 A
HETATM    8  N2  UNL     1      17.370  24.717 -18.829  1.00  0.00    -0.312 N
HETATM    9  C14 UNL     1      16.808  23.451 -19.208  1.00  0.00     0.160 C
HETATM   10  C15 UNL     1      18.156  24.908 -17.770  1.00  0.00     0.151 A
ENDROOT
BRANCH   2  11
HETATM   11  N1  UNL     1      19.080  30.399 -18.189  1.00  0.00    -0.380 N
HETATM   12  C5  UNL     1      20.449  30.725 -18.495  1.00  0.00     0.149 C
HETATM   13  C6  UNL     1      20.916  31.525 -17.252  1.00  0.00     0.187 C
HETATM   14  O1  UNL     1      20.249  32.730 -17.266  1.00  0.00    -0.388 OA
HETATM   15  C7  UNL     1      19.123  32.759 -18.053  1.00  0.00     0.187 C
HETATM   16  C8  UNL     1      18.231  31.519 -17.882  1.00  0.00     0.149 C
ENDBRANCH   2  11
BRANCH   1  17
HETATM   17  C2  UNL     1      17.517  28.798 -20.261  1.00  0.00     0.114 C
HETATM   18  C1  UNL     1      18.619  29.400 -21.138  1.00  0.00     0.032 C
HETATM   19 CL1  UNL     1      16.240  29.977 -20.178  1.00  0.00    -0.120 Cl
ENDBRANCH   1  17
BRANCH   7  20
HETATM   20  O2  UNL     1      16.425  26.075 -20.638  1.00  0.00    -0.345 OA
ATOM     21  H2  UNL     1      16.285  25.445 -21.335  1.00  0.00     0.219 HD
ENDBRANCH   7  20
BRANCH  10  22
HETATM   22  O3  UNL     1      18.615  24.015 -16.813  1.00  0.00    -0.345 OA
ATOM     23  H3  UNL     1      19.275  24.263 -16.175  1.00  0.00     0.219 HD
ENDBRANCH  10  22
TORSDOF 4
ENDMDL