MODEL 2
REMARK VINA RESULT: -5.145469350      1.763      2.368
REMARK  3 active torsions:
REMARK  status: ('A' for Active; 'I' for Inactive)
REMARK    1  A    between atoms: C3_3  and  N1_4
REMARK       I    between atoms: N1_4  and  C4_6
REMARK    2  A    between atoms: C4_6  and  C5_8
REMARK    3  A    between atoms: C5_8  and  O2_9
ROOT
HETATM    1  N1  UNL     1      13.404  23.366 -22.203  1.00  0.00    -0.321 N
ATOM      2  H1  UNL     1      12.594  23.049 -21.671  1.00  0.00     0.169 HD
HETATM    3  C4  UNL     1      13.599  22.893 -23.514  1.00  0.00     0.267 C
HETATM    4  O1  UNL     1      14.601  23.290 -24.162  1.00  0.00    -0.269 OA
ENDROOT
BRANCH   3   5
HETATM    5  C5  UNL     1      12.686  21.943 -24.191  1.00  0.00     0.188 C
HETATM    6  C6  UNL     1      11.227  22.306 -23.945  1.00  0.00     0.070 C
HETATM    7  C7  UNL     1      10.374  21.090 -23.805  1.00  0.00     0.078 C
HETATM    8  S1  UNL     1       9.523  20.634 -25.326  1.00  0.00    -0.168 SA
HETATM    9  C8  UNL     1      10.473  21.023 -26.802  1.00  0.00     0.084 C
HETATM   10  C9  UNL     1      11.923  20.645 -26.693  1.00  0.00     0.087 C
HETATM   11  S2  UNL     1      12.931  21.980 -25.989  1.00  0.00    -0.121 SA
BRANCH   5  12
HETATM   12  O2  UNL     1      12.893  20.642 -23.767  1.00  0.00    -0.371 OA
ATOM     13  H2  UNL     1      12.743  20.015 -24.465  1.00  0.00     0.212 HD
ENDBRANCH   5  12
ENDBRANCH   3   5
BRANCH   1  14
HETATM   14  C3  UNL     1      14.315  24.279 -21.607  1.00  0.00     0.080 A
HETATM   15  C2  UNL     1      15.213  23.974 -20.589  1.00  0.00     0.035 A
HETATM   16  C1  UNL     1      15.350  22.624 -19.966  1.00  0.00     0.071 C
HETATM   17  N2  UNL     1      15.928  25.054 -20.252  1.00  0.00    -0.361 N
HETATM   18  C11 UNL     1      15.505  26.057 -21.041  1.00  0.00     0.116 A
HETATM   19  C12 UNL     1      16.969  25.109 -19.219  1.00  0.00     0.155 C
HETATM   20  C10 UNL     1      14.513  25.615 -21.886  1.00  0.00     0.078 A
HETATM   21 CL1  UNL     1      13.629  26.520 -23.106  1.00  0.00    -0.080 Cl
ENDBRANCH   1  14
TORSDOF 3
ENDMDL