MODEL 5
REMARK VINA RESULT: -6.399083533      2.551      4.345
REMARK  1 active torsions:
REMARK  status: ('A' for Active; 'I' for Inactive)
REMARK    1  A    between atoms: C4_5  and  C5_6
ROOT
HETATM    1  C1  UNL     1      -7.469  14.067  -6.093  1.00  0.00     0.035 C
HETATM    2  C2  UNL     1      -6.446  14.251  -4.981  1.00  0.00     0.090 C
HETATM    3  C3  UNL     1      -5.222  14.666  -5.825  1.00  0.00     0.072 C
HETATM    4  N1  UNL     1      -4.292  14.989  -6.430  1.00  0.00    -0.196 NA
HETATM    5  C4  UNL     1      -6.777  15.467  -4.230  1.00  0.00     0.070 C
HETATM    6  C11 UNL     1      -6.854  15.239  -2.729  1.00  0.00     0.149 C
HETATM    7  C12 UNL     1      -5.654  15.801  -2.064  1.00  0.00     0.070 C
HETATM    8  N2  UNL     1      -4.703  16.216  -1.569  1.00  0.00    -0.197 NA
HETATM    9  C13 UNL     1      -7.009  13.882  -2.266  1.00  0.00     0.019 C
HETATM   10  N3  UNL     1      -7.661  13.595  -1.219  1.00  0.00    -0.403 N
ATOM     11  H31 UNL     1      -7.771  12.636  -0.891  1.00  0.00     0.155 HD
ATOM     12  H32 UNL     1      -8.075  14.391  -0.733  1.00  0.00     0.155 HD
HETATM   13  C14 UNL     1      -6.406  12.723  -2.975  1.00  0.00     0.177 C
HETATM   14  C15 UNL     1      -7.358  11.610  -2.851  1.00  0.00     0.072 C
HETATM   15  N4  UNL     1      -8.104  10.724  -2.784  1.00  0.00    -0.196 NA
HETATM   16  C16 UNL     1      -6.037  12.994  -4.376  1.00  0.00     0.179 C
HETATM   17  C17 UNL     1      -4.564  12.782  -4.456  1.00  0.00     0.088 C
HETATM   18  N5  UNL     1      -3.398  12.633  -4.543  1.00  0.00    -0.195 NA
HETATM   19  C18 UNL     1      -6.568  11.872  -5.197  1.00  0.00     0.088 C
HETATM   20  N6  UNL     1      -6.994  11.019  -5.855  1.00  0.00    -0.195 NA
ENDROOT
BRANCH   5  21
HETATM   21  C5  UNL     1      -8.123  16.029  -4.595  1.00  0.00    -0.012 A
HETATM   22  C6  UNL     1      -9.287  15.835  -3.877  1.00  0.00     0.011 A
HETATM   23  C7  UNL     1     -10.462  16.481  -4.171  1.00  0.00     0.001 A
HETATM   24  C8  UNL     1     -10.518  17.370  -5.234  1.00  0.00     0.003 A
HETATM   25  C9  UNL     1      -9.383  17.578  -5.963  1.00  0.00     0.043 A
HETATM   26  C10 UNL     1      -8.224  16.942  -5.661  1.00  0.00     0.123 A
HETATM   27  F1  UNL     1      -7.120  17.152  -6.454  1.00  0.00    -0.206 F
ENDBRANCH   5  21
TORSDOF 1
ENDMDL