MODEL 5
REMARK VINA RESULT: -7.075348752      1.296      1.478
REMARK  4 active torsions:
REMARK  status: ('A' for Active; 'I' for Inactive)
REMARK    1  A    between atoms: O1_2  and  C2_3
REMARK    2  A    between atoms: C7_9  and  O3_10
REMARK    3  A    between atoms: C9_14  and  C10_15
REMARK    4  A    between atoms: C17_22  and  O4_23
ROOT
HETATM    1  C2  UNL     1      -7.281  13.873  -4.008  1.00  0.00     0.225 C
HETATM    2  C3  UNL     1      -8.552  12.970  -4.037  1.00  0.00     0.081 C
HETATM    3  C4  UNL     1      -9.191  14.229  -3.472  1.00  0.00     0.115 C
HETATM    4  C5  UNL     1     -10.247  14.028  -2.456  1.00  0.00     0.201 C
HETATM    5  O2  UNL     1      -9.801  14.053  -1.113  1.00  0.00    -0.344 OA
HETATM    6  C6  UNL     1      -8.786  14.904  -0.698  1.00  0.00     0.134 A
HETATM    7  C7  UNL     1      -8.755  15.494   0.538  1.00  0.00     0.141 A
HETATM    8  C8  UNL     1      -7.683  16.332   0.848  1.00  0.00     0.165 A
HETATM    9  F1  UNL     1      -7.705  16.886   2.045  1.00  0.00    -0.202 F
HETATM   10  C9  UNL     1      -6.650  16.605  -0.005  1.00  0.00     0.043 A
HETATM   11  C17 UNL     1      -6.718  15.985  -1.253  1.00  0.00     0.108 A
HETATM   12  C18 UNL     1      -7.777  15.138  -1.605  1.00  0.00     0.104 A
HETATM   13  N1  UNL     1      -7.874  14.492  -2.866  1.00  0.00    -0.343 N
ENDROOT
BRANCH  10  14
HETATM   14  C10 UNL     1      -5.572  17.491   0.308  1.00  0.00    -0.064 C
HETATM   15  C11 UNL     1      -4.462  16.897   1.188  1.00  0.00     0.036 C
HETATM   16  C12 UNL     1      -3.633  18.010   1.861  1.00  0.00     0.008 C
HETATM   17  C13 UNL     1      -4.430  18.795   2.842  1.00  0.00    -0.018 C
HETATM   18  C14 UNL     1      -3.817  20.194   2.921  1.00  0.00     0.010 C
HETATM   19  C15 UNL     1      -5.845  18.870   2.288  1.00  0.00     0.008 C
HETATM   20  C16 UNL     1      -5.744  18.859   0.772  1.00  0.00     0.036 C
ENDBRANCH  10  14
BRANCH  11  21
HETATM   21  O4  UNL     1      -5.765  16.159  -2.212  1.00  0.00    -0.357 OA
ATOM     22  H4  UNL     1      -5.853  16.795  -2.911  1.00  0.00     0.217 HD
ENDBRANCH  11  21
BRANCH   7  23
HETATM   23  O3  UNL     1      -9.772  15.257   1.453  1.00  0.00    -0.355 OA
ATOM     24  H3  UNL     1      -9.829  14.421   1.900  1.00  0.00     0.218 HD
ENDBRANCH   7  23
BRANCH   1  25
HETATM   25  O1  UNL     1      -7.275  14.724  -5.114  1.00  0.00    -0.371 OA
HETATM   26  C1  UNL     1      -6.016  15.090  -5.541  1.00  0.00     0.204 C
ENDBRANCH   1  25
TORSDOF 4
ENDMDL