MODEL 5
REMARK VINA RESULT: -6.419815860      0.655      1.155
REMARK  4 active torsions:
REMARK  status: ('A' for Active; 'I' for Inactive)
REMARK    1  A    between atoms: C2_2  and  C4_5
REMARK    2  A    between atoms: C5_6  and  O1_7
REMARK    3  A    between atoms: C6_9  and  O2_10
REMARK    4  A    between atoms: C10_16  and  N2_17
ROOT
HETATM    1  C4  UNL     1      -9.520  14.532  -1.010  1.00  0.00     0.048 A
HETATM    2  C5  UNL     1     -10.346  14.803   0.129  1.00  0.00     0.129 A
HETATM    3  C6  UNL     1      -9.637  15.467   1.065  1.00  0.00     0.181 A
HETATM    4  N1  UNL     1      -8.401  15.631   0.584  1.00  0.00    -0.297 N
HETATM    5  C7  UNL     1      -7.395  16.242   1.212  1.00  0.00     0.107 A
HETATM    6  C8  UNL     1      -6.178  16.329   0.597  1.00  0.00    -0.034 A
HETATM    7  C9  UNL     1      -6.047  15.779  -0.645  1.00  0.00    -0.022 A
HETATM    8  C10 UNL     1      -7.109  15.126  -1.322  1.00  0.00     0.065 A
HETATM    9  C15 UNL     1      -8.308  15.066  -0.676  1.00  0.00     0.080 A
HETATM   10  C16 UNL     1      -4.674  16.031  -1.078  1.00  0.00     0.042 C
HETATM   11  C17 UNL     1      -3.918  16.041   0.262  1.00  0.00     0.009 C
HETATM   12  C18 UNL     1      -4.879  16.947   1.043  1.00  0.00     0.041 C
ENDROOT
BRANCH   8  13
HETATM   13  N2  UNL     1      -6.801  14.536  -2.544  1.00  0.00    -0.374 N
HETATM   14  C11 UNL     1      -6.792  15.166  -3.852  1.00  0.00     0.149 C
HETATM   15  C12 UNL     1      -7.638  14.432  -4.851  1.00  0.00     0.187 C
HETATM   16  O3  UNL     1      -7.332  13.097  -4.858  1.00  0.00    -0.388 OA
HETATM   17  C13 UNL     1      -6.328  12.689  -4.026  1.00  0.00     0.187 C
HETATM   18  C14 UNL     1      -6.604  13.095  -2.592  1.00  0.00     0.149 C
ENDBRANCH   8  13
BRANCH   1  19
HETATM   19  C2  UNL     1     -10.088  13.856  -2.144  1.00  0.00     0.128 C
HETATM   20  C1  UNL     1     -10.400  15.034  -3.178  1.00  0.00     0.057 C
HETATM   21  C3  UNL     1     -11.520  13.376  -1.866  1.00  0.00     0.057 C
HETATM   22  F1  UNL     1      -9.461  13.090  -3.010  1.00  0.00    -0.238 F
ENDBRANCH   1  19
BRANCH   2  23
HETATM   23  O1  UNL     1     -11.681  14.454   0.293  1.00  0.00    -0.356 OA
ATOM     24  H1  UNL     1     -12.177  14.462   1.103  1.00  0.00     0.218 HD
ENDBRANCH   2  23
BRANCH   3  25
HETATM   25  O2  UNL     1     -10.153  15.882   2.295  1.00  0.00    -0.344 OA
ATOM     26  H2  UNL     1      -9.628  16.033   3.072  1.00  0.00     0.219 HD
ENDBRANCH   3  25
TORSDOF 4
ENDMDL