MODEL 5
REMARK VINA RESULT: -5.460919119      3.361      5.617
REMARK  1 active torsions:
REMARK  status: ('A' for Active; 'I' for Inactive)
REMARK    1  A    between atoms: C5_6  and  C6_7
ROOT
HETATM    1  C6  UNL     1      -8.034  15.530  -3.290  1.00  0.00     0.080 C
HETATM    2  C7  UNL     1      -8.745  15.681  -4.600  1.00  0.00     0.054 C
HETATM    3  C8  UNL     1      -8.369  17.025  -5.214  1.00  0.00     0.240 C
HETATM    4  N1  UNL     1      -9.467  17.618  -5.922  1.00  0.00    -0.073 N
ATOM      5  H11 UNL     1      -9.153  18.429  -6.455  1.00  0.00     0.277 HD
ATOM      6  H12 UNL     1     -10.107  18.076  -5.272  1.00  0.00     0.277 HD
HETATM    7  C9  UNL     1     -10.178  16.705  -6.767  1.00  0.00     0.255 C
HETATM    8  C10 UNL     1     -10.678  15.490  -6.047  1.00  0.00     0.138 C
HETATM    9 CL1  UNL     1     -12.420  15.264  -6.161  1.00  0.00    -0.121 Cl
HETATM   10  C11 UNL     1     -10.223  15.601  -4.584  1.00  0.00     0.156 C
HETATM   11  O1  UNL     1     -10.673  14.458  -3.861  1.00  0.00    -0.330 OA
HETATM   12  C12 UNL     1     -10.122  14.292  -2.624  1.00  0.00     0.150 C
HETATM   13  N2  UNL     1     -10.817  13.821  -1.613  1.00  0.00    -0.381 N
ATOM     14  H21 UNL     1     -10.405  13.697  -0.688  1.00  0.00     0.158 HD
ATOM     15  H22 UNL     1     -11.788  13.590  -1.821  1.00  0.00     0.158 HD
HETATM   16  C13 UNL     1      -8.707  14.628  -2.321  1.00  0.00     0.209 C
HETATM   17  C14 UNL     1      -8.750  15.277  -0.999  1.00  0.00     0.094 C
HETATM   18  N3  UNL     1      -8.807  15.797   0.057  1.00  0.00    -0.195 NA
HETATM   19  C15 UNL     1      -8.024  13.329  -2.198  1.00  0.00     0.094 C
HETATM   20  N4  UNL     1      -7.486  12.299  -2.082  1.00  0.00    -0.195 NA
ENDROOT
BRANCH   1  21
HETATM   21  C5  UNL     1      -6.698  14.916  -3.645  1.00  0.00    -0.004 A
HETATM   22  C2  UNL     1      -5.479  14.994  -3.045  1.00  0.00    -0.048 A
HETATM   23  C1  UNL     1      -5.286  15.881  -1.822  1.00  0.00     0.049 C
HETATM   24  C3  UNL     1      -4.469  14.296  -3.588  1.00  0.00     0.015 A
HETATM   25  C4  UNL     1      -4.728  13.558  -4.703  1.00  0.00     0.051 A
HETATM   26  S1  UNL     1      -6.382  13.851  -4.974  1.00  0.00    -0.105 SA
ENDBRANCH   1  21
TORSDOF 1
ENDMDL