MODEL 3
REMARK VINA RESULT: -5.761516972      1.296      1.409
REMARK  3 active torsions:
REMARK  status: ('A' for Active; 'I' for Inactive)
REMARK    1  A    between atoms: C2_2  and  N1_4
REMARK    2  A    between atoms: C10_12  and  N2_13
REMARK    3  A    between atoms: N3_21  and  O1_23
ROOT
HETATM    1  N1  UNL     1      -6.571  14.353  -0.985  1.00  0.00     0.093 N
HETATM    2  C4  UNL     1      -5.631  14.506  -2.028  1.00  0.00     0.276 C
HETATM    3  C5  UNL     1      -6.031  15.311  -3.204  1.00  0.00     0.076 C
HETATM    4  C6  UNL     1      -7.495  15.303  -3.579  1.00  0.00     0.137 C
HETATM    5  F1  UNL     1      -8.093  16.519  -3.349  1.00  0.00    -0.240 F
HETATM    6  C7  UNL     1      -7.522  15.030  -5.097  1.00  0.00     0.051 C
HETATM    7  C8  UNL     1      -6.433  15.861  -5.687  1.00  0.00     0.026 C
HETATM    8  C9  UNL     1      -6.760  16.666  -6.897  1.00  0.00     0.034 C
HETATM    9  C10 UNL     1      -7.686  15.947  -7.831  1.00  0.00     0.183 C
HETATM   10  C11 UNL     1      -8.962  15.797  -7.074  1.00  0.00     0.034 C
HETATM   11  C12 UNL     1      -8.852  15.184  -5.720  1.00  0.00     0.026 C
HETATM   12  S1  UNL     1      -7.054  13.267  -4.973  1.00  0.00    -0.100 SA
HETATM   13  C13 UNL     1      -7.680  12.910  -3.339  1.00  0.00     0.082 C
HETATM   14  N3  UNL     1      -7.708  11.889  -2.662  1.00  0.00    -0.266 N
ATOM     15  H3  UNL     1      -8.158  12.066  -1.763  1.00  0.00     0.194 HD
HETATM   16  C14 UNL     1      -8.197  14.240  -2.875  1.00  0.00     0.071 C
HETATM   17  C15 UNL     1      -9.697  14.222  -2.895  1.00  0.00     0.028 C
HETATM   18  C16 UNL     1      -7.914  14.428  -1.378  1.00  0.00     0.292 C
ENDROOT
BRANCH   9  19
HETATM   19  N2  UNL     1      -7.151  14.763  -8.405  1.00  0.00    -0.075 N
ATOM     20  H23 UNL     1      -6.131  14.802  -8.411  1.00  0.00     0.274 HD
ATOM     21  H22 UNL     1      -7.294  13.971  -7.779  1.00  0.00     0.274 HD
ATOM     22  H21 UNL     1      -7.502  14.544  -9.338  1.00  0.00     0.274 HD
ENDBRANCH   9  19
BRANCH  14  23
HETATM   23  O1  UNL     1      -7.331  10.632  -2.748  1.00  0.00    -0.289 OA
ATOM     24  H1  UNL     1      -6.818  10.004  -2.254  1.00  0.00     0.244 HD
ENDBRANCH  14  23
BRANCH   1  25
HETATM   25  C2  UNL     1      -6.238  15.214   0.140  1.00  0.00     0.215 C
HETATM   26  C1  UNL     1      -4.874  15.804   0.073  1.00  0.00     0.042 C
HETATM   27  C3  UNL     1      -7.245  16.342   0.141  1.00  0.00     0.042 C
ENDBRANCH   1  25
TORSDOF 3
ENDMDL