MODEL 2
REMARK VINA RESULT: -7.761583155      1.868      2.921
REMARK  4 active torsions:
REMARK  status: ('A' for Active; 'I' for Inactive)
REMARK    1  A    between atoms: C14_15  and  O1_16
REMARK    2  A    between atoms: C14_15  and  C15_18
REMARK    3  A    between atoms: N1_19  and  O2_21
REMARK    4  A    between atoms: O2_21  and  O3_22
ROOT
HETATM    1  C1  UNL     1      -8.434  14.979  -2.714  1.00  0.00     0.015 C
HETATM    2  C2  UNL     1      -7.928  14.402  -1.411  1.00  0.00     0.017 C
HETATM    3  C3  UNL     1      -6.954  13.284  -1.594  1.00  0.00     0.009 C
HETATM    4  C4  UNL     1      -6.077  13.618  -2.774  1.00  0.00     0.001 C
HETATM    5  C5  UNL     1      -4.861  14.351  -2.354  1.00  0.00     0.005 C
HETATM    6  C6  UNL     1      -5.052  15.756  -1.925  1.00  0.00     0.042 C
HETATM    7  C7  UNL     1      -6.046  16.028  -0.913  1.00  0.00    -0.016 A
HETATM    8  C8  UNL     1      -5.623  17.045  -0.069  1.00  0.00     0.082 A
HETATM    9  C9  UNL     1      -6.430  17.478   0.988  1.00  0.00    -0.019 A
HETATM   10  C10 UNL     1      -7.653  16.902   1.204  1.00  0.00     0.034 A
HETATM   11  C11 UNL     1      -8.091  15.893   0.380  1.00  0.00     0.042 A
HETATM   12 CL1  UNL     1      -9.643  15.118   0.606  1.00  0.00    -0.084 Cl
HETATM   13  C12 UNL     1      -7.283  15.479  -0.654  1.00  0.00    -0.024 A
HETATM   14  C13 UNL     1      -5.904  18.573   1.842  1.00  0.00     0.087 C
HETATM   15  C14 UNL     1      -4.429  18.421   2.134  1.00  0.00     0.117 C
HETATM   16  C16 UNL     1      -3.633  18.051   0.929  1.00  0.00     0.219 C
HETATM   17  O4  UNL     1      -4.409  17.696  -0.196  1.00  0.00    -0.347 OA
ENDROOT
BRANCH  15  18
HETATM   18  O1  UNL     1      -4.310  17.455   3.140  1.00  0.00    -0.382 OA
ATOM     19  H1  UNL     1      -4.104  17.917   3.945  1.00  0.00     0.211 HD
ENDBRANCH  15  18
BRANCH  15  20
HETATM   20  C15 UNL     1      -3.967  19.729   2.689  1.00  0.00     0.130 C
HETATM   21  N1  UNL     1      -3.834  19.879   3.949  1.00  0.00    -0.247 N
ATOM     22  H1  UNL     1      -4.050  19.089   4.556  1.00  0.00     0.196 HD
BRANCH  21  23
HETATM   23  O2  UNL     1      -3.420  21.035   4.519  1.00  0.00    -0.116 OA
BRANCH  23  24
HETATM   24  O3  UNL     1      -2.756  21.115   5.684  1.00  0.00    -0.227 OA
ATOM     25  H3  UNL     1      -1.832  20.920   5.792  1.00  0.00     0.256 HD
ENDBRANCH  23  24
ENDBRANCH  21  23
ENDBRANCH  15  20
TORSDOF 4
ENDMDL