MODEL 4
REMARK VINA RESULT: -6.429309092      0.874      1.178
REMARK  4 active torsions:
REMARK  status: ('A' for Active; 'I' for Inactive)
REMARK    1  A    between atoms: O1_2  and  C2_3
REMARK    2  A    between atoms: C2_3  and  C3_5
REMARK    3  A    between atoms: C4_6  and  N1_7
REMARK    4  A    between atoms: N1_7  and  C5_9
ROOT
HETATM    1  C3  UNL     1      -6.779  14.944  -2.978  1.00  0.00     0.163 C
HETATM    2  C4  UNL     1      -6.905  14.224  -1.703  1.00  0.00     0.097 C
HETATM    3  N2  UNL     1      -7.712  13.222  -1.628  1.00  0.00    -0.334 N
ATOM      4  H2  UNL     1      -7.829  12.695  -0.762  1.00  0.00     0.168 HD
HETATM    5  C9  UNL     1      -8.427  12.889  -2.803  1.00  0.00     0.095 C
HETATM    6  N3  UNL     1      -8.674  11.639  -3.051  1.00  0.00    -0.388 N
ATOM      7  H31 UNL     1      -9.189  11.399  -3.898  1.00  0.00     0.157 HD
ATOM      8  H32 UNL     1      -8.341  10.935  -2.392  1.00  0.00     0.157 HD
HETATM    9  C10 UNL     1      -8.917  13.922  -3.770  1.00  0.00     0.169 C
HETATM   10  C11 UNL     1      -8.937  13.302  -5.069  1.00  0.00     0.072 C
HETATM   11  N4  UNL     1      -8.974  12.797  -6.109  1.00  0.00    -0.196 NA
HETATM   12  C12 UNL     1      -8.110  15.198  -3.680  1.00  0.00     0.002 C
HETATM   13  C13 UNL     1      -8.862  16.107  -2.722  1.00  0.00     0.012 C
HETATM   14  C14 UNL     1      -9.956  16.898  -3.301  1.00  0.00     0.001 C
HETATM   15  C15 UNL     1     -10.096  16.866  -4.781  1.00  0.00     0.000 C
HETATM   16  C16 UNL     1      -8.730  16.947  -5.394  1.00  0.00     0.001 C
HETATM   17  C17 UNL     1      -7.812  15.837  -4.991  1.00  0.00     0.012 C
ENDROOT
BRANCH   1  18
HETATM   18  C2  UNL     1      -5.726  14.429  -3.850  1.00  0.00     0.270 C
HETATM   19  O2  UNL     1      -5.480  13.258  -4.167  1.00  0.00    -0.264 OA
BRANCH  18  20
HETATM   20  O1  UNL     1      -4.868  15.402  -4.407  1.00  0.00    -0.326 OA
HETATM   21  C1  UNL     1      -4.260  15.254  -5.645  1.00  0.00     0.213 C
ENDBRANCH  18  20
ENDBRANCH   1  18
BRANCH   2  22
HETATM   22  N1  UNL     1      -6.169  14.588  -0.537  1.00  0.00    -0.345 N
ATOM     23  H1  UNL     1      -5.470  13.959  -0.142  1.00  0.00     0.167 HD
BRANCH  22  24
HETATM   24  C5  UNL     1      -6.432  15.846   0.060  1.00  0.00     0.039 A
HETATM   25  C6  UNL     1      -7.440  16.460   0.643  1.00  0.00     0.072 A
HETATM   26  C7  UNL     1      -6.640  17.639   0.854  1.00  0.00     0.120 A
HETATM   27  F1  UNL     1      -6.894  18.855   1.430  1.00  0.00    -0.206 F
HETATM   28  C8  UNL     1      -5.614  17.040   0.271  1.00  0.00     0.072 A
ENDBRANCH  22  24
ENDBRANCH   2  22
TORSDOF 4
ENDMDL