MODEL 4
REMARK VINA RESULT: -6.332012389      2.026      2.790
REMARK  4 active torsions:
REMARK  status: ('A' for Active; 'I' for Inactive)
REMARK    1  A    between atoms: O1_2  and  C2_3
REMARK    2  A    between atoms: C2_3  and  C3_5
REMARK    3  A    between atoms: C4_6  and  O3_7
REMARK    4  A    between atoms: C5_9  and  O4_10
ROOT
HETATM    1  C3  UNL     1      -9.852  15.266  -0.024  1.00  0.00     0.083 A
HETATM    2  C4  UNL     1      -8.849  15.745   0.836  1.00  0.00     0.115 A
HETATM    3  C5  UNL     1      -7.593  16.045   0.341  1.00  0.00     0.100 A
HETATM    4  C6  UNL     1      -7.313  15.878  -0.998  1.00  0.00     0.047 A
HETATM    5  C7  UNL     1      -8.292  15.404  -1.872  1.00  0.00    -0.041 A
HETATM    6  C8  UNL     1      -9.560  15.106  -1.353  1.00  0.00    -0.013 A
HETATM    7  C9  UNL     1     -10.432  14.636  -2.483  1.00  0.00     0.133 C
HETATM    8 CL1  UNL     1     -10.130  12.922  -2.735  1.00  0.00    -0.119 Cl
HETATM    9  C10 UNL     1      -9.790  15.438  -3.613  1.00  0.00     0.045 C
HETATM   10  C11 UNL     1     -10.046  16.904  -3.435  1.00  0.00     0.026 C
HETATM   11  C12 UNL     1     -10.070  14.936  -4.951  1.00  0.00     0.137 C
HETATM   12  O5  UNL     1     -11.009  14.199  -5.186  1.00  0.00    -0.297 OA
HETATM   13  C13 UNL     1      -9.126  15.379  -6.044  1.00  0.00     0.079 C
HETATM   14  C14 UNL     1      -7.699  15.336  -5.597  1.00  0.00     0.008 C
HETATM   15  C15 UNL     1      -7.497  15.932  -4.195  1.00  0.00     0.011 C
HETATM   16  C16 UNL     1      -8.349  15.101  -3.294  1.00  0.00     0.036 C
ENDROOT
BRANCH   1  17
HETATM   17  C2  UNL     1     -11.151  14.956   0.546  1.00  0.00     0.296 C
HETATM   18  O2  UNL     1     -11.642  13.779   0.416  1.00  0.00    -0.259 OA
BRANCH  17  19
HETATM   19  O1  UNL     1     -11.924  15.848   1.235  1.00  0.00    -0.322 OA
HETATM   20  C1  UNL     1     -12.697  15.533   2.372  1.00  0.00     0.213 C
ENDBRANCH  17  19
ENDBRANCH   1  17
BRANCH   2  21
HETATM   21  O3  UNL     1      -9.175  15.896   2.173  1.00  0.00    -0.357 OA
ATOM     22  H3  UNL     1      -8.549  16.347   2.727  1.00  0.00     0.217 HD
ENDBRANCH   2  21
BRANCH   3  23
HETATM   23  O4  UNL     1      -6.605  16.520   1.212  1.00  0.00    -0.358 OA
ATOM     24  H4  UNL     1      -6.552  17.450   1.396  1.00  0.00     0.217 HD
ENDBRANCH   3  23
TORSDOF 4
ENDMDL