MODEL 3
REMARK VINA RESULT: -5.509041683      5.096      7.163
REMARK  2 active torsions:
REMARK  status: ('A' for Active; 'I' for Inactive)
REMARK    1  A    between atoms: C2_2  and  N1_5
REMARK    2  A    between atoms: N2_7  and  C5_9
ROOT
HETATM    1  C5  UNL     1      -8.441  15.568  -4.118  1.00  0.00     0.130 A
HETATM    2  S1  UNL     1      -8.996  14.562  -5.375  1.00  0.00    -0.050 SA
HETATM    3  C6  UNL     1      -7.497  13.852  -5.840  1.00  0.00     0.090 A
HETATM    4  C7  UNL     1      -6.608  14.423  -4.999  1.00  0.00     0.045 A
HETATM    5  C8  UNL     1      -7.102  15.327  -4.090  1.00  0.00     0.162 A
HETATM    6  F1  UNL     1      -6.324  16.007  -3.152  1.00  0.00    -0.202 F
HETATM    7  C9  UNL     1      -5.244  13.855  -5.334  1.00  0.00     0.154 A
HETATM    8  C10 UNL     1      -4.672  13.091  -4.177  1.00  0.00     0.036 C
HETATM    9  C11 UNL     1      -3.249  13.387  -3.865  1.00  0.00     0.022 C
HETATM   10  C12 UNL     1      -2.395  13.665  -5.074  1.00  0.00     0.122 C
HETATM   11  N3  UNL     1      -2.979  14.691  -5.922  1.00  0.00    -0.360 N
ATOM     12  H3  UNL     1      -2.399  15.223  -6.570  1.00  0.00     0.162 HD
HETATM   13  C13 UNL     1      -4.355  14.932  -5.830  1.00  0.00     0.240 C
HETATM   14  O1  UNL     1      -4.785  16.076  -6.177  1.00  0.00    -0.272 OA
HETATM   15  C14 UNL     1      -5.498  12.930  -6.432  1.00  0.00     0.245 A
HETATM   16  O2  UNL     1      -4.615  12.210  -7.047  1.00  0.00    -0.271 OA
HETATM   17  N4  UNL     1      -6.866  12.933  -6.734  1.00  0.00    -0.319 N
ATOM     18  H4  UNL     1      -7.326  12.382  -7.458  1.00  0.00     0.169 HD
ENDROOT
BRANCH   1  19
HETATM   19  N2  UNL     1      -9.210  16.455  -3.299  1.00  0.00    -0.295 N
HETATM   20  N1  UNL     1      -9.768  16.158  -2.235  1.00  0.00    -0.327 N
ATOM     21  H1  UNL     1     -10.272  16.927  -1.794  1.00  0.00     0.181 HD
ATOM     22  H2  UNL     1      -9.306  17.418  -3.621  1.00  0.00     0.187 HD
BRANCH  20  23
HETATM   23  C2  UNL     1      -9.830  14.932  -1.521  1.00  0.00     0.035 C
HETATM   24  C1  UNL     1     -10.713  13.963  -2.310  1.00  0.00     0.039 C
HETATM   25  C3  UNL     1     -10.521  15.128  -0.165  1.00  0.00     0.039 C
HETATM   26  C4  UNL     1      -8.497  14.298  -1.226  1.00  0.00     0.039 C
ENDBRANCH  20  23
ENDBRANCH   1  19
TORSDOF 2
ENDMDL