MODEL 4
REMARK VINA RESULT: -5.825233812      4.255      6.827
REMARK  1 active torsions:
REMARK  status: ('A' for Active; 'I' for Inactive)
REMARK    1  A    between atoms: N1_6  and  C5_7
ROOT
HETATM    1  C1  UNL     1      -7.683  13.395  -1.663  1.00  0.00     0.023 C
HETATM    2  C2  UNL     1      -8.306  14.768  -1.797  1.00  0.00     0.018 C
HETATM    3  C3  UNL     1      -7.198  15.770  -1.806  1.00  0.00     0.023 C
HETATM    4  C4  UNL     1      -9.126  14.988  -0.581  1.00  0.00     0.096 C
HETATM    5  S1  UNL     1      -8.504  15.825   0.665  1.00  0.00    -0.064 SA
HETATM    6  N1  UNL     1     -10.447  14.485  -0.478  1.00  0.00    -0.273 N
HETATM    7  C8  UNL     1     -10.967  13.819  -1.618  1.00  0.00     0.103 C
HETATM    8  N3  UNL     1     -12.058  13.151  -1.490  1.00  0.00    -0.387 N
ATOM      9  H31 UNL     1     -12.433  12.673  -2.309  1.00  0.00     0.157 HD
ATOM     10  H32 UNL     1     -12.516  13.118  -0.579  1.00  0.00     0.157 HD
HETATM   11  C9  UNL     1     -10.312  13.867  -2.923  1.00  0.00     0.172 C
HETATM   12  C10 UNL     1      -9.909  12.540  -3.352  1.00  0.00     0.072 C
HETATM   13  N4  UNL     1      -9.604  11.482  -3.705  1.00  0.00    -0.196 NA
HETATM   14  C11 UNL     1      -9.200  14.881  -2.998  1.00  0.00     0.027 C
HETATM   15  C12 UNL     1      -9.807  16.251  -3.008  1.00  0.00     0.015 C
HETATM   16  C13 UNL     1      -9.210  17.018  -4.150  1.00  0.00     0.004 C
HETATM   17  C14 UNL     1      -8.168  16.130  -4.791  1.00  0.00     0.038 C
HETATM   18  C15 UNL     1      -8.496  14.735  -4.303  1.00  0.00     0.181 C
HETATM   19  F1  UNL     1      -9.383  14.200  -5.248  1.00  0.00    -0.249 F
ENDROOT
BRANCH   6  20
HETATM   20  C5  UNL     1     -11.228  14.638   0.730  1.00  0.00     0.157 A
HETATM   21  N2  UNL     1     -12.014  15.652   1.066  1.00  0.00    -0.346 N
HETATM   22  C6  UNL     1     -12.646  15.631   2.190  1.00  0.00     0.097 A
ATOM     23  H2  UNL     1     -12.118  16.446   0.436  1.00  0.00     0.167 HD
HETATM   24  C7  UNL     1     -12.474  14.543   3.006  1.00  0.00     0.070 A
HETATM   25  S2  UNL     1     -11.386  13.595   2.074  1.00  0.00    -0.064 SA
ENDBRANCH   6  20
TORSDOF 1
ENDMDL