MODEL 5
REMARK VINA RESULT: -3.689478535      1.008      1.062
REMARK  0 active torsions:
REMARK  status: ('A' for Active; 'I' for Inactive)
ROOT
HETATM    1  C1  UNL     1       2.577   0.462  16.823  1.00  0.00     0.046 C
HETATM    2  C2  UNL     1       3.332  -0.425  16.232  1.00  0.00     0.039 C
HETATM    3  C3  UNL     1       3.225  -1.552  15.273  1.00  0.00     0.090 C
HETATM    4  C4  UNL     1       4.425  -2.033  16.061  1.00  0.00     0.181 C
HETATM    5  O1  UNL     1       4.719  -0.670  16.298  1.00  0.00    -0.356 OA
ENDROOT
TORSDOF 0
ENDMDL