MODEL 2
REMARK VINA RESULT: -3.874992226      2.307      2.325
REMARK  0 active torsions:
REMARK  status: ('A' for Active; 'I' for Inactive)
ROOT
HETATM    1  O1  UNL     1       2.397   0.760  17.585  1.00  0.00    -0.258 OA
HETATM    2  S1  UNL     1       2.606  -0.096  16.409  1.00  0.00     0.016 S
HETATM    3  C1  UNL     1       3.729   0.199  15.350  1.00  0.00     0.121 A
HETATM    4  C2  UNL     1       4.251  -0.810  16.310  1.00  0.00     0.121 A
ENDROOT
TORSDOF 0
ENDMDL