MODEL 2
REMARK VINA RESULT: -4.331811260      1.218      1.731
REMARK  0 active torsions:
REMARK  status: ('A' for Active; 'I' for Inactive)
ROOT
HETATM    1  C1  UNL     1       3.443   0.063  15.444  1.00  0.00     0.017 C
HETATM    2  C2  UNL     1       2.897   0.470  16.570  1.00  0.00     0.159 C
HETATM    3  O1  UNL     1       2.988  -0.592  17.493  1.00  0.00    -0.257 OA
HETATM    4  N1  UNL     1       4.118  -1.326  17.110  1.00  0.00    -0.092 NA
HETATM    5  C3  UNL     1       3.899  -1.327  15.675  1.00  0.00     0.172 C
ENDROOT
TORSDOF 0
ENDMDL