MODEL 1
REMARK VINA RESULT: -4.905266975      0.000      0.000
REMARK  0 active torsions:
REMARK  status: ('A' for Active; 'I' for Inactive)
ROOT
HETATM    1  C1  UNL     1       2.809   0.373  16.527  1.00  0.00     0.085 A
HETATM    2  N1  UNL     1       2.726  -0.578  17.373  1.00  0.00    -0.316 N
ATOM      3  H1  UNL     1       2.016  -0.638  18.103  1.00  0.00     0.185 HD
HETATM    4  N2  UNL     1       3.742  -1.535  17.167  1.00  0.00    -0.316 N
ATOM      5  H2  UNL     1       3.861  -2.377  17.730  1.00  0.00     0.185 HD
HETATM    6  C2  UNL     1       4.497  -1.210  16.180  1.00  0.00     0.085 A
HETATM    7  C3  UNL     1       3.963   0.069  15.663  1.00  0.00     0.092 A
ENDROOT
TORSDOF 0
ENDMDL