MODEL 2
REMARK VINA RESULT: -4.330873527      1.676      2.360
REMARK  0 active torsions:
REMARK  status: ('A' for Active; 'I' for Inactive)
ROOT
HETATM    1  C1  UNL     1       2.399   0.414  17.269  1.00  0.00     0.019 C
HETATM    2  C2  UNL     1       3.186  -0.312  16.501  1.00  0.00    -0.042 C
HETATM    3  C3  UNL     1       4.321  -1.265  16.586  1.00  0.00     0.203 C
HETATM    4  O1  UNL     1       3.866  -1.841  15.397  1.00  0.00    -0.383 OA
HETATM    5  C4  UNL     1       3.366  -0.577  15.055  1.00  0.00     0.203 C
ENDROOT
TORSDOF 0
ENDMDL