MODEL 4
REMARK VINA RESULT: -3.623455595      1.476      1.653
REMARK  0 active torsions:
REMARK  status: ('A' for Active; 'I' for Inactive)
ROOT
HETATM    1  C1  UNL     1       2.392  -0.512  15.607  1.00  0.00     0.261 C
HETATM    2  C2  UNL     1       2.635   0.094  16.957  1.00  0.00     0.197 C
HETATM    3  O1  UNL     1       3.409  -0.816  17.653  1.00  0.00    -0.363 OA
HETATM    4  C3  UNL     1       4.259  -1.352  16.706  1.00  0.00     0.399 C
HETATM    5  N1  UNL     1       3.540  -1.387  15.447  1.00  0.00    -0.052 N
ATOM      6  H11 UNL     1       4.120  -1.150  14.643  1.00  0.00     0.279 HD
ATOM      7  H12 UNL     1       3.290  -2.330  15.149  1.00  0.00     0.279 HD
ENDROOT
TORSDOF 0
ENDMDL