MODEL 3
REMARK VINA RESULT: -5.211968190      0.787      2.836
REMARK  0 active torsions:
REMARK  status: ('A' for Active; 'I' for Inactive)
ROOT
HETATM    1  C1  UNL     1       3.649  -2.978  14.965  1.00  0.00     0.013 C
HETATM    2  C2  UNL     1       3.843  -1.946  15.560  1.00  0.00    -0.105 C
HETATM    3  C3  UNL     1       4.060  -0.679  16.296  1.00  0.00     0.109 A
HETATM    4  C4  UNL     1       2.940   0.168  16.570  1.00  0.00    -0.008 A
HETATM    5  C5  UNL     1       3.720   0.555  15.512  1.00  0.00    -0.008 A
ENDROOT
TORSDOF 0
ENDMDL