MODEL 3
REMARK VINA RESULT: -4.623294549      1.013      1.421
REMARK  0 active torsions:
REMARK  status: ('A' for Active; 'I' for Inactive)
ROOT
HETATM    1  C1  UNL     1       2.550  -0.069  16.646  1.00  0.00     0.068 C
HETATM    2  C2  UNL     1       3.559   0.480  15.709  1.00  0.00     0.275 C
HETATM    3  N1  UNL     1       4.454  -0.591  15.822  1.00  0.00     0.097 N
HETATM    4  C3  UNL     1       4.170  -1.918  16.171  1.00  0.00     0.308 A
HETATM    5  C4  UNL     1       3.719  -0.916  17.131  1.00  0.00     0.253 A
ENDROOT
TORSDOF 0
ENDMDL