MODEL 4
REMARK VINA RESULT: -4.662057746      1.237      2.334
REMARK  0 active torsions:
REMARK  status: ('A' for Active; 'I' for Inactive)
ROOT
HETATM    1  C1  UNL     1       3.279  -0.940  17.374  1.00  0.00    -0.003 C
HETATM    2  C2  UNL     1       2.760   0.148  16.818  1.00  0.00    -0.003 C
HETATM    3  C3  UNL     1       3.466   0.330  15.524  1.00  0.00     0.195 C
HETATM    4  O1  UNL     1       4.681  -0.269  15.754  1.00  0.00    -0.384 OA
HETATM    5  C4  UNL     1       4.327  -1.448  16.414  1.00  0.00     0.195 C
ENDROOT
TORSDOF 0
ENDMDL