MODEL 5
REMARK VINA RESULT: -2.268726431      1.133      2.582
REMARK  0 active torsions:
REMARK  status: ('A' for Active; 'I' for Inactive)
ROOT
HETATM    1  C1  UNL     1       4.085   1.367  15.076  1.00  0.00     0.014 C
HETATM    2  C2  UNL     1       3.713   0.293  15.491  1.00  0.00    -0.092 C
HETATM    3  C3  UNL     1       3.248  -1.012  15.976  1.00  0.00     0.164 A
HETATM    4  C4  UNL     1       4.334  -2.027  16.117  1.00  0.00     0.082 A
HETATM    5  C5  UNL     1       3.890  -1.895  17.531  1.00  0.00     0.059 A
HETATM    6  N1  UNL     1       2.968  -1.029  17.394  1.00  0.00    -0.387 N
ATOM      7  H1  UNL     1       2.314  -0.554  18.016  1.00  0.00     0.159 HD
ENDROOT
TORSDOF 0
ENDMDL