MODEL 2
REMARK VINA RESULT: -5.288393726      0.914      1.019
REMARK  2 active torsions:
REMARK  status: ('A' for Active; 'I' for Inactive)
REMARK    1  A    between atoms: N1_1  and  C1_4
REMARK    2  A    between atoms: N3_9  and  C4_11
ROOT
HETATM    1  C1  UNL     1       4.135  14.467  19.340  1.00  0.00     0.690 A
HETATM    2  N2  UNL     1       4.177  13.345  18.602  1.00  0.00    -0.197 N
ATOM      3  H2  UNL     1       3.753  13.336  17.674  1.00  0.00     0.183 HD
HETATM    4  C2  UNL     1       4.782  12.218  19.078  1.00  0.00     0.156 A
HETATM    5  C3  UNL     1       5.360  12.211  20.330  1.00  0.00     0.138 A
HETATM    6  N3  UNL     1       5.935  11.150  20.793  1.00  0.00    -0.325 N
ATOM      7  H3  UNL     1       6.350  11.194  21.724  1.00  0.00     0.169 HD
HETATM    8  N6  UNL     1       5.298  13.351  21.039  1.00  0.00    -0.270 N
ATOM      9  H6  UNL     1       5.717  13.380  21.968  1.00  0.00     0.189 HD
HETATM   10  N7  UNL     1       4.705  14.444  20.560  1.00  0.00    -0.131 N
ATOM     11  H7  UNL     1       4.681  15.286  21.135  1.00  0.00     0.205 HD
ENDROOT
BRANCH   6  12
HETATM   12  C4  UNL     1       6.020   9.938  20.082  1.00  0.00     0.122 A
HETATM   13  C5  UNL     1       7.015   9.595  19.192  1.00  0.00     0.068 A
HETATM   14  C6  UNL     1       6.694   8.337  18.744  1.00  0.00     0.111 A
HETATM   15  N4  UNL     1       5.554   7.955  19.346  1.00  0.00    -0.310 N
HETATM   16  N5  UNL     1       5.152   8.916  20.148  1.00  0.00    -0.286 N
ATOM     17  H4  UNL     1       5.078   7.064  19.205  1.00  0.00     0.186 HD
ATOM     18  H5  UNL     1       4.312   8.890  20.728  1.00  0.00     0.188 HD
ENDBRANCH   6  12
BRANCH   1  19
HETATM   19  N1  UNL     1       3.569  15.551  18.913  1.00  0.00    -0.233 N
ATOM     20  H12 UNL     1       3.997  16.082  18.155  1.00  0.00     0.174 HD
ATOM     21  H11 UNL     1       2.698  15.902  19.311  1.00  0.00     0.174 HD
ENDBRANCH   1  19
TORSDOF 2
ENDMDL