MODEL 4
REMARK VINA RESULT: -5.597868891      0.178      2.411
REMARK  3 active torsions:
REMARK  status: ('A' for Active; 'I' for Inactive)
REMARK    1  A    between atoms: S1_2  and  C2_4
REMARK    2  A    between atoms: C3_7  and  N2_8
REMARK    3  A    between atoms: C4_13  and  N4_14
ROOT
HETATM    1  C2  UNL     1       1.080  15.041  14.457  1.00  0.00     0.203 A
HETATM    2  N1  UNL     1       0.650  13.782  14.740  1.00  0.00    -0.167 N
ATOM      3  H1  UNL     1       0.659  13.082  13.998  1.00  0.00     0.186 HD
HETATM    4  C3  UNL     1       0.215  13.424  15.958  1.00  0.00     0.692 A
HETATM    5  N3  UNL     1       0.209  14.359  16.923  1.00  0.00    -0.023 N
ATOM      6  H3  UNL     1      -0.118  14.108  17.856  1.00  0.00     0.203 HD
HETATM    7  C4  UNL     1       0.626  15.624  16.690  1.00  0.00     0.692 A
HETATM    8  N5  UNL     1       1.049  15.920  15.454  1.00  0.00    -0.167 N
ATOM      9  H5  UNL     1       1.366  16.872  15.268  1.00  0.00     0.186 HD
ENDROOT
BRANCH   1  10
HETATM   10  S1  UNL     1       1.624  15.397  12.842  1.00  0.00     0.081 S
HETATM   11  C1  UNL     1       2.419  13.953  12.172  1.00  0.00     0.136 C
HETATM   12  O1  UNL     1       0.288  15.724  11.874  1.00  0.00    -0.250 OA
ENDBRANCH   1  10
BRANCH   4  13
HETATM   13  N2  UNL     1      -0.172  12.208  16.132  1.00  0.00    -0.234 N
ATOM     14  H22 UNL     1      -1.125  11.884  15.967  1.00  0.00     0.174 HD
ATOM     15  H21 UNL     1       0.514  11.525  16.454  1.00  0.00     0.174 HD
ENDBRANCH   4  13
BRANCH   7  16
HETATM   16  N4  UNL     1       0.592  16.465  17.665  1.00  0.00    -0.234 N
ATOM     17  H42 UNL     1      -0.143  17.160  17.798  1.00  0.00     0.174 HD
ATOM     18  H41 UNL     1       1.346  16.436  18.352  1.00  0.00     0.174 HD
ENDBRANCH   7  16
TORSDOF 3
ENDMDL