MODEL 4
REMARK VINA RESULT: -5.095047274      1.154      1.251
REMARK  4 active torsions:
REMARK  status: ('A' for Active; 'I' for Inactive)
REMARK    1  A    between atoms: N1_2  and  C2_4
REMARK    2  A    between atoms: C5_10  and  N4_11
REMARK    3  A    between atoms: N4_11  and  C6_13
REMARK    4  A    between atoms: C6_13  and  N5_15
ROOT
HETATM    1  C2  UNL     1       5.191   9.749  19.834  1.00  0.00     0.119 A
HETATM    2  C3  UNL     1       6.563   9.814  19.908  1.00  0.00     0.094 A
HETATM    3  C4  UNL     1       7.176  11.022  19.650  1.00  0.00     0.135 A
HETATM    4  N2  UNL     1       8.595  11.056  19.737  1.00  0.00    -0.082 NA
HETATM    5  N3  UNL     1       6.422  12.094  19.335  1.00  0.00    -0.179 N
ATOM      6  H3  UNL     1       6.886  12.982  19.147  1.00  0.00     0.185 HD
HETATM    7  C5  UNL     1       5.075  12.036  19.259  1.00  0.00     0.682 A
HETATM    8  N6  UNL     1       4.474  10.862  19.510  1.00  0.00    -0.177 N
ATOM      9  H6  UNL     1       3.456  10.802  19.457  1.00  0.00     0.185 HD
ENDROOT
BRANCH   7  10
HETATM   10  N4  UNL     1       4.431  13.086  18.956  1.00  0.00    -0.197 N
ATOM     11  H4  UNL     1       4.272  13.240  17.960  1.00  0.00     0.180 HD
BRANCH  10  12
HETATM   12  C6  UNL     1       3.903  14.069  19.824  1.00  0.00     0.293 C
HETATM   13  C7  UNL     1       3.696  15.353  19.033  1.00  0.00     0.063 C
BRANCH  12  14
HETATM   14  N5  UNL     1       4.674  14.370  20.977  1.00  0.00    -0.058 N
ATOM     15  H53 UNL     1       4.063  14.701  21.723  1.00  0.00     0.276 HD
ATOM     16  H52 UNL     1       5.023  13.506  21.393  1.00  0.00     0.276 HD
ATOM     17  H51 UNL     1       5.446  15.025  20.847  1.00  0.00     0.276 HD
ENDBRANCH  12  14
ENDBRANCH  10  12
ENDBRANCH   7  10
BRANCH   1  18
HETATM   18  N1  UNL     1       4.626   8.629  20.073  1.00  0.00    -0.380 N
HETATM   19  C1  UNL     1       3.245   8.413  19.653  1.00  0.00     0.147 C
ATOM     20  H1  UNL     1       5.138   7.888  20.554  1.00  0.00     0.160 HD
ENDBRANCH   1  18
TORSDOF 4
ENDMDL