MODEL 3
REMARK VINA RESULT: -5.226247716      6.730      7.776
REMARK  1 active torsions:
REMARK  status: ('A' for Active; 'I' for Inactive)
REMARK    1  A    between atoms: N1_2  and  C2_4
ROOT
HETATM    1  C2  UNL     1       5.196  12.298  19.538  1.00  0.00     0.147 A
HETATM    2  N2  UNL     1       4.381  12.351  18.474  1.00  0.00    -0.175 N
ATOM      3  H2  UNL     1       3.858  13.206  18.282  1.00  0.00     0.186 HD
HETATM    4  C3  UNL     1       4.240  11.273  17.642  1.00  0.00     0.679 A
HETATM    5  N3  UNL     1       3.443  11.374  16.632  1.00  0.00    -0.234 N
ATOM      6  H31 UNL     1       3.338  10.571  16.012  1.00  0.00     0.174 HD
ATOM      7  H32 UNL     1       2.926  12.234  16.449  1.00  0.00     0.174 HD
HETATM    8  N4  UNL     1       4.922  10.139  17.881  1.00  0.00    -0.174 N
ATOM      9  H4  UNL     1       4.805   9.346  17.251  1.00  0.00     0.186 HD
HETATM   10  C4  UNL     1       5.754  10.026  18.933  1.00  0.00     0.154 A
HETATM   11  C5  UNL     1       5.887  11.137  19.773  1.00  0.00     0.123 A
HETATM   12  N5  UNL     1       6.756  10.743  20.706  1.00  0.00    -0.346 N
ATOM     13  H5  UNL     1       7.069  11.331  21.479  1.00  0.00     0.167 HD
HETATM   14  C6  UNL     1       7.166   9.484  20.507  1.00  0.00     0.184 A
HETATM   15  N6  UNL     1       6.543   9.028  19.397  1.00  0.00    -0.331 N
HETATM   16  C7  UNL     1       6.662   7.719  18.777  1.00  0.00     0.158 C
ENDROOT
BRANCH   1  17
HETATM   17  N1  UNL     1       5.324  13.289  20.301  1.00  0.00    -0.378 N
HETATM   18  C1  UNL     1       4.422  14.381  20.467  1.00  0.00     0.147 C
ATOM     19  H1  UNL     1       6.173  13.314  20.867  1.00  0.00     0.160 HD
ENDBRANCH   1  17
TORSDOF 1
ENDMDL