MODEL 1
REMARK VINA RESULT: -5.640194193      0.000      0.000
REMARK  1 active torsions:
REMARK  status: ('A' for Active; 'I' for Inactive)
REMARK    1  A    between atoms: C3_7  and  N3_8
ROOT
HETATM    1  C1  UNL     1       1.908  15.298  12.041  1.00  0.00     0.147 C
HETATM    2  N1  UNL     1       1.333  14.355  12.873  1.00  0.00    -0.378 N
ATOM      3  H1  UNL     1       1.152  13.472  12.396  1.00  0.00     0.160 HD
HETATM    4  C2  UNL     1       0.985  14.329  14.068  1.00  0.00     0.147 A
HETATM    5  N2  UNL     1       0.427  13.203  14.609  1.00  0.00    -0.175 N
ATOM      6  H2  UNL     1       0.302  12.386  14.011  1.00  0.00     0.186 HD
HETATM    7  C3  UNL     1       0.038  13.127  15.883  1.00  0.00     0.679 A
HETATM    8  N4  UNL     1       0.186  14.179  16.697  1.00  0.00    -0.174 N
ATOM      9  H4  UNL     1      -0.114  14.109  17.669  1.00  0.00     0.186 HD
HETATM   10  C4  UNL     1       0.725  15.327  16.250  1.00  0.00     0.152 A
HETATM   11  N5  UNL     1       0.972  16.493  16.861  1.00  0.00    -0.336 N
ATOM     12  H5  UNL     1       0.771  16.703  17.839  1.00  0.00     0.168 HD
HETATM   13  C5  UNL     1       1.523  17.336  15.985  1.00  0.00     0.182 A
HETATM   14  N6  UNL     1       1.614  16.657  14.802  1.00  0.00    -0.346 N
ATOM     15  H6  UNL     1       1.997  17.045  13.940  1.00  0.00     0.167 HD
HETATM   16  C6  UNL     1       1.130  15.409  14.924  1.00  0.00     0.123 A
ENDROOT
BRANCH   7  17
HETATM   17  N3  UNL     1      -0.485  12.054  16.367  1.00  0.00    -0.234 N
ATOM     18  H32 UNL     1      -1.491  11.921  16.261  1.00  0.00     0.174 HD
ATOM     19  H31 UNL     1       0.080  11.352  16.845  1.00  0.00     0.174 HD
ENDBRANCH   7  17
TORSDOF 1
ENDMDL