MODEL 3
REMARK VINA RESULT: -5.164995165      7.277      7.470
REMARK  2 active torsions:
REMARK  status: ('A' for Active; 'I' for Inactive)
REMARK    1  A    between atoms: C3_7  and  N3_8
REMARK    2  A    between atoms: C4_13  and  O1_14
ROOT
HETATM    1  C1  UNL     1       5.180  13.451  20.392  1.00  0.00     0.147 C
HETATM    2  N1  UNL     1       4.319  12.335  20.388  1.00  0.00    -0.379 N
ATOM      3  H1  UNL     1       3.390  12.517  20.770  1.00  0.00     0.160 HD
HETATM    4  C2  UNL     1       4.498  11.138  19.989  1.00  0.00     0.145 A
HETATM    5  N2  UNL     1       3.467  10.244  20.108  1.00  0.00    -0.175 N
ATOM      6  H2  UNL     1       2.575  10.534  20.509  1.00  0.00     0.186 HD
HETATM    7  C3  UNL     1       3.647   8.989  19.692  1.00  0.00     0.679 A
HETATM    8  N4  UNL     1       4.820   8.561  19.153  1.00  0.00    -0.169 N
ATOM      9  H4  UNL     1       4.909   7.590  18.851  1.00  0.00     0.186 HD
HETATM   10  C4  UNL     1       5.861   9.394  19.015  1.00  0.00     0.185 A
HETATM   11  C6  UNL     1       5.688  10.709  19.445  1.00  0.00     0.141 A
HETATM   12  N5  UNL     1       6.813  11.551  19.279  1.00  0.00    -0.094 NA
ENDROOT
BRANCH   7  13
HETATM   13  N3  UNL     1       2.670   8.131  19.800  1.00  0.00    -0.234 N
ATOM     14  H32 UNL     1       1.907   8.348  20.442  1.00  0.00     0.174 HD
ATOM     15  H31 UNL     1       2.692   7.273  19.248  1.00  0.00     0.174 HD
ENDBRANCH   7  13
BRANCH  10  16
HETATM   16  O1  UNL     1       7.066   8.986  18.472  1.00  0.00    -0.339 OA
HETATM   17  C5  UNL     1       7.234   8.014  17.485  1.00  0.00     0.211 C
ENDBRANCH  10  16
TORSDOF 2
ENDMDL