MODEL 1
REMARK VINA RESULT: -5.254264242      0.000      0.000
REMARK  3 active torsions:
REMARK  status: ('A' for Active; 'I' for Inactive)
REMARK    1  A    between atoms: O1_2  and  N1_3
REMARK    2  A    between atoms: N1_3  and  C2_5
REMARK    3  A    between atoms: C6_16  and  N5_17
ROOT
HETATM    1  C2  UNL     1       4.730  11.344  19.753  1.00  0.00     0.155 C
HETATM    2  N2  UNL     1       3.813  10.410  19.339  1.00  0.00    -0.348 N
ATOM      3  H2  UNL     1       2.967  10.754  18.886  1.00  0.00     0.167 HD
HETATM    4  C3  UNL     1       3.940   9.058  19.484  1.00  0.00     0.107 C
HETATM    5  C4  UNL     1       4.948   8.335  20.068  1.00  0.00     0.106 C
HETATM    6  N3  UNL     1       6.183   8.756  20.455  1.00  0.00    -0.349 N
ATOM      7  H3  UNL     1       6.788   8.031  20.842  1.00  0.00     0.167 HD
HETATM    8  C5  UNL     1       6.724   9.986  20.400  1.00  0.00     0.129 C
HETATM    9  N4  UNL     1       7.887  10.152  20.853  1.00  0.00    -0.384 N
ATOM     10  H41 UNL     1       8.297  11.085  20.812  1.00  0.00     0.157 HD
ATOM     11  H42 UNL     1       8.355   9.333  21.242  1.00  0.00     0.157 HD
HETATM   12  C6  UNL     1       6.077  11.117  19.864  1.00  0.00     0.116 C
ENDROOT
BRANCH   1  13
HETATM   13  N1  UNL     1       4.264  12.473  20.047  1.00  0.00    -0.249 N
ATOM     14  H1  UNL     1       3.536  12.486  20.760  1.00  0.00     0.196 HD
BRANCH  13  15
HETATM   15  O1  UNL     1       4.611  13.672  19.533  1.00  0.00    -0.284 OA
HETATM   16  C1  UNL     1       3.812  14.820  19.776  1.00  0.00     0.237 C
ENDBRANCH  13  15
ENDBRANCH   1  13
BRANCH  12  17
HETATM   17  N5  UNL     1       6.875  11.998  19.420  1.00  0.00    -0.393 N
ATOM     18  H52 UNL     1       6.524  12.952  19.508  1.00  0.00     0.156 HD
ATOM     19  H51 UNL     1       7.773  11.692  19.044  1.00  0.00     0.156 HD
ENDBRANCH  12  17
TORSDOF 3
ENDMDL