MODEL 2
REMARK VINA RESULT: -5.943203592      1.620      3.455
REMARK  1 active torsions:
REMARK  status: ('A' for Active; 'I' for Inactive)
REMARK    1  A    between atoms: C2_2  and  N1_3
ROOT
HETATM    1  N1  UNL     1       6.136  10.572  19.689  1.00  0.00    -0.292 N
HETATM    2  C3  UNL     1       5.521  11.764  19.814  1.00  0.00     0.328 A
HETATM    3  O1  UNL     1       6.056  12.911  19.886  1.00  0.00    -0.246 OA
HETATM    4  N2  UNL     1       4.203  11.507  19.848  1.00  0.00    -0.291 N
ATOM      5  H2  UNL     1       3.477  12.217  19.938  1.00  0.00     0.172 HD
HETATM    6  C4  UNL     1       3.970  10.181  19.749  1.00  0.00     0.157 A
HETATM    7  N3  UNL     1       3.021   9.211  19.708  1.00  0.00    -0.281 N
ATOM      8  H3  UNL     1       2.013   9.355  19.762  1.00  0.00     0.188 HD
HETATM    9  N4  UNL     1       3.635   8.047  19.587  1.00  0.00    -0.263 N
ATOM     10  H4  UNL     1       3.165   7.144  19.533  1.00  0.00     0.190 HD
HETATM   11  C5  UNL     1       4.966   8.225  19.544  1.00  0.00     0.290 A
HETATM   12  O2  UNL     1       5.878   7.366  19.435  1.00  0.00    -0.264 OA
HETATM   13  C6  UNL     1       5.213   9.590  19.647  1.00  0.00     0.154 A
ENDROOT
BRANCH   1  14
HETATM   14  C2  UNL     1       7.560  10.336  19.609  1.00  0.00     0.130 C
HETATM   15  C1  UNL     1       8.104  10.209  21.035  1.00  0.00     0.027 C
ENDBRANCH   1  14
TORSDOF 1
ENDMDL