MODEL 1
REMARK VINA RESULT: -5.154990391      0.000      0.000
REMARK  4 active torsions:
REMARK  status: ('A' for Active; 'I' for Inactive)
REMARK    1  A    between atoms: N1_1  and  C1_5
REMARK    2  A    between atoms: C1_5  and  C2_6
REMARK    3  A    between atoms: C2_6  and  N2_7
REMARK    4  A    between atoms: N2_7  and  C3_9
ROOT
HETATM    1  C3  UNL     1       5.123  11.767  19.294  1.00  0.00     0.147 A
HETATM    2  N3  UNL     1       6.442  11.612  19.424  1.00  0.00    -0.282 N
ATOM      3  H3  UNL     1       7.132  12.361  19.385  1.00  0.00     0.188 HD
HETATM    4  N4  UNL     1       6.708  10.336  19.610  1.00  0.00    -0.282 N
ATOM      5  H4  UNL     1       7.647   9.959  19.736  1.00  0.00     0.188 HD
HETATM    6  C4  UNL     1       5.584   9.590  19.613  1.00  0.00     0.152 A
HETATM    7  N5  UNL     1       5.038   8.365  19.726  1.00  0.00    -0.336 N
ATOM      8  H5  UNL     1       5.552   7.497  19.880  1.00  0.00     0.168 HD
HETATM    9  C5  UNL     1       3.703   8.472  19.602  1.00  0.00     0.182 A
HETATM   10  N6  UNL     1       3.427   9.773  19.411  1.00  0.00    -0.346 N
ATOM     11  H6  UNL     1       2.487  10.150  19.286  1.00  0.00     0.167 HD
HETATM   12  C6  UNL     1       4.556  10.520  19.408  1.00  0.00     0.124 A
ENDROOT
BRANCH   1  13
HETATM   13  N2  UNL     1       4.513  12.870  19.102  1.00  0.00    -0.372 N
ATOM     14  H2  UNL     1       4.051  13.017  18.205  1.00  0.00     0.161 HD
BRANCH  13  15
HETATM   15  C2  UNL     1       4.441  13.923  20.087  1.00  0.00     0.148 C
BRANCH  15  16
HETATM   16  C1  UNL     1       4.060  15.207  19.342  1.00  0.00     0.249 C
BRANCH  16  17
HETATM   17  N1  UNL     1       2.608  15.096  19.129  1.00  0.00    -0.078 N
ATOM     18  H13 UNL     1       2.271  15.585  18.300  1.00  0.00     0.274 HD
ATOM     19  H12 UNL     1       2.300  14.165  18.846  1.00  0.00     0.274 HD
ATOM     20  H11 UNL     1       2.194  15.423  20.002  1.00  0.00     0.274 HD
ENDBRANCH  16  17
ENDBRANCH  15  16
ENDBRANCH  13  15
ENDBRANCH   1  13
TORSDOF 4
ENDMDL