MODEL 5
REMARK VINA RESULT: -7.244668720      4.173      6.556
REMARK  10 active torsions:
REMARK  status: ('A' for Active; 'I' for Inactive)
REMARK    1  A    between atoms: C4_6  and  C5_7
REMARK    2  A    between atoms: C5_7  and  C6_8
REMARK    3  A    between atoms: C6_8  and  C7_9
REMARK    4  A    between atoms: C7_9  and  S1_10
REMARK    5  A    between atoms: S1_10  and  C8_11
REMARK    6  A    between atoms: C9_12  and  N3_13
REMARK    7  A    between atoms: C10_16  and  N4_17
REMARK    8  A    between atoms: N9_30  and  N10_31
REMARK    9  A    between atoms: N10_31  and  C14_33
REMARK   10  A    between atoms: C15_34  and  C16_35
ROOT
HETATM    1  N1  UNL     1      21.005 -11.201 -16.402  1.00  0.00    -0.191 NA
HETATM    2  C1  UNL     1      21.402 -10.119 -16.327  1.00  0.00     0.104 C
HETATM    3  C2  UNL     1      21.902  -8.776 -16.210  1.00  0.00     0.111 A
HETATM    4  C3  UNL     1      21.815  -7.811 -17.183  1.00  0.00     0.095 A
HETATM    5  N2  UNL     1      21.224  -7.917 -18.485  1.00  0.00    -0.099 NA
HETATM    6  C4  UNL     1      22.404  -6.662 -16.703  1.00  0.00     0.061 A
HETATM    7  N9  UNL     1      22.841  -6.929 -15.461  1.00  0.00    -0.245 N
HETATM    8  C21 UNL     1      22.549  -8.193 -15.145  1.00  0.00     0.148 A
HETATM    9 CL2  UNL     1      22.878  -9.068 -13.640  1.00  0.00    -0.061 Cl
ENDROOT
BRANCH   6  10
HETATM   10  C5  UNL     1      22.534  -5.366 -17.452  1.00  0.00     0.062 C
BRANCH  10  11
HETATM   11  C6  UNL     1      23.549  -5.444 -18.568  1.00  0.00     0.017 C
BRANCH  11  12
HETATM   12  C7  UNL     1      24.874  -5.960 -18.089  1.00  0.00     0.081 C
BRANCH  12  13
HETATM   13  S1  UNL     1      25.668  -7.065 -19.263  1.00  0.00    -0.108 SA
BRANCH  13  14
HETATM   14  C8  UNL     1      24.719  -8.555 -19.502  1.00  0.00     0.127 A
HETATM   15  C9  UNL     1      23.934  -8.795 -20.607  1.00  0.00     0.184 A
HETATM   16  C10 UNL     1      23.371 -10.037 -20.420  1.00  0.00     0.175 A
HETATM   17  N5  UNL     1      23.819 -10.503 -19.242  1.00  0.00    -0.173 N
HETATM   18  N6  UNL     1      24.633  -9.629 -18.668  1.00  0.00    -0.252 N
HETATM   19  N8  UNL     1      23.415 -11.755 -18.778  1.00  0.00    -0.273 N
HETATM   20  C11 UNL     1      25.366  -9.615 -17.445  1.00  0.00     0.255 C
HETATM   21  C12 UNL     1      25.131 -10.707 -16.519  1.00  0.00     0.242 C
HETATM   22  O3  UNL     1      25.372 -10.461 -15.306  1.00  0.00    -0.271 OA
HETATM   23  N7  UNL     1      24.668 -12.023 -16.749  1.00  0.00    -0.321 N
HETATM   24  C13 UNL     1      23.949 -12.502 -17.681  1.00  0.00     0.202 C
ATOM     25  H7  UNL     1      24.961 -12.703 -16.048  1.00  0.00     0.169 HD
ATOM     26  H8  UNL     1      22.643 -12.191 -19.283  1.00  0.00     0.190 HD
BRANCH  15  27
HETATM   27  N3  UNL     1      23.746  -7.913 -21.731  1.00  0.00    -0.109 N
HETATM   28  O1  UNL     1      23.353  -6.752 -21.636  1.00  0.00    -0.532 OA
HETATM   29  O2  UNL     1      24.028  -8.414 -22.972  1.00  0.00    -0.532 OA
ENDBRANCH  15  27
BRANCH  16  30
HETATM   30  N4  UNL     1      22.559 -10.644 -21.235  1.00  0.00    -0.381 N
ATOM     31  H42 UNL     1      21.563 -10.458 -21.351  1.00  0.00     0.157 HD
ATOM     32  H41 UNL     1      22.800 -11.397 -21.879  1.00  0.00     0.157 HD
ENDBRANCH  16  30
ENDBRANCH  13  14
ENDBRANCH  12  13
ENDBRANCH  11  12
ENDBRANCH  10  11
ENDBRANCH   6  10
BRANCH   7  33
HETATM   33  N10 UNL     1      23.476  -6.004 -14.650  1.00  0.00    -0.294 N
ATOM     34  H10 UNL     1      23.135  -5.043 -14.686  1.00  0.00     0.187 HD
BRANCH  33  35
HETATM   35  C14 UNL     1      24.569  -6.274 -13.767  1.00  0.00     0.069 C
HETATM   36  C15 UNL     1      24.481  -6.074 -12.484  1.00  0.00     0.140 C
HETATM   37  N11 UNL     1      25.533  -6.326 -11.542  1.00  0.00    -0.293 N
HETATM   38  C17 UNL     1      26.011  -6.675 -10.274  1.00  0.00     0.247 C
HETATM   39  C19 UNL     1      26.916  -6.200 -11.969  1.00  0.00     0.182 C
HETATM   40  O6  UNL     1      25.463  -6.881  -9.160  1.00  0.00    -0.271 OA
HETATM   41  C18 UNL     1      27.435  -6.729 -10.681  1.00  0.00     0.207 C
HETATM   42 CL1  UNL     1      28.131  -8.356 -10.729  1.00  0.00    -0.112 Cl
HETATM   43  S2  UNL     1      27.057  -7.397 -13.358  1.00  0.00    -0.135 SA
HETATM   44  C20 UNL     1      25.786  -6.758 -14.461  1.00  0.00     0.137 C
BRANCH  36  45
HETATM   45  C16 UNL     1      23.236  -5.559 -11.929  1.00  0.00     0.229 C
HETATM   46  O4  UNL     1      22.943  -4.355 -12.027  1.00  0.00    -0.643 OA
HETATM   47  O5  UNL     1      22.335  -6.376 -11.277  1.00  0.00    -0.643 OA
ENDBRANCH  36  45
ENDBRANCH  33  35
ENDBRANCH   7  33
TORSDOF 10
ENDMDL