MODEL 5
REMARK VINA RESULT: -6.662727765      4.163      7.077
REMARK  12 active torsions:
REMARK  status: ('A' for Active; 'I' for Inactive)
REMARK    1  A    between atoms: C2_2  and  O1_3
REMARK    2  A    between atoms: O1_3  and  C3_4
REMARK    3  A    between atoms: C3_4  and  C4_5
REMARK    4  A    between atoms: C4_5  and  O3_7
REMARK    5  A    between atoms: O3_7  and  C5_8
REMARK    6  A    between atoms: C8_11  and  O4_12
REMARK    7  A    between atoms: C12_19  and  C13_20
REMARK    8  A    between atoms: C15_24  and  O7_25
REMARK    9  A    between atoms: O7_25  and  C16_26
REMARK   10  A    between atoms: C16_26  and  C17_28
REMARK   11  A    between atoms: C18_29  and  C19_30
REMARK   12  A    between atoms: N4_38  and  O10_39
ROOT
HETATM    1  C5  UNL     1      24.501  -6.876 -14.421  1.00  0.00     0.116 A
HETATM    2  C6  UNL     1      23.891  -6.426 -13.256  1.00  0.00     0.009 A
HETATM    3  C7  UNL     1      23.970  -7.150 -11.990  1.00  0.00     0.054 C
HETATM    4  C8  UNL     1      23.191  -5.238 -13.344  1.00  0.00     0.100 A
HETATM    5  C9  UNL     1      23.110  -4.540 -14.541  1.00  0.00     0.105 A
HETATM    6  N1  UNL     1      22.389  -3.314 -14.640  1.00  0.00    -0.098 NA
HETATM    7  C10 UNL     1      23.718  -4.998 -15.686  1.00  0.00     0.135 A
HETATM    8  C11 UNL     1      24.426  -6.184 -15.627  1.00  0.00     0.093 A
HETATM    9  N2  UNL     1      25.099  -6.678 -16.791  1.00  0.00    -0.338 N
HETATM   10  C12 UNL     1      26.312  -7.442 -16.926  1.00  0.00     0.190 C
HETATM   11  C14 UNL     1      26.054  -8.182 -18.262  1.00  0.00     0.073 C
HETATM   12  C15 UNL     1      25.440  -7.074 -19.052  1.00  0.00     0.177 C
HETATM   13  C24 UNL     1      24.519  -6.404 -18.085  1.00  0.00     0.225 C
HETATM   14  N5  UNL     1      24.467  -5.001 -18.374  1.00  0.00    -0.291 N
ATOM     15  H5  UNL     1      24.899  -4.574 -19.193  1.00  0.00     0.174 HD
HETATM   16  S1  UNL     1      23.605  -4.137 -17.205  1.00  0.00     0.264 S
HETATM   17  O11 UNL     1      22.164  -3.909 -17.587  1.00  0.00    -0.200 OA
HETATM   18  O12 UNL     1      24.264  -2.767 -17.080  1.00  0.00    -0.200 OA
ENDROOT
BRANCH  12  19
HETATM   19  O7  UNL     1      24.911  -7.462 -20.262  1.00  0.00    -0.309 OA
BRANCH  19  20
HETATM   20  C16 UNL     1      23.566  -7.542 -20.521  1.00  0.00     0.283 C
HETATM   21  O8  UNL     1      23.138  -6.717 -21.350  1.00  0.00    -0.260 OA
BRANCH  20  22
HETATM   22  C17 UNL     1      22.676  -8.548 -19.856  1.00  0.00     0.084 C
HETATM   23  C18 UNL     1      22.638  -9.745 -20.329  1.00  0.00     0.040 C
BRANCH  23  24
HETATM   24  C19 UNL     1      21.862 -10.852 -19.852  1.00  0.00     0.088 A
HETATM   25  C20 UNL     1      22.522 -11.775 -19.015  1.00  0.00     0.065 A
HETATM   26 CL1  UNL     1      24.216 -11.563 -18.585  1.00  0.00    -0.082 Cl
HETATM   27  C21 UNL     1      21.795 -12.842 -18.550  1.00  0.00     0.058 A
HETATM   28  C22 UNL     1      20.471 -13.050 -18.857  1.00  0.00     0.118 A
HETATM   29  N3  UNL     1      19.764 -14.173 -18.348  1.00  0.00    -0.096 NA
HETATM   30  C23 UNL     1      19.891 -12.115 -19.676  1.00  0.00     0.296 A
HETATM   31  O9  UNL     1      18.673 -12.260 -19.990  1.00  0.00    -0.264 OA
HETATM   32  N4  UNL     1      20.581 -11.041 -20.158  1.00  0.00    -0.185 N
BRANCH  32  33
HETATM   33  O10 UNL     1      19.847 -10.199 -20.967  1.00  0.00    -0.279 OA
ATOM     34  H10 UNL     1      20.221  -9.485 -21.471  1.00  0.00     0.245 HD
ENDBRANCH  32  33
ENDBRANCH  23  24
ENDBRANCH  20  22
ENDBRANCH  19  20
ENDBRANCH  12  19
BRANCH  10  35
HETATM   35  C13 UNL     1      27.527  -6.640 -17.126  1.00  0.00     0.197 C
HETATM   36  O5  UNL     1      28.617  -7.203 -17.354  1.00  0.00    -0.646 OA
HETATM   37  O6  UNL     1      27.500  -5.259 -17.070  1.00  0.00    -0.646 OA
ENDBRANCH  10  35
BRANCH   1  38
HETATM   38  O3  UNL     1      25.186  -8.080 -14.272  1.00  0.00    -0.274 OA
BRANCH  38  39
HETATM   39  C4  UNL     1      24.554  -9.288 -14.622  1.00  0.00     0.288 C
HETATM   40  O2  UNL     1      25.343 -10.256 -14.899  1.00  0.00    -0.262 OA
BRANCH  39  41
HETATM   41  C3  UNL     1      23.105  -9.486 -14.681  1.00  0.00     0.279 C
BRANCH  41  42
HETATM   42  O1  UNL     1      22.591 -10.080 -15.789  1.00  0.00    -0.382 OA
BRANCH  42  43
HETATM   43  C2  UNL     1      21.399  -9.623 -16.271  1.00  0.00     0.163 C
HETATM   44  C1  UNL     1      21.431  -8.117 -16.458  1.00  0.00     0.033 C
ENDBRANCH  42  43
ENDBRANCH  41  42
ENDBRANCH  39  41
ENDBRANCH  38  39
ENDBRANCH   1  38
BRANCH   4  45
HETATM   45  O4  UNL     1      22.569  -4.759 -12.193  1.00  0.00    -0.358 OA
ATOM     46  H4  UNL     1      22.209  -3.880 -12.213  1.00  0.00     0.217 HD
ENDBRANCH   4  45
TORSDOF 12
ENDMDL