MODEL 2
REMARK VINA RESULT: -7.147665568      4.216      7.723
REMARK  15 active torsions:
REMARK  status: ('A' for Active; 'I' for Inactive)
REMARK    1  A    between atoms: C2_3  and  C3_7
REMARK    2  A    between atoms: C3_7  and  C10_25
REMARK    3  A    between atoms: N3_8  and  C4_10
REMARK    4  A    between atoms: C4_10  and  C5_11
REMARK    5  A    between atoms: C5_11  and  N4_12
REMARK       I    between atoms: N4_12  and  C6_14
REMARK    6  A    between atoms: C6_14  and  C7_16
REMARK    7  A    between atoms: C9_19  and  N5_20
REMARK    8  A    between atoms: C10_25  and  O2_26
REMARK    9  A    between atoms: C10_25  and  C11_28
REMARK   10  A    between atoms: C11_28  and  N7_29
REMARK   11  A    between atoms: C11_28  and  N11_47
REMARK   12  A    between atoms: N7_29  and  S2_31
REMARK   13  A    between atoms: S2_31  and  C12_34
REMARK   14  A    between atoms: N11_47  and  N12_49
REMARK   15  A    between atoms: N12_49  and  C18_51
ROOT
HETATM    1  N1  UNL     1      27.417  -6.102 -13.753  1.00  0.00    -0.190 NA
HETATM    2  C1  UNL     1      27.460  -7.112 -13.194  1.00  0.00     0.119 C
HETATM    3  C2  UNL     1      27.569  -8.406 -12.491  1.00  0.00     0.137 C
HETATM    4  N2  UNL     1      28.747  -8.910 -12.468  1.00  0.00    -0.389 N
ATOM      5  H21 UNL     1      28.822  -9.804 -11.983  1.00  0.00     0.157 HD
ATOM      6  H22 UNL     1      29.552  -8.459 -12.902  1.00  0.00     0.157 HD
ENDROOT
BRANCH   3   7
HETATM    7  C3  UNL     1      26.429  -9.044 -11.877  1.00  0.00     0.103 C
HETATM    8  N3  UNL     1      25.844  -9.967 -12.536  1.00  0.00    -0.384 N
ATOM      9  H3  UNL     1      25.067 -10.315 -11.975  1.00  0.00     0.159 HD
BRANCH   8  10
HETATM   10  C4  UNL     1      25.865 -10.659 -13.699  1.00  0.00     0.139 C
BRANCH  10  11
HETATM   11  C5  UNL     1      26.582 -12.023 -13.591  1.00  0.00     0.142 C
BRANCH  11  12
HETATM   12  N4  UNL     1      26.207 -12.635 -12.357  1.00  0.00    -0.354 N
HETATM   13  C6  UNL     1      26.965 -12.516 -11.166  1.00  0.00     0.268 C
HETATM   14  O1  UNL     1      28.014 -11.826 -11.240  1.00  0.00    -0.266 OA
ATOM     15  H4  UNL     1      25.349 -13.186 -12.331  1.00  0.00     0.162 HD
BRANCH  13  16
HETATM   16  C7  UNL     1      26.531 -13.175  -9.903  1.00  0.00     0.109 A
HETATM   17  C8  UNL     1      26.490 -14.544  -9.818  1.00  0.00     0.088 A
HETATM   18  S1  UNL     1      25.952 -14.788  -8.215  1.00  0.00    -0.064 SA
HETATM   19  C9  UNL     1      25.814 -13.153  -7.755  1.00  0.00     0.142 A
HETATM   20  N6  UNL     1      26.184 -12.493  -8.845  1.00  0.00    -0.332 N
ATOM     21  H6  UNL     1      26.197 -11.474  -8.856  1.00  0.00     0.168 HD
BRANCH  19  22
HETATM   22  N5  UNL     1      25.433 -12.643  -6.601  1.00  0.00    -0.380 N
ATOM     23  H52 UNL     1      25.972 -12.597  -5.736  1.00  0.00     0.158 HD
ATOM     24  H51 UNL     1      24.546 -12.205  -6.352  1.00  0.00     0.158 HD
ENDBRANCH  19  22
ENDBRANCH  13  16
ENDBRANCH  11  12
ENDBRANCH  10  11
ENDBRANCH   8  10
BRANCH   7  25
HETATM   25  C10 UNL     1      25.870  -8.749 -10.571  1.00  0.00     0.141 C
BRANCH  25  26
HETATM   26  O2  UNL     1      26.526  -9.368  -9.604  1.00  0.00    -0.355 OA
ATOM     27  H2  UNL     1      26.615  -8.822  -8.831  1.00  0.00     0.218 HD
ENDBRANCH  25  26
BRANCH  25  28
HETATM   28  C11 UNL     1      24.780  -7.945 -10.117  1.00  0.00     0.166 C
BRANCH  28  29
HETATM   29  N7  UNL     1      23.877  -7.366 -10.746  1.00  0.00    -0.261 N
ATOM     30  H7  UNL     1      22.960  -7.706 -10.454  1.00  0.00     0.180 HD
BRANCH  29  31
HETATM   31  S2  UNL     1      23.723  -6.204 -11.919  1.00  0.00     0.283 S
HETATM   32  O3  UNL     1      24.827  -5.159 -11.715  1.00  0.00    -0.199 OA
HETATM   33  O4  UNL     1      22.402  -5.414 -11.778  1.00  0.00    -0.199 OA
BRANCH  31  34
HETATM   34  C12 UNL     1      23.822  -6.739 -13.579  1.00  0.00     0.188 A
HETATM   35  N8  UNL     1      24.403  -6.019 -14.543  1.00  0.00    -0.279 N
HETATM   36  N9  UNL     1      24.494  -6.375 -15.809  1.00  0.00    -0.247 N
ATOM     37  H8  UNL     1      24.808  -5.121 -14.279  1.00  0.00     0.188 HD
HETATM   38  C13 UNL     1      25.025  -5.813 -16.919  1.00  0.00     0.135 A
HETATM   39  C15 UNL     1      23.970  -7.559 -16.212  1.00  0.00     0.150 A
HETATM   40  C14 UNL     1      24.832  -6.640 -18.001  1.00  0.00     0.109 A
HETATM   41  N10 UNL     1      24.177  -7.714 -17.538  1.00  0.00    -0.348 N
ATOM     42  H10 UNL     1      23.883  -8.515 -18.095  1.00  0.00     0.167 HD
HETATM   43  C16 UNL     1      23.354  -8.341 -15.235  1.00  0.00     0.104 A
HETATM   44 CL1  UNL     1      22.668  -9.876 -15.721  1.00  0.00    -0.078 Cl
HETATM   45  C17 UNL     1      23.255  -7.977 -13.914  1.00  0.00     0.101 A
HETATM   46 CL2  UNL     1      22.484  -8.960 -12.697  1.00  0.00    -0.079 Cl
ENDBRANCH  31  34
ENDBRANCH  29  31
ENDBRANCH  28  29
BRANCH  28  47
HETATM   47  N11 UNL     1      24.688  -7.775  -8.652  1.00  0.00    -0.268 N
ATOM     48  H11 UNL     1      24.175  -8.467  -8.106  1.00  0.00     0.189 HD
BRANCH  47  49
HETATM   49  N12 UNL     1      25.269  -6.715  -8.005  1.00  0.00    -0.131 N
ATOM     50  H12 UNL     1      24.791  -6.295  -7.208  1.00  0.00     0.205 HD
BRANCH  49  51
HETATM   51  C18 UNL     1      26.534  -6.185  -8.423  1.00  0.00     0.688 C
HETATM   52  N13 UNL     1      27.639  -6.783  -8.165  1.00  0.00    -0.225 N
HETATM   53  C19 UNL     1      28.939  -6.323  -8.545  1.00  0.00     0.139 C
ATOM     54  H13 UNL     1      27.587  -7.660  -7.647  1.00  0.00     0.177 HD
HETATM   55  C20 UNL     1      28.967  -5.053  -9.326  1.00  0.00     0.040 C
HETATM   56  C21 UNL     1      27.684  -4.755 -10.055  1.00  0.00     0.139 C
HETATM   57  N14 UNL     1      26.583  -4.961  -9.143  1.00  0.00    -0.225 N
ATOM     58  H14 UNL     1      25.863  -4.249  -9.020  1.00  0.00     0.177 HD
ENDBRANCH  49  51
ENDBRANCH  47  49
ENDBRANCH  28  47
ENDBRANCH  25  28
ENDBRANCH   7  25
ENDBRANCH   3   7
TORSDOF 15
ENDMDL