MODEL 4
REMARK VINA RESULT: -6.914008140      1.419      2.013
REMARK  15 active torsions:
REMARK  status: ('A' for Active; 'I' for Inactive)
REMARK    1  A    between atoms: O1_2  and  C2_3
REMARK    2  A    between atoms: C2_3  and  C3_5
REMARK    3  A    between atoms: C3_5  and  O3_7
REMARK    4  A    between atoms: O3_7  and  C5_8
REMARK    5  A    between atoms: C5_8  and  C6_9
REMARK    6  A    between atoms: C5_8  and  C12_32
REMARK       I    between atoms: C6_9  and  N1_11
REMARK       I    between atoms: N1_11  and  C7_13
REMARK    7  A    between atoms: C7_13  and  C8_15
REMARK    8  A    between atoms: C9_18  and  N3_19
REMARK    9  A    between atoms: N3_19  and  N4_21
REMARK   10  A    between atoms: C10_26  and  N6_27
REMARK   11  A    between atoms: C13_33  and  O6_34
REMARK   12  A    between atoms: C16_38  and  O7_39
REMARK   13  A    between atoms: O7_39  and  C17_40
REMARK   14  A    between atoms: C19_43  and  O9_44
REMARK   15  A    between atoms: C22_47  and  O10_48
ROOT
HETATM    1  C5  UNL     1      23.488  -7.021 -16.535  1.00  0.00     0.251 C
ENDROOT
BRANCH   1   2
HETATM    2  O3  UNL     1      22.283  -7.680 -16.563  1.00  0.00    -0.357 OA
BRANCH   2   3
HETATM    3  C3  UNL     1      22.227  -8.793 -17.388  1.00  0.00     0.218 C
HETATM    4  C4  UNL     1      21.808 -10.062 -16.705  1.00  0.00     0.050 C
BRANCH   3   5
HETATM    5  C2  UNL     1      21.265  -8.514 -18.526  1.00  0.00     0.287 C
HETATM    6  O2  UNL     1      20.056  -8.288 -18.311  1.00  0.00    -0.262 OA
BRANCH   5   7
HETATM    7  O1  UNL     1      21.727  -8.509 -19.821  1.00  0.00    -0.324 OA
HETATM    8  C1  UNL     1      22.990  -8.073 -20.223  1.00  0.00     0.213 C
ENDBRANCH   5   7
ENDBRANCH   3   5
ENDBRANCH   2   3
ENDBRANCH   1   2
BRANCH   1   9
HETATM    9  C6  UNL     1      24.151  -7.032 -15.176  1.00  0.00     0.258 C
HETATM   10  O4  UNL     1      23.561  -6.362 -14.323  1.00  0.00    -0.270 OA
HETATM   11  N1  UNL     1      25.324  -7.744 -14.944  1.00  0.00    -0.290 N
HETATM   12  C7  UNL     1      26.102  -7.899 -13.819  1.00  0.00     0.277 C
ATOM     13  H1  UNL     1      25.674  -8.245 -15.761  1.00  0.00     0.172 HD
HETATM   14  O5  UNL     1      27.056  -8.772 -13.850  1.00  0.00    -0.266 OA
BRANCH  12  15
HETATM   15  C8  UNL     1      26.017  -7.212 -12.552  1.00  0.00     0.142 A
HETATM   16  N2  UNL     1      25.354  -7.670 -11.509  1.00  0.00    -0.183 N
HETATM   17  C9  UNL     1      25.319  -7.047 -10.303  1.00  0.00     0.698 A
ATOM     18  H2  UNL     1      24.836  -8.543 -11.614  1.00  0.00     0.184 HD
HETATM   19  N5  UNL     1      25.991  -5.907 -10.165  1.00  0.00    -0.174 N
HETATM   20  C10 UNL     1      26.683  -5.385 -11.184  1.00  0.00     0.139 A
ATOM     21  H5  UNL     1      25.979  -5.423  -9.267  1.00  0.00     0.186 HD
HETATM   22  C11 UNL     1      26.720  -6.011 -12.399  1.00  0.00     0.111 A
HETATM   23 CL1  UNL     1      27.616  -5.345 -13.736  1.00  0.00    -0.078 Cl
BRANCH  17  24
HETATM   24  N3  UNL     1      24.645  -7.559  -9.314  1.00  0.00    -0.138 N
ATOM     25  H3  UNL     1      23.785  -8.073  -9.507  1.00  0.00     0.205 HD
BRANCH  24  26
HETATM   26  N4  UNL     1      25.078  -7.417  -7.995  1.00  0.00    -0.331 N
ATOM     27  H42 UNL     1      25.075  -8.238  -7.391  1.00  0.00     0.177 HD
ATOM     28  H41 UNL     1      25.391  -6.514  -7.637  1.00  0.00     0.177 HD
ENDBRANCH  24  26
ENDBRANCH  17  24
BRANCH  20  29
HETATM   29  N6  UNL     1      27.318  -4.264 -10.979  1.00  0.00    -0.384 N
ATOM     30  H62 UNL     1      28.336  -4.215 -11.025  1.00  0.00     0.157 HD
ATOM     31  H61 UNL     1      26.764  -3.433 -10.773  1.00  0.00     0.157 HD
ENDBRANCH  20  29
ENDBRANCH  12  15
ENDBRANCH   1   9
BRANCH   1  32
HETATM   32  C12 UNL     1      23.523  -5.710 -17.174  1.00  0.00     0.023 C
HETATM   33  C13 UNL     1      22.601  -4.743 -16.757  1.00  0.00     0.076 C
HETATM   34  C14 UNL     1      22.520  -3.381 -17.078  1.00  0.00     0.052 C
HETATM   35  C15 UNL     1      22.942  -2.786 -18.230  1.00  0.00     0.020 A
HETATM   36  C16 UNL     1      22.396  -1.532 -18.402  1.00  0.00     0.123 A
HETATM   37  C23 UNL     1      23.817  -3.285 -19.198  1.00  0.00     0.061 A
HETATM   38  C19 UNL     1      22.700  -0.769 -19.507  1.00  0.00     0.105 A
HETATM   39  C21 UNL     1      23.571  -1.299 -20.444  1.00  0.00     0.077 A
HETATM   40  C22 UNL     1      24.140  -2.542 -20.317  1.00  0.00     0.083 A
HETATM   41  C24 UNL     1      24.439  -4.519 -19.157  1.00  0.00     0.192 C
HETATM   42  O11 UNL     1      25.076  -4.780 -20.211  1.00  0.00    -0.287 OA
HETATM   43  C25 UNL     1      24.459  -5.484 -18.146  1.00  0.00     0.001 C
HETATM   44  C26 UNL     1      25.638  -6.335 -18.149  1.00  0.00     0.053 C
BRANCH  33  45
HETATM   45  O6  UNL     1      21.626  -5.209 -15.900  1.00  0.00    -0.360 OA
ATOM     46  H6  UNL     1      21.921  -5.363 -15.010  1.00  0.00     0.217 HD
ENDBRANCH  33  45
BRANCH  36  47
HETATM   47  O7  UNL     1      21.533  -1.062 -17.429  1.00  0.00    -0.275 OA
BRANCH  47  48
HETATM   48  C17 UNL     1      20.196  -1.475 -17.403  1.00  0.00     0.260 C
HETATM   49  C18 UNL     1      19.472  -1.470 -18.701  1.00  0.00     0.126 C
HETATM   50  O8  UNL     1      19.705  -1.815 -16.315  1.00  0.00    -0.265 OA
ENDBRANCH  47  48
ENDBRANCH  36  47
BRANCH  38  51
HETATM   51  O9  UNL     1      22.132   0.486 -19.645  1.00  0.00    -0.353 OA
HETATM   52  C20 UNL     1      21.481   0.822 -20.857  1.00  0.00     0.210 C
ENDBRANCH  38  51
BRANCH  40  53
HETATM   53  O10 UNL     1      25.008  -3.083 -21.239  1.00  0.00    -0.360 OA
ATOM     54  H10 UNL     1      25.881  -2.746 -21.401  1.00  0.00     0.217 HD
ENDBRANCH  40  53
ENDBRANCH   1  32
TORSDOF 15
ENDMDL