MODEL 2
REMARK VINA RESULT: -6.339090981      6.171      8.953
REMARK  15 active torsions:
REMARK  status: ('A' for Active; 'I' for Inactive)
REMARK    1  A    between atoms: O1_2  and  C2_3
REMARK    2  A    between atoms: C2_3  and  O2_4
REMARK    3  A    between atoms: C2_3  and  C3_6
REMARK    4  A    between atoms: C5_8  and  C6_9
REMARK    5  A    between atoms: C9_17  and  O5_18
REMARK    6  A    between atoms: N2_20  and  C10_21
REMARK    7  A    between atoms: C10_21  and  C11_22
REMARK    8  A    between atoms: C11_22  and  C12_23
REMARK    9  A    between atoms: C12_23  and  O7_25
REMARK   10  A    between atoms: O7_25  and  C13_26
REMARK   11  A    between atoms: C16_29  and  O8_30
REMARK   12  A    between atoms: C17_32  and  C18_33
REMARK   13  A    between atoms: C19_35  and  O10_36
REMARK   14  A    between atoms: C19_35  and  C20_38
REMARK   15  A    between atoms: C24_45  and  C25_46
ROOT
HETATM    1  C3  UNL     1      22.947 -10.275 -20.756  1.00  0.00     0.101 C
HETATM    2  C4  UNL     1      22.767 -11.378 -20.096  1.00  0.00     0.020 C
HETATM    3  C5  UNL     1      22.459 -11.316 -18.622  1.00  0.00     0.019 C
HETATM    4  C17 UNL     1      21.468 -12.157 -18.353  1.00  0.00     0.066 C
HETATM    5  C19 UNL     1      20.778 -12.952 -19.450  1.00  0.00     0.288 C
HETATM    6  O13 UNL     1      21.317 -13.021 -20.656  1.00  0.00    -0.328 OA
HETATM    7  C21 UNL     1      22.687 -12.758 -20.708  1.00  0.00     0.193 C
HETATM    8  C22 UNL     1      23.194 -12.810 -22.072  1.00  0.00    -0.022 C
HETATM    9  C23 UNL     1      23.475 -14.167 -22.650  1.00  0.00     0.049 C
HETATM   10  C24 UNL     1      23.407 -11.716 -22.754  1.00  0.00     0.079 C
HETATM   11  N3  UNL     1      23.294 -10.428 -22.173  1.00  0.00    -0.350 N
ATOM     12  H3  UNL     1      23.456  -9.599 -22.745  1.00  0.00     0.166 HD
ENDROOT
BRANCH   3  13
HETATM   13  C6  UNL     1      23.383 -10.660 -17.740  1.00  0.00     0.070 C
HETATM   14  N1  UNL     1      24.626 -11.117 -17.775  1.00  0.00    -0.279 N
HETATM   15  S1  UNL     1      25.615 -10.295 -16.701  1.00  0.00     0.268 S
ATOM     16  H1  UNL     1      24.941 -11.874 -18.381  1.00  0.00     0.179 HD
HETATM   17  O3  UNL     1      26.825  -9.679 -17.337  1.00  0.00    -0.200 OA
HETATM   18  O4  UNL     1      25.984 -11.076 -15.473  1.00  0.00    -0.200 OA
HETATM   19  C7  UNL     1      24.431  -9.051 -16.298  1.00  0.00     0.147 A
HETATM   20  C8  UNL     1      23.269  -9.472 -16.912  1.00  0.00     0.071 A
HETATM   21  C16 UNL     1      24.317  -7.855 -15.657  1.00  0.00     0.169 A
HETATM   22  C9  UNL     1      22.414  -8.392 -16.587  1.00  0.00     0.158 A
HETATM   23  N2  UNL     1      23.063  -7.467 -15.846  1.00  0.00    -0.306 N
BRANCH  22  24
HETATM   24  O5  UNL     1      21.096  -8.172 -16.920  1.00  0.00    -0.345 OA
ATOM     25  H5  UNL     1      20.463  -8.751 -17.330  1.00  0.00     0.219 HD
ENDBRANCH  22  24
BRANCH  23  26
HETATM   26  C10 UNL     1      22.461  -6.220 -15.335  1.00  0.00     0.143 C
BRANCH  26  27
HETATM   27  C11 UNL     1      22.591  -5.147 -16.396  1.00  0.00     0.131 C
BRANCH  27  28
HETATM   28  C12 UNL     1      22.213  -3.818 -15.879  1.00  0.00     0.260 C
HETATM   29  O6  UNL     1      22.785  -3.379 -14.856  1.00  0.00    -0.265 OA
BRANCH  28  30
HETATM   30  O7  UNL     1      21.249  -3.044 -16.489  1.00  0.00    -0.317 OA
BRANCH  30  31
HETATM   31  C13 UNL     1      21.298  -2.761 -17.881  1.00  0.00     0.123 C
HETATM   32  C14 UNL     1      22.535  -1.939 -18.138  1.00  0.00     0.040 C
HETATM   33  C15 UNL     1      20.103  -1.975 -18.349  1.00  0.00     0.040 C
ENDBRANCH  30  31
ENDBRANCH  28  30
ENDBRANCH  27  28
ENDBRANCH  26  27
ENDBRANCH  23  26
BRANCH  21  34
HETATM   34  O8  UNL     1      25.334  -7.206 -14.954  1.00  0.00    -0.345 OA
ATOM     35  H8  UNL     1      25.210  -6.561 -14.269  1.00  0.00     0.219 HD
ENDBRANCH  21  34
ENDBRANCH   3  13
BRANCH   4  36
HETATM   36  C18 UNL     1      20.946 -12.392 -17.042  1.00  0.00     0.272 C
HETATM   37  O9  UNL     1      20.541 -11.441 -16.308  1.00  0.00    -0.302 OA
ENDBRANCH   4  36
BRANCH   1  38
HETATM   38  C2  UNL     1      22.845  -8.959 -20.234  1.00  0.00     0.206 C
BRANCH  38  39
HETATM   39  O1  UNL     1      23.694  -7.992 -19.888  1.00  0.00    -0.334 OA
HETATM   40  C1  UNL     1      25.116  -8.080 -19.906  1.00  0.00     0.212 C
ENDBRANCH  38  39
BRANCH  38  41
HETATM   41  O2  UNL     1      21.611  -8.575 -19.999  1.00  0.00    -0.339 OA
ATOM     42  H2  UNL     1      21.604  -7.908 -19.322  1.00  0.00     0.220 HD
ENDBRANCH  38  41
ENDBRANCH   1  38
BRANCH   5  43
HETATM   43  O10 UNL     1      20.585 -14.229 -18.863  1.00  0.00    -0.353 OA
ATOM     44  H10 UNL     1      19.962 -14.648 -19.445  1.00  0.00     0.214 HD
ENDBRANCH   5  43
BRANCH   5  45
HETATM   45  C20 UNL     1      19.385 -12.390 -19.615  1.00  0.00     0.244 C
HETATM   46  O11 UNL     1      18.380 -12.976 -19.155  1.00  0.00    -0.644 OA
HETATM   47  O12 UNL     1      19.222 -11.208 -20.284  1.00  0.00    -0.644 OA
ENDBRANCH   5  45
BRANCH  10  48
HETATM   48  C25 UNL     1      23.916 -11.725 -24.168  1.00  0.00     0.403 C
HETATM   49  F1  UNL     1      25.241 -11.509 -24.312  1.00  0.00    -0.207 F
HETATM   50  F2  UNL     1      23.259 -10.671 -24.819  1.00  0.00    -0.207 F
ENDBRANCH  10  48
TORSDOF 15
ENDMDL