MODEL 2
REMARK VINA RESULT: -7.515602432      1.404      3.085
REMARK  13 active torsions:
REMARK  status: ('A' for Active; 'I' for Inactive)
REMARK    1  A    between atoms: C2_2  and  C3_4
REMARK       I    between atoms: C3_4  and  N1_6
REMARK    2  A    between atoms: N1_6  and  C4_8
REMARK    3  A    between atoms: C5_11  and  C6_12
REMARK    4  A    between atoms: C11_26  and  N7_27
REMARK    5  A    between atoms: N7_27  and  N8_29
REMARK    6  A    between atoms: C12_31  and  C13_32
REMARK    7  A    between atoms: C15_34  and  N9_35
REMARK    8  A    between atoms: N9_35  and  O2_36
REMARK       I    between atoms: N9_35  and  C16_38
REMARK    9  A    between atoms: C19_42  and  O4_43
REMARK   10  A    between atoms: C20_45  and  C21_46
REMARK   11  A    between atoms: C21_46  and  O5_47
REMARK   12  A    between atoms: O5_47  and  N10_48
REMARK   13  A    between atoms: N12_53  and  N13_54
ROOT
HETATM    1  C6  UNL     1      22.653  -7.742 -17.110  1.00  0.00     0.125 A
HETATM    2  N3  UNL     1      22.334  -8.562 -18.119  1.00  0.00    -0.346 N
ATOM      3  H3  UNL     1      22.404  -8.211 -19.074  1.00  0.00     0.166 HD
HETATM    4  C7  UNL     1      21.924  -9.826 -17.928  1.00  0.00     0.093 A
HETATM    5  C8  UNL     1      21.597 -10.663 -18.971  1.00  0.00     0.123 A
HETATM    6  N4  UNL     1      21.187 -11.928 -18.764  1.00  0.00    -0.340 N
ATOM      7  H4  UNL     1      20.952 -12.521 -19.559  1.00  0.00     0.167 HD
HETATM    8  C9  UNL     1      21.088 -12.413 -17.513  1.00  0.00     0.180 A
HETATM    9 CL1  UNL     1      20.550 -14.070 -17.305  1.00  0.00    -0.045 Cl
HETATM   10  N5  UNL     1      21.403 -11.612 -16.478  1.00  0.00    -0.317 N
ATOM     11  H5  UNL     1      21.326 -11.983 -15.530  1.00  0.00     0.170 HD
HETATM   12  C10 UNL     1      21.816 -10.341 -16.646  1.00  0.00     0.137 A
HETATM   13  N6  UNL     1      22.135  -9.526 -15.610  1.00  0.00    -0.324 N
ATOM     14  H6  UNL     1      22.062  -9.880 -14.657  1.00  0.00     0.169 HD
HETATM   15  C11 UNL     1      22.543  -8.263 -15.814  1.00  0.00     0.152 A
ENDROOT
BRANCH  15  16
HETATM   16  N7  UNL     1      22.856  -7.452 -14.881  1.00  0.00    -0.284 N
ATOM     17  H7  UNL     1      22.585  -6.478 -15.015  1.00  0.00     0.188 HD
BRANCH  16  18
HETATM   18  N8  UNL     1      23.517  -7.751 -13.719  1.00  0.00    -0.309 N
HETATM   19  C12 UNL     1      24.778  -7.968 -13.556  1.00  0.00     0.119 C
ATOM     20  H8  UNL     1      22.942  -7.810 -12.879  1.00  0.00     0.186 HD
BRANCH  19  21
HETATM   21  C13 UNL     1      25.276  -8.272 -12.230  1.00  0.00    -0.002 A
HETATM   22  C14 UNL     1      25.378  -7.330 -11.256  1.00  0.00     0.046 A
HETATM   23  C15 UNL     1      25.848  -7.617  -9.981  1.00  0.00     0.069 A
HETATM   24  C18 UNL     1      26.219  -8.895  -9.702  1.00  0.00     0.069 A
HETATM   25  C19 UNL     1      26.129  -9.905 -10.683  1.00  0.00     0.081 A
HETATM   26  C20 UNL     1      25.663  -9.590 -11.931  1.00  0.00     0.033 A
BRANCH  23  27
HETATM   27  N9  UNL     1      25.937  -6.603  -8.988  1.00  0.00    -0.192 N
HETATM   28  C16 UNL     1      26.858  -5.554  -9.146  1.00  0.00     0.244 C
HETATM   29  C17 UNL     1      27.727  -5.506 -10.336  1.00  0.00     0.120 C
HETATM   30  O3  UNL     1      26.951  -4.652  -8.284  1.00  0.00    -0.271 OA
BRANCH  27  31
HETATM   31  O2  UNL     1      25.110  -6.695  -7.904  1.00  0.00    -0.280 OA
ATOM     32  H2  UNL     1      25.059  -5.948  -7.320  1.00  0.00     0.245 HD
ENDBRANCH  27  31
ENDBRANCH  23  27
BRANCH  25  33
HETATM   33  O4  UNL     1      26.531 -11.170 -10.268  1.00  0.00    -0.360 OA
ATOM     34  H4  UNL     1      27.435 -11.391 -10.462  1.00  0.00     0.217 HD
ENDBRANCH  25  33
BRANCH  26  35
HETATM   35  C21 UNL     1      25.472 -10.573 -12.975  1.00  0.00     0.181 C
BRANCH  35  36
HETATM   36  O5  UNL     1      26.498 -11.435 -13.190  1.00  0.00    -0.256 OA
BRANCH  36  37
HETATM   37  N10 UNL     1      26.186 -12.753 -12.991  1.00  0.00    -0.306 N
ATOM     38 2H10 UNL     1      25.359 -13.037 -12.466  1.00  0.00     0.184 HD
ATOM     39 1H10 UNL     1      26.843 -13.412 -13.409  1.00  0.00     0.184 HD
ENDBRANCH  36  37
ENDBRANCH  35  36
ENDBRANCH  26  35
ENDBRANCH  19  21
ENDBRANCH  16  18
ENDBRANCH  15  16
BRANCH   1  40
HETATM   40  C5  UNL     1      23.102  -6.373 -17.311  1.00  0.00     0.168 A
HETATM   41  N2  UNL     1      22.396  -5.265 -17.027  1.00  0.00    -0.170 N
HETATM   42  C4  UNL     1      23.113  -4.173 -17.332  1.00  0.00     0.723 A
ATOM     43  H2  UNL     1      21.454  -5.257 -16.637  1.00  0.00     0.186 HD
HETATM   44  N12 UNL     1      24.297  -4.577 -17.819  1.00  0.00    -0.025 N
HETATM   45  N11 UNL     1      24.267  -5.922 -17.797  1.00  0.00    -0.247 N
ATOM     46  H11 UNL     1      25.031  -6.521 -18.109  1.00  0.00     0.191 HD
BRANCH  42  47
HETATM   47  N1  UNL     1      22.741  -2.962 -17.190  1.00  0.00    -0.152 N
HETATM   48  C3  UNL     1      21.436  -2.469 -17.272  1.00  0.00     0.276 C
HETATM   49  O1  UNL     1      20.590  -2.595 -16.328  1.00  0.00    -0.266 OA
ATOM     50  H1  UNL     1      23.474  -2.280 -16.995  1.00  0.00     0.188 HD
BRANCH  48  51
HETATM   51  C2  UNL     1      20.985  -1.779 -18.468  1.00  0.00     0.070 C
HETATM   52  C1  UNL     1      19.706  -1.585 -18.672  1.00  0.00     0.037 C
HETATM   53 BR1  UNL     1      22.267  -1.153 -19.747  1.00  0.00    -0.046 Br
ENDBRANCH  48  51
ENDBRANCH  42  47
BRANCH  44  54
HETATM   54  N13 UNL     1      25.351  -3.780 -18.259  1.00  0.00    -0.309 N
ATOM     55 2H13 UNL     1      25.699  -2.933 -17.810  1.00  0.00     0.179 HD
ATOM     56 1H13 UNL     1      25.928  -3.916 -19.088  1.00  0.00     0.179 HD
ENDBRANCH  44  54
ENDBRANCH   1  40
TORSDOF 13
ENDMDL