MODEL 4
REMARK VINA RESULT: -6.225722146      2.706      3.983
REMARK  16 active torsions:
REMARK  status: ('A' for Active; 'I' for Inactive)
REMARK    1  A    between atoms: C2_2  and  O2_4
REMARK    2  A    between atoms: O2_4  and  C3_5
REMARK    3  A    between atoms: C3_5  and  N1_6
REMARK    4  A    between atoms: C3_5  and  C4_10
REMARK    5  A    between atoms: C4_10  and  N2_11
REMARK    6  A    between atoms: C4_10  and  C5_15
REMARK    7  A    between atoms: C5_15  and  O4_17
REMARK    8  A    between atoms: O4_17  and  N3_18
REMARK    9  A    between atoms: N4_20  and  O5_22
REMARK   10  A    between atoms: C7_24  and  O6_26
REMARK   11  A    between atoms: N5_28  and  N6_29
REMARK   12  A    between atoms: N6_29  and  N7_31
REMARK   13  A    between atoms: N7_31  and  C9_33
REMARK   14  A    between atoms: C12_36  and  S1_37
REMARK   15  A    between atoms: S1_37  and  N8_40
REMARK       I    between atoms: N8_40  and  C13_42
REMARK   16  A    between atoms: C13_42  and  C14_44
ROOT
HETATM    1  N3  UNL     1      25.217  -6.342 -11.994  1.00  0.00    -0.199 N
HETATM    2  C6  UNL     1      24.643  -7.359 -11.183  1.00  0.00     0.184 C
HETATM    3  N4  UNL     1      24.827  -7.568  -9.916  1.00  0.00    -0.251 N
ATOM      4  H4  UNL     1      24.347  -8.342  -9.457  1.00  0.00     0.195 HD
HETATM    5  C7  UNL     1      23.766  -8.175 -12.056  1.00  0.00     0.210 C
HETATM    6  C8  UNL     1      24.373  -9.555 -12.141  1.00  0.00     0.082 C
HETATM    7  N5  UNL     1      23.851  -7.519 -13.343  1.00  0.00    -0.241 N
HETATM    8  C17 UNL     1      24.311  -6.153 -13.113  1.00  0.00     0.147 C
HETATM    9  C18 UNL     1      23.124  -5.313 -12.693  1.00  0.00     0.067 C
HETATM   10  C19 UNL     1      24.942  -5.537 -14.314  1.00  0.00     0.067 C
ENDROOT
BRANCH   7  11
HETATM   11  N6  UNL     1      23.572  -8.024 -14.610  1.00  0.00    -0.239 N
ATOM     12  H6  UNL     1      24.261  -8.563 -15.134  1.00  0.00     0.208 HD
BRANCH  11  13
HETATM   13  N7  UNL     1      22.402  -7.779 -15.089  1.00  0.00    -0.285 N
ATOM     14  H7  UNL     1      21.763  -7.102 -14.674  1.00  0.00     0.188 HD
BRANCH  13  15
HETATM   15  C9  UNL     1      22.078  -8.543 -16.260  1.00  0.00     0.067 A
HETATM   16  C10 UNL     1      21.811  -9.891 -16.121  1.00  0.00     0.034 A
HETATM   17  C11 UNL     1      21.497 -10.589 -17.291  1.00  0.00     0.027 A
HETATM   18  C12 UNL     1      21.455  -9.971 -18.515  1.00  0.00     0.081 A
HETATM   19  C15 UNL     1      21.726  -8.624 -18.616  1.00  0.00     0.046 A
HETATM   20  C16 UNL     1      22.039  -7.916 -17.475  1.00  0.00     0.040 A
HETATM   21 BR1  UNL     1      22.414  -6.040 -17.635  1.00  0.00    -0.049 Br
BRANCH  18  22
HETATM   22  S1  UNL     1      21.072 -10.831 -19.976  1.00  0.00     0.265 S
HETATM   23  O7  UNL     1      19.596 -10.684 -20.300  1.00  0.00    -0.200 OA
HETATM   24  O8  UNL     1      21.846 -10.229 -21.104  1.00  0.00    -0.200 OA
BRANCH  22  25
HETATM   25  N8  UNL     1      21.448 -12.492 -19.851  1.00  0.00    -0.249 N
HETATM   26  C13 UNL     1      20.563 -13.428 -19.272  1.00  0.00     0.244 C
HETATM   27  O9  UNL     1      19.446 -13.061 -18.820  1.00  0.00    -0.271 OA
ATOM     28  H8  UNL     1      22.346 -12.820 -20.208  1.00  0.00     0.182 HD
BRANCH  26  29
HETATM   29  C14 UNL     1      20.955 -14.875 -19.192  1.00  0.00     0.218 C
HETATM   30 CL1  UNL     1      21.216 -15.314 -17.498  1.00  0.00    -0.121 Cl
ENDBRANCH  26  29
ENDBRANCH  22  25
ENDBRANCH  18  22
ENDBRANCH  13  15
ENDBRANCH  11  13
ENDBRANCH   7  11
BRANCH   5  31
HETATM   31  O6  UNL     1      22.475  -8.243 -11.569  1.00  0.00    -0.363 OA
ATOM     32  H6  UNL     1      21.874  -8.608 -12.207  1.00  0.00     0.213 HD
ENDBRANCH   5  31
BRANCH   1  33
HETATM   33  O4  UNL     1      26.383  -5.687 -11.757  1.00  0.00    -0.191 OA
BRANCH  33  34
HETATM   34  C5  UNL     1      26.472  -4.465 -11.108  1.00  0.00     0.316 C
HETATM   35  O3  UNL     1      25.401  -3.931 -10.727  1.00  0.00    -0.261 OA
BRANCH  34  36
HETATM   36  C4  UNL     1      27.779  -3.852 -10.892  1.00  0.00     0.340 C
BRANCH  36  37
HETATM   37  C3  UNL     1      28.291  -4.015  -9.480  1.00  0.00     0.367 C
BRANCH  37  38
HETATM   38  O2  UNL     1      29.397  -4.894  -9.530  1.00  0.00    -0.285 OA
BRANCH  38  39
HETATM   39  C2  UNL     1      29.353  -6.200  -9.086  1.00  0.00     0.256 C
HETATM   40  C1  UNL     1      30.249  -6.605  -7.983  1.00  0.00     0.126 C
HETATM   41  O1  UNL     1      28.558  -6.997  -9.631  1.00  0.00    -0.266 OA
ENDBRANCH  38  39
ENDBRANCH  37  38
BRANCH  37  42
HETATM   42  N1  UNL     1      27.300  -4.440  -8.549  1.00  0.00    -0.050 N
ATOM     43  H13 UNL     1      26.922  -3.649  -8.027  1.00  0.00     0.277 HD
ATOM     44  H12 UNL     1      26.451  -4.741  -9.027  1.00  0.00     0.277 HD
ATOM     45  H11 UNL     1      27.644  -5.165  -7.919  1.00  0.00     0.277 HD
ENDBRANCH  37  42
ENDBRANCH  36  37
BRANCH  36  46
HETATM   46  N2  UNL     1      28.752  -4.413 -11.812  1.00  0.00    -0.061 N
ATOM     47  H23 UNL     1      29.448  -4.988 -11.340  1.00  0.00     0.275 HD
ATOM     48  H22 UNL     1      28.350  -5.136 -12.409  1.00  0.00     0.275 HD
ATOM     49  H21 UNL     1      29.173  -3.655 -12.350  1.00  0.00     0.275 HD
ENDBRANCH  36  46
ENDBRANCH  34  36
ENDBRANCH  33  34
ENDBRANCH   1  33
BRANCH   3  50
HETATM   50  O5  UNL     1      25.663  -6.758  -9.187  1.00  0.00    -0.288 OA
ATOM     51  H5  UNL     1      26.116  -7.092  -8.422  1.00  0.00     0.244 HD
ENDBRANCH   3  50
TORSDOF 16
ENDMDL