MODEL 1
REMARK VINA RESULT: -6.349463235      0.000      0.000
REMARK  15 active torsions:
REMARK  status: ('A' for Active; 'I' for Inactive)
REMARK    1  A    between atoms: C2_3  and  S1_4
REMARK    2  A    between atoms: C2_3  and  C21_45
REMARK    3  A    between atoms: S1_4  and  S2_5
REMARK    4  A    between atoms: S2_5  and  C3_6
REMARK    5  A    between atoms: C5_10  and  O1_11
REMARK    6  A    between atoms: O1_11  and  C6_12
REMARK    7  A    between atoms: C6_12  and  C7_13
REMARK    8  A    between atoms: C8_14  and  C9_15
REMARK    9  A    between atoms: C9_15  and  O2_16
REMARK   10  A    between atoms: C9_15  and  C10_18
REMARK   11  A    between atoms: N3_20  and  O4_21
REMARK   12  A    between atoms: O4_21  and  C11_22
REMARK   13  A    between atoms: C11_22  and  C12_24
REMARK   14  A    between atoms: N4_33  and  O6_35
REMARK   15  A    between atoms: O6_35  and  C19_36
REMARK       I    between atoms: C19_36  and  N5_38
REMARK       I    between atoms: N5_38  and  C20_40
ROOT
HETATM    1  N1  UNL     1      24.445  -1.218 -16.903  1.00  0.00    -0.195 NA
HETATM    2  C1  UNL     1      24.813  -1.938 -17.723  1.00  0.00     0.086 C
HETATM    3  C2  UNL     1      25.274  -2.856 -18.738  1.00  0.00     0.265 C
ENDROOT
BRANCH   3   4
HETATM    4  S1  UNL     1      25.734  -4.471 -18.057  1.00  0.00    -0.060 SA
BRANCH   4   5
HETATM    5  S2  UNL     1      24.979  -4.741 -16.095  1.00  0.00    -0.034 SA
BRANCH   5   6
HETATM    6  C3  UNL     1      24.286  -6.371 -15.877  1.00  0.00     0.125 C
HETATM    7  N2  UNL     1      25.043  -7.350 -15.627  1.00  0.00    -0.377 N
HETATM    8  C4  UNL     1      24.578  -8.695 -15.438  1.00  0.00     0.176 C
ATOM      9  H2  UNL     1      26.046  -7.175 -15.555  1.00  0.00     0.160 HD
HETATM   10  C5  UNL     1      23.203  -8.734 -14.874  1.00  0.00     0.271 C
HETATM   11  N3  UNL     1      22.358  -7.934 -15.757  1.00  0.00    -0.197 N
HETATM   12  C18 UNL     1      22.848  -6.590 -15.966  1.00  0.00     0.186 C
HETATM   13  N4  UNL     1      22.014  -5.655 -16.224  1.00  0.00    -0.236 N
ATOM     14  H4  UNL     1      21.012  -5.839 -16.279  1.00  0.00     0.197 HD
BRANCH  10  15
HETATM   15  O1  UNL     1      23.076  -8.212 -13.613  1.00  0.00    -0.351 OA
BRANCH  15  16
HETATM   16  C6  UNL     1      23.528  -8.995 -12.594  1.00  0.00     0.264 C
BRANCH  16  17
HETATM   17  C7  UNL     1      24.408  -8.294 -11.667  1.00  0.00    -0.077 C
HETATM   18  C8  UNL     1      25.159  -7.721 -10.901  1.00  0.00    -0.065 C
BRANCH  18  19
HETATM   19  C9  UNL     1      26.062  -7.025 -10.005  1.00  0.00     0.258 C
BRANCH  19  20
HETATM   20  O2  UNL     1      25.927  -5.656 -10.231  1.00  0.00    -0.377 OA
ATOM     21  H2  UNL     1      25.099  -5.376  -9.859  1.00  0.00     0.211 HD
ENDBRANCH  19  20
BRANCH  19  22
HETATM   22  C10 UNL     1      25.801  -7.334  -8.572  1.00  0.00     0.275 C
HETATM   23  O3  UNL     1      25.388  -6.466  -7.843  1.00  0.00    -0.303 OA
ENDBRANCH  19  22
ENDBRANCH  18  19
ENDBRANCH  16  17
ENDBRANCH  15  16
ENDBRANCH  10  15
BRANCH  11  24
HETATM   24  O4  UNL     1      21.224  -8.389 -16.332  1.00  0.00    -0.188 OA
BRANCH  24  25
HETATM   25  C11 UNL     1      21.246  -8.862 -17.631  1.00  0.00     0.318 C
HETATM   26  O5  UNL     1      20.295  -8.564 -18.396  1.00  0.00    -0.257 OA
BRANCH  25  27
HETATM   27  C12 UNL     1      22.316  -9.693 -18.169  1.00  0.00     0.084 A
HETATM   28  C13 UNL     1      22.420 -11.037 -17.879  1.00  0.00     0.052 A
HETATM   29 CL1  UNL     1      21.259 -11.819 -16.843  1.00  0.00    -0.083 Cl
HETATM   30  C14 UNL     1      23.448 -11.817 -18.398  1.00  0.00     0.025 A
HETATM   31  C15 UNL     1      24.395 -11.256 -19.223  1.00  0.00     0.003 A
HETATM   32  C16 UNL     1      24.260  -9.911 -19.491  1.00  0.00     0.025 A
HETATM   33  C17 UNL     1      23.268  -9.111 -19.001  1.00  0.00     0.052 A
HETATM   34 CL2  UNL     1      23.138  -7.410 -19.370  1.00  0.00    -0.083 Cl
ENDBRANCH  25  27
ENDBRANCH  24  25
ENDBRANCH  11  24
BRANCH  13  35
HETATM   35  O6  UNL     1      22.517  -4.397 -16.424  1.00  0.00    -0.179 OA
BRANCH  35  36
HETATM   36  C19 UNL     1      21.638  -3.369 -16.697  1.00  0.00     0.389 C
HETATM   37  O7  UNL     1      20.907  -2.943 -15.772  1.00  0.00    -0.236 OA
HETATM   38  N5  UNL     1      21.548  -2.794 -17.989  1.00  0.00    -0.275 N
HETATM   39  C20 UNL     1      20.638  -1.737 -18.257  1.00  0.00     0.190 C
ATOM     40  H5  UNL     1      22.145  -3.145 -18.739  1.00  0.00     0.173 HD
HETATM   41  N6  UNL     1      20.550  -1.210 -19.425  1.00  0.00    -0.373 N
HETATM   42  N7  UNL     1      19.809  -1.250 -17.217  1.00  0.00    -0.064 NA
ATOM     43  H62 UNL     1      21.147  -1.561 -20.174  1.00  0.00     0.158 HD
ATOM     44  H61 UNL     1      19.896  -0.451 -19.617  1.00  0.00     0.158 HD
ENDBRANCH  35  36
ENDBRANCH  13  35
ENDBRANCH   5   6
ENDBRANCH   4   5
ENDBRANCH   3   4
BRANCH   3  45
HETATM   45  C21 UNL     1      24.300  -3.056 -19.829  1.00  0.00     0.202 C
HETATM   46  O8  UNL     1      23.514  -2.173 -20.205  1.00  0.00    -0.646 OA
HETATM   47  O9  UNL     1      24.283  -4.313 -20.455  1.00  0.00    -0.646 OA
ENDBRANCH   3  45
TORSDOF 15
ENDMDL