MODEL 4
REMARK VINA RESULT: -6.742966000      1.276      2.112
REMARK  13 active torsions:
REMARK  status: ('A' for Active; 'I' for Inactive)
REMARK    1  A    between atoms: C2_2  and  O1_3
REMARK    2  A    between atoms: C2_2  and  C8_20
REMARK    3  A    between atoms: O1_3  and  C3_4
REMARK    4  A    between atoms: C3_4  and  C4_6
REMARK    5  A    between atoms: C4_6  and  S1_7
REMARK    6  A    between atoms: S1_7  and  C5_8
REMARK    7  A    between atoms: C6_10  and  N1_11
REMARK    8  A    between atoms: N1_11  and  N2_13
REMARK    9  A    between atoms: C8_20  and  O4_22
REMARK   10  A    between atoms: O4_22  and  C9_23
REMARK   11  A    between atoms: C12_28  and  N5_29
REMARK   12  A    between atoms: C14_31  and  C15_32
REMARK   13  A    between atoms: C19_41  and  O7_42
ROOT
HETATM    1  O4  UNL     1      23.490  -5.620 -13.654  1.00  0.00    -0.311 OA
ENDROOT
BRANCH   1   2
HETATM    2  C8  UNL     1      23.229  -6.148 -12.421  1.00  0.00     0.288 C
HETATM    3  O3  UNL     1      22.418  -5.556 -11.665  1.00  0.00    -0.262 OA
BRANCH   2   4
HETATM    4  C2  UNL     1      23.859  -7.402 -11.911  1.00  0.00     0.227 C
HETATM    5  C1  UNL     1      23.178  -8.637 -12.410  1.00  0.00     0.051 C
BRANCH   4   6
HETATM    6  O1  UNL     1      23.907  -7.420 -10.502  1.00  0.00    -0.306 OA
BRANCH   6   7
HETATM    7  C3  UNL     1      25.106  -7.654  -9.880  1.00  0.00     0.269 C
HETATM    8  O2  UNL     1      25.116  -8.269  -8.766  1.00  0.00    -0.264 OA
BRANCH   7   9
HETATM    9  C4  UNL     1      26.419  -7.226 -10.435  1.00  0.00     0.191 C
BRANCH   9  10
HETATM   10  S1  UNL     1      27.502  -8.644 -10.742  1.00  0.00    -0.109 SA
BRANCH  10  11
HETATM   11  C5  UNL     1      26.815  -9.701 -12.030  1.00  0.00     0.086 A
HETATM   12  S2  UNL     1      26.944  -9.584 -13.728  1.00  0.00    -0.042 SA
HETATM   13  C6  UNL     1      26.017 -10.952 -14.141  1.00  0.00     0.165 A
HETATM   14  N3  UNL     1      25.649 -11.439 -12.955  1.00  0.00    -0.322 N
HETATM   15  C7  UNL     1      26.041 -10.822 -11.880  1.00  0.00     0.142 A
ATOM     16  H3  UNL     1      25.072 -12.279 -12.893  1.00  0.00     0.169 HD
HETATM   17  N4  UNL     1      25.685 -11.283 -10.539  1.00  0.00    -0.081 NA
BRANCH  13  18
HETATM   18  N1  UNL     1      25.731 -11.420 -15.337  1.00  0.00    -0.286 N
ATOM     19  H1  UNL     1      25.476 -10.779 -16.088  1.00  0.00     0.188 HD
BRANCH  18  20
HETATM   20  N2  UNL     1      25.776 -12.776 -15.576  1.00  0.00    -0.343 N
ATOM     21  H22 UNL     1      25.390 -13.414 -14.880  1.00  0.00     0.176 HD
ATOM     22  H21 UNL     1      26.191 -13.129 -16.438  1.00  0.00     0.176 HD
ENDBRANCH  18  20
ENDBRANCH  13  18
ENDBRANCH  10  11
ENDBRANCH   9  10
ENDBRANCH   7   9
ENDBRANCH   6   7
ENDBRANCH   4   6
ENDBRANCH   2   4
ENDBRANCH   1   2
BRANCH   1  23
HETATM   23  C9  UNL     1      22.488  -5.340 -14.639  1.00  0.00     0.165 C
HETATM   24  C10 UNL     1      22.113  -6.625 -15.273  1.00  0.00     0.066 C
HETATM   25  C11 UNL     1      23.057  -7.171 -16.296  1.00  0.00     0.148 C
HETATM   26 CL1  UNL     1      24.666  -7.503 -15.692  1.00  0.00    -0.114 Cl
HETATM   27  S3  UNL     1      23.077  -5.954 -17.674  1.00  0.00    -0.120 SA
HETATM   28  C12 UNL     1      22.334  -4.458 -16.914  1.00  0.00     0.188 C
HETATM   29  C19 UNL     1      23.006  -4.290 -15.598  1.00  0.00     0.181 C
BRANCH  28  30
HETATM   30  N5  UNL     1      22.346  -3.327 -17.788  1.00  0.00    -0.292 N
HETATM   31  C13 UNL     1      23.351  -3.219 -18.670  1.00  0.00     0.114 A
HETATM   32  C14 UNL     1      23.488  -2.169 -19.582  1.00  0.00     0.048 A
HETATM   33  C17 UNL     1      22.521  -1.206 -19.547  1.00  0.00     0.261 A
HETATM   34  O5  UNL     1      22.537  -0.217 -20.315  1.00  0.00    -0.267 OA
HETATM   35  N6  UNL     1      21.519  -1.345 -18.645  1.00  0.00    -0.275 N
HETATM   36  C18 UNL     1      21.428  -2.369 -17.790  1.00  0.00     0.330 A
ATOM     37  H6  UNL     1      20.794  -0.627 -18.616  1.00  0.00     0.173 HD
HETATM   38  O6  UNL     1      20.472  -2.428 -16.982  1.00  0.00    -0.246 OA
BRANCH  32  39
HETATM   39  C15 UNL     1      24.633  -2.187 -20.478  1.00  0.00     0.026 C
HETATM   40  C16 UNL     1      25.847  -1.910 -20.166  1.00  0.00     0.057 C
HETATM   41 BR1  UNL     1      27.219  -2.002 -21.533  1.00  0.00    -0.064 Br
ENDBRANCH  32  39
ENDBRANCH  28  30
BRANCH  29  42
HETATM   42  O7  UNL     1      22.737  -3.024 -15.103  1.00  0.00    -0.390 OA
ATOM     43  H7  UNL     1      21.855  -2.763 -15.342  1.00  0.00     0.210 HD
ENDBRANCH  29  42
ENDBRANCH   1  23
TORSDOF 13
ENDMDL