MODEL 2
REMARK VINA RESULT: -6.583145039      3.500      6.513
REMARK  12 active torsions:
REMARK  status: ('A' for Active; 'I' for Inactive)
REMARK    1  A    between atoms: O1_2  and  C2_3
REMARK    2  A    between atoms: C2_3  and  C3_5
REMARK    3  A    between atoms: C5_12  and  O4_13
REMARK    4  A    between atoms: C5_12  and  C6_15
REMARK    5  A    between atoms: C8_21  and  N4_22
REMARK    6  A    between atoms: N4_22  and  C9_24
REMARK    7  A    between atoms: C11_26  and  S2_27
REMARK    8  A    between atoms: S2_27  and  O8_30
REMARK    9  A    between atoms: C14_35  and  S3_36
REMARK   10  A    between atoms: S3_36  and  C15_37
REMARK   11  A    between atoms: C15_37  and  C16_38
REMARK       I    between atoms: C16_38  and  N6_40
REMARK   12  A    between atoms: N6_40  and  N7_42
ROOT
HETATM    1  N4  UNL     1      22.480  -8.898 -16.002  1.00  0.00    -0.341 N
ATOM      2  H4  UNL     1      21.479  -8.748 -15.876  1.00  0.00     0.167 HD
ENDROOT
BRANCH   1   3
HETATM    3  C8  UNL     1      22.931  -9.050 -17.340  1.00  0.00     0.127 A
HETATM    4  C6  UNL     1      23.554  -7.968 -17.971  1.00  0.00     0.093 A
HETATM    5  S1  UNL     1      23.959  -8.647 -19.487  1.00  0.00    -0.025 SA
HETATM    6  C7  UNL     1      23.343 -10.224 -19.270  1.00  0.00     0.290 A
HETATM    7  O5  UNL     1      23.346 -11.222 -20.079  1.00  0.00    -0.260 OA
HETATM    8  N3  UNL     1      22.854 -10.154 -18.034  1.00  0.00    -0.302 N
ATOM      9  H3  UNL     1      22.412 -10.976 -17.623  1.00  0.00     0.171 HD
BRANCH   4  10
HETATM   10  C5  UNL     1      23.830  -6.589 -17.565  1.00  0.00     0.244 C
HETATM   11  N2  UNL     1      24.925  -6.451 -16.615  1.00  0.00    -0.301 N
HETATM   12  C4  UNL     1      25.379  -5.081 -16.483  1.00  0.00     0.319 C
ATOM     13  H2  UNL     1      25.329  -7.233 -16.098  1.00  0.00     0.167 HD
HETATM   14  N1  UNL     1      24.623  -4.132 -17.221  1.00  0.00    -0.324 N
HETATM   15  O3  UNL     1      26.353  -4.786 -15.774  1.00  0.00    -0.247 OA
HETATM   16  C3  UNL     1      23.186  -4.250 -17.450  1.00  0.00     0.264 C
ATOM     17  H1  UNL     1      25.111  -3.326 -17.611  1.00  0.00     0.165 HD
HETATM   18  C19 UNL     1      22.717  -5.702 -17.196  1.00  0.00     0.327 C
HETATM   19  F1  UNL     1      22.359  -5.674 -15.861  1.00  0.00    -0.198 F
HETATM   20  F2  UNL     1      21.602  -5.857 -18.011  1.00  0.00    -0.198 F
BRANCH  16  21
HETATM   21  C2  UNL     1      22.570  -3.346 -16.425  1.00  0.00     0.287 C
HETATM   22  O2  UNL     1      23.154  -2.936 -15.397  1.00  0.00    -0.263 OA
BRANCH  21  23
HETATM   23  O1  UNL     1      21.255  -2.931 -16.622  1.00  0.00    -0.325 OA
HETATM   24  C1  UNL     1      20.778  -2.360 -17.820  1.00  0.00     0.213 C
ENDBRANCH  21  23
ENDBRANCH  16  21
BRANCH  10  25
HETATM   25  O4  UNL     1      24.385  -5.956 -18.747  1.00  0.00    -0.361 OA
ATOM     26  H4  UNL     1      24.427  -6.686 -19.354  1.00  0.00     0.213 HD
ENDBRANCH  10  25
ENDBRANCH   4  10
ENDBRANCH   1   3
BRANCH   1  27
HETATM   27  C9  UNL     1      23.256  -8.932 -14.833  1.00  0.00     0.036 A
HETATM   28  C10 UNL     1      23.188  -8.090 -13.755  1.00  0.00     0.057 A
HETATM   29  C11 UNL     1      23.961  -8.166 -12.623  1.00  0.00     0.116 A
HETATM   30  C13 UNL     1      24.926  -9.176 -12.509  1.00  0.00     0.075 A
HETATM   31  N5  UNL     1      25.735  -9.360 -11.498  1.00  0.00    -0.343 N
HETATM   32  C17 UNL     1      25.030 -10.035 -13.564  1.00  0.00     0.038 A
HETATM   33  C14 UNL     1      26.615 -10.352 -11.526  1.00  0.00     0.113 A
ATOM     34  H5  UNL     1      25.690  -8.741 -10.689  1.00  0.00     0.167 HD
HETATM   35  S4  UNL     1      26.297 -11.064 -13.042  1.00  0.00    -0.063 SA
HETATM   36  C18 UNL     1      24.242  -9.939 -14.687  1.00  0.00     0.051 A
BRANCH  29  37
HETATM   37  S2  UNL     1      23.718  -6.957 -11.388  1.00  0.00     0.300 S
HETATM   38  O6  UNL     1      24.998  -6.244 -11.069  1.00  0.00    -0.193 OA
HETATM   39  O7  UNL     1      23.289  -7.651 -10.111  1.00  0.00    -0.193 OA
BRANCH  37  40
HETATM   40  O8  UNL     1      22.513  -5.894 -11.825  1.00  0.00    -0.277 OA
HETATM   41  C12 UNL     1      23.091  -4.807 -12.475  1.00  0.00     0.225 C
ENDBRANCH  37  40
ENDBRANCH  29  37
BRANCH  33  42
HETATM   42  S3  UNL     1      27.787 -10.832 -10.247  1.00  0.00    -0.095 SA
BRANCH  42  43
HETATM   43  C15 UNL     1      27.279 -10.211  -8.629  1.00  0.00     0.185 C
BRANCH  43  44
HETATM   44  C16 UNL     1      26.837  -8.807  -8.630  1.00  0.00     0.245 C
HETATM   45  O9  UNL     1      27.521  -7.921  -9.184  1.00  0.00    -0.271 OA
HETATM   46  N6  UNL     1      25.622  -8.461  -7.993  1.00  0.00    -0.276 N
ATOM     47  H6  UNL     1      25.069  -9.189  -7.541  1.00  0.00     0.189 HD
BRANCH  46  48
HETATM   48  N7  UNL     1      25.158  -7.124  -7.971  1.00  0.00    -0.343 N
ATOM     49  H72 UNL     1      25.028  -6.641  -8.860  1.00  0.00     0.176 HD
ATOM     50  H71 UNL     1      24.957  -6.647  -7.092  1.00  0.00     0.176 HD
ENDBRANCH  46  48
ENDBRANCH  43  44
ENDBRANCH  42  43
ENDBRANCH  33  42
ENDBRANCH   1  27
TORSDOF 12
ENDMDL