MODEL 2
REMARK VINA RESULT: -8.106437380      0.870      1.011
REMARK  4 active torsions:
REMARK  status: ('A' for Active; 'I' for Inactive)
REMARK       I    between atoms: C1_2  and  N1_3
REMARK    1  A    between atoms: C1_2  and  C6_16
REMARK    2  A    between atoms: N1_3  and  C2_5
REMARK    3  A    between atoms: C4_8  and  N2_9
REMARK    4  A    between atoms: C5_12  and  N3_13
ROOT
HETATM    1  C2  UNL     1     -43.569  31.014  -0.573  1.00  0.00     0.112 A
HETATM    2  S1  UNL     1     -44.643  31.958   0.340  1.00  0.00    -0.079 SA
HETATM    3  C3  UNL     1     -44.100  33.509  -0.105  1.00  0.00     0.090 A
HETATM    4  C4  UNL     1     -43.071  33.244  -0.977  1.00  0.00     0.145 A
HETATM    5  C5  UNL     1     -42.798  31.941  -1.217  1.00  0.00     0.170 A
ENDROOT
BRANCH   1   6
HETATM    6  N1  UNL     1     -43.492  29.586  -0.638  1.00  0.00    -0.319 N
HETATM    7  C1  UNL     1     -44.278  28.905  -1.619  1.00  0.00     0.226 C
HETATM    8  O1  UNL     1     -45.004  29.556  -2.380  1.00  0.00    -0.273 OA
ATOM      9  H1  UNL     1     -42.889  29.066  -0.000  1.00  0.00     0.169 HD
BRANCH   7  10
HETATM   10  C6  UNL     1     -44.227  27.416  -1.731  1.00  0.00     0.078 C
HETATM   11  C7  UNL     1     -42.844  26.924  -2.016  1.00  0.00     0.014 C
HETATM   12  C8  UNL     1     -41.974  26.778  -0.799  1.00  0.00     0.001 C
HETATM   13  C9  UNL     1     -42.310  25.611   0.066  1.00  0.00     0.000 C
HETATM   14  C10 UNL     1     -43.397  24.736  -0.485  1.00  0.00     0.000 C
HETATM   15  C11 UNL     1     -44.750  25.354  -0.515  1.00  0.00     0.001 C
HETATM   16  C12 UNL     1     -44.781  26.841  -0.447  1.00  0.00     0.014 C
ENDBRANCH   7  10
ENDBRANCH   1   6
BRANCH   5  17
HETATM   17  N3  UNL     1     -41.729  31.484  -2.098  1.00  0.00    -0.110 N
HETATM   18  O4  UNL     1     -42.030  31.035  -3.227  1.00  0.00    -0.532 OA
HETATM   19  O5  UNL     1     -40.413  31.537  -1.718  1.00  0.00    -0.532 OA
ENDBRANCH   5  17
BRANCH   4  20
HETATM   20  N2  UNL     1     -42.363  34.358  -1.587  1.00  0.00    -0.113 N
HETATM   21  O2  UNL     1     -42.935  35.044  -2.425  1.00  0.00    -0.532 OA
HETATM   22  O3  UNL     1     -41.081  34.600  -1.210  1.00  0.00    -0.532 OA
ENDBRANCH   4  20
TORSDOF 4
ENDMDL