MODEL 4
REMARK VINA RESULT: -8.087260765      2.989      6.812
REMARK  6 active torsions:
REMARK  status: ('A' for Active; 'I' for Inactive)
REMARK    1  A    between atoms: C3_3  and  C4_4
REMARK    2  A    between atoms: C6_8  and  O3_9
REMARK    3  A    between atoms: C7_11  and  C8_12
REMARK    4  A    between atoms: C8_12  and  C9_13
REMARK    5  A    between atoms: C14_18  and  O4_19
REMARK    6  A    between atoms: O4_19  and  C15_20
ROOT
HETATM    1  C4  UNL     1     -41.271  31.411  -2.229  1.00  0.00     0.327 C
HETATM    2  O1  UNL     1     -40.822  32.281  -3.245  1.00  0.00    -0.198 OA
HETATM    3  O2  UNL     1     -41.962  32.766  -3.804  1.00  0.00    -0.189 OA
HETATM    4  C5  UNL     1     -42.810  33.439  -2.939  1.00  0.00     0.176 A
HETATM    5  C6  UNL     1     -43.755  34.365  -3.384  1.00  0.00     0.111 A
HETATM    6  C7  UNL     1     -44.589  35.022  -2.513  1.00  0.00    -0.016 A
HETATM    7  C13 UNL     1     -44.475  34.743  -1.142  1.00  0.00     0.050 A
HETATM    8  C14 UNL     1     -43.541  33.830  -0.710  1.00  0.00     0.116 A
HETATM    9  C17 UNL     1     -42.728  33.191  -1.593  1.00  0.00     0.145 A
HETATM   10  O6  UNL     1     -41.762  32.250  -1.192  1.00  0.00    -0.308 OA
ENDROOT
BRANCH   6  11
HETATM   11  C8  UNL     1     -45.607  36.016  -2.959  1.00  0.00     0.069 C
BRANCH  11  12
HETATM   12  C9  UNL     1     -46.951  35.665  -2.468  1.00  0.00    -0.020 C
HETATM   13  C10 UNL     1     -47.810  34.964  -3.166  1.00  0.00    -0.091 C
HETATM   14  C11 UNL     1     -47.487  34.467  -4.519  1.00  0.00     0.042 C
HETATM   15  C12 UNL     1     -49.169  34.638  -2.596  1.00  0.00     0.042 C
ENDBRANCH  11  12
ENDBRANCH   6  11
BRANCH   5  16
HETATM   16  O3  UNL     1     -43.814  34.593  -4.736  1.00  0.00    -0.357 OA
ATOM     17  H3  UNL     1     -44.571  35.065  -5.061  1.00  0.00     0.217 HD
ENDBRANCH   5  16
BRANCH   8  18
HETATM   18  O4  UNL     1     -43.408  33.533   0.660  1.00  0.00    -0.276 OA
BRANCH  18  19
HETATM   19  C15 UNL     1     -44.481  33.062   1.408  1.00  0.00     0.260 C
HETATM   20  C16 UNL     1     -44.776  33.486   2.779  1.00  0.00     0.126 C
HETATM   21  O5  UNL     1     -45.228  32.225   0.851  1.00  0.00    -0.265 OA
ENDBRANCH  18  19
ENDBRANCH   8  18
BRANCH   1  22
HETATM   22  C3  UNL     1     -40.119  30.605  -1.799  1.00  0.00     0.032 C
HETATM   23  C2  UNL     1     -40.289  29.319  -1.554  1.00  0.00    -0.030 C
HETATM   24  C1  UNL     1     -41.605  28.671  -1.703  1.00  0.00     0.036 C
ENDBRANCH   1  22
TORSDOF 6
ENDMDL