MODEL 4
REMARK VINA RESULT: -7.212086747      2.101      3.320
REMARK  7 active torsions:
REMARK  status: ('A' for Active; 'I' for Inactive)
REMARK    1  A    between atoms: C2_2  and  O2_4
REMARK    2  A    between atoms: O2_4  and  N1_5
REMARK    3  A    between atoms: C3_7  and  C4_8
REMARK    4  A    between atoms: C3_7  and  C12_20
REMARK    5  A    between atoms: C4_8  and  C5_9
REMARK    6  A    between atoms: C8_13  and  C9_14
REMARK    7  A    between atoms: C11_17  and  O4_18
ROOT
HETATM    1  C4  UNL     1     -44.643  29.938  -2.628  1.00  0.00     0.104 C
ENDROOT
BRANCH   1   2
HETATM    2  C3  UNL     1     -44.550  31.051  -1.686  1.00  0.00     0.023 C
HETATM    3  N1  UNL     1     -43.367  31.345  -1.321  1.00  0.00    -0.265 N
ATOM      4  H1  UNL     1     -42.679  30.734  -1.762  1.00  0.00     0.194 HD
BRANCH   3   5
HETATM    5  O2  UNL     1     -42.792  32.220  -0.531  1.00  0.00    -0.200 OA
BRANCH   5   6
HETATM    6  C2  UNL     1     -41.975  33.201  -1.089  1.00  0.00     0.277 C
HETATM    7  C1  UNL     1     -42.405  34.290  -1.963  1.00  0.00     0.128 C
HETATM    8  O1  UNL     1     -40.742  33.146  -0.815  1.00  0.00    -0.264 OA
ENDBRANCH   5   6
ENDBRANCH   3   5
BRANCH   2   9
HETATM    9  C12 UNL     1     -45.698  31.783  -1.177  1.00  0.00    -0.010 C
HETATM   10  C13 UNL     1     -45.822  33.125  -1.977  1.00  0.00     0.021 C
HETATM   11  C14 UNL     1     -45.572  32.207   0.253  1.00  0.00     0.021 C
HETATM   12  C15 UNL     1     -47.026  31.096  -1.435  1.00  0.00     0.021 C
ENDBRANCH   2   9
ENDBRANCH   1   2
BRANCH   1  13
HETATM   13  C5  UNL     1     -44.525  28.582  -1.984  1.00  0.00     0.022 A
HETATM   14  S1  UNL     1     -45.713  27.466  -1.510  1.00  0.00    -0.095 SA
HETATM   15  C6  UNL     1     -44.717  26.202  -0.965  1.00  0.00    -0.004 A
HETATM   16  C7  UNL     1     -45.181  24.886  -0.388  1.00  0.00     0.057 C
HETATM   17  C8  UNL     1     -43.446  26.687  -1.170  1.00  0.00     0.056 A
HETATM   18  C11 UNL     1     -43.354  27.921  -1.698  1.00  0.00     0.094 A
BRANCH  17  19
HETATM   19  C9  UNL     1     -42.293  25.827  -0.833  1.00  0.00     0.159 C
HETATM   20  C10 UNL     1     -41.495  25.210  -1.898  1.00  0.00     0.097 C
HETATM   21  O3  UNL     1     -41.979  25.611   0.344  1.00  0.00    -0.293 OA
ENDBRANCH  17  19
BRANCH  18  22
HETATM   22  O4  UNL     1     -42.102  28.549  -1.962  1.00  0.00    -0.359 OA
ATOM     23  H4  UNL     1     -41.302  28.180  -1.605  1.00  0.00     0.217 HD
ENDBRANCH  18  22
ENDBRANCH   1  13
TORSDOF 7
ENDMDL