MODEL 3
REMARK VINA RESULT: -6.943751528      1.376      3.115
REMARK  4 active torsions:
REMARK  status: ('A' for Active; 'I' for Inactive)
REMARK    1  A    between atoms: O1_2  and  C2_3
REMARK    2  A    between atoms: C2_3  and  S1_4
REMARK    3  A    between atoms: S1_4  and  C3_5
REMARK    4  A    between atoms: C8_16  and  C9_17
ROOT
HETATM    1  C3  UNL     1     -41.684  25.913  -1.312  1.00  0.00     0.176 A
HETATM    2  N1  UNL     1     -40.577  26.607  -1.635  1.00  0.00    -0.167 N
ATOM      3  H1  UNL     1     -39.678  26.200  -1.889  1.00  0.00     0.186 HD
HETATM    4  C4  UNL     1     -40.848  27.928  -1.570  1.00  0.00     0.703 A
HETATM    5  N2  UNL     1     -42.113  28.058  -1.206  1.00  0.00    -0.097 N
HETATM    6  N3  UNL     1     -42.626  26.826  -1.049  1.00  0.00    -0.261 N
ATOM      7  H3  UNL     1     -43.586  26.619  -0.772  1.00  0.00     0.190 HD
HETATM    8  C5  UNL     1     -42.800  29.295  -0.976  1.00  0.00     0.168 C
HETATM    9  C6  UNL     1     -43.152  29.255   0.532  1.00  0.00     0.059 C
HETATM   10  C7  UNL     1     -44.093  29.311  -1.690  1.00  0.00     0.094 C
HETATM   11  N4  UNL     1     -45.127  29.309  -2.239  1.00  0.00    -0.194 NA
HETATM   12  C8  UNL     1     -42.049  30.488  -1.341  1.00  0.00     0.105 C
HETATM   13  C14 UNL     1     -40.666  30.281  -1.721  1.00  0.00     0.012 C
HETATM   14  C15 UNL     1     -39.727  31.420  -2.030  1.00  0.00     0.064 C
HETATM   15  N5  UNL     1     -40.135  29.129  -1.823  1.00  0.00    -0.197 N
ATOM     16  H5  UNL     1     -39.155  29.067  -2.100  1.00  0.00     0.183 HD
ENDROOT
BRANCH  12  17
HETATM   17  C9  UNL     1     -42.766  31.387  -2.304  1.00  0.00    -0.069 C
HETATM   18  C10 UNL     1     -42.728  31.123  -3.779  1.00  0.00     0.044 C
HETATM   19  C11 UNL     1     -43.456  32.455  -1.935  1.00  0.00    -0.085 C
HETATM   20  C12 UNL     1     -44.162  33.334  -2.893  1.00  0.00     0.043 C
HETATM   21  C13 UNL     1     -43.518  32.791  -0.488  1.00  0.00     0.043 C
ENDBRANCH  12  17
BRANCH   1  22
HETATM   22  S1  UNL     1     -41.890  24.132  -1.236  1.00  0.00    -0.066 SA
BRANCH  22  23
HETATM   23  C2  UNL     1     -43.185  23.707  -0.035  1.00  0.00     0.249 C
BRANCH  23  24
HETATM   24  O1  UNL     1     -43.232  22.306   0.153  1.00  0.00    -0.386 OA
HETATM   25  C1  UNL     1     -42.451  22.044   1.289  1.00  0.00     0.202 C
ENDBRANCH  23  24
ENDBRANCH  22  23
ENDBRANCH   1  22
TORSDOF 4
ENDMDL