MODEL 4
REMARK VINA RESULT: -7.314800706      0.984      1.061
REMARK  5 active torsions:
REMARK  status: ('A' for Active; 'I' for Inactive)
REMARK    1  A    between atoms: C2_2  and  C3_3
REMARK    2  A    between atoms: N2_6  and  C5_8
REMARK    3  A    between atoms: C6_9  and  N3_10
REMARK    4  A    between atoms: C14_18  and  C15_19
REMARK    5  A    between atoms: C18_23  and  O2_24
ROOT
HETATM    1  C3  UNL     1     -42.259  29.816  -1.422  1.00  0.00     0.175 C
HETATM    2  C4  UNL     1     -42.586  31.249  -1.247  1.00  0.00     0.064 C
HETATM    3  N1  UNL     1     -42.825  32.377  -1.095  1.00  0.00    -0.197 NA
ENDROOT
BRANCH   1   4
HETATM    4  C2  UNL     1     -42.448  29.412  -2.831  1.00  0.00    -0.004 C
HETATM    5  C1  UNL     1     -41.918  30.284  -3.903  1.00  0.00     0.064 C
HETATM    6  N2  UNL     1     -43.051  28.328  -3.169  1.00  0.00    -0.359 N
ATOM      7  H2  UNL     1     -43.140  28.121  -4.164  1.00  0.00     0.165 HD
BRANCH   6   8
HETATM    8  C5  UNL     1     -43.599  27.405  -2.246  1.00  0.00     0.093 A
HETATM    9  C6  UNL     1     -44.918  27.511  -1.893  1.00  0.00     0.060 A
HETATM   10  C12 UNL     1     -45.423  26.584  -1.009  1.00  0.00     0.032 A
HETATM   11  C13 UNL     1     -44.641  25.559  -0.477  1.00  0.00     0.015 A
HETATM   12  C14 UNL     1     -43.323  25.442  -0.822  1.00  0.00     0.006 A
HETATM   13  C18 UNL     1     -42.788  26.385  -1.726  1.00  0.00     0.103 A
BRANCH   9  14
HETATM   14  N3  UNL     1     -45.784  28.513  -2.381  1.00  0.00    -0.379 N
HETATM   15  C7  UNL     1     -46.495  28.331  -3.606  1.00  0.00     0.123 C
HETATM   16  C8  UNL     1     -47.469  29.464  -3.874  1.00  0.00     0.020 C
HETATM   17  C9  UNL     1     -48.219  29.890  -2.646  1.00  0.00     0.003 C
HETATM   18  C10 UNL     1     -47.433  29.887  -1.375  1.00  0.00     0.020 C
HETATM   19  C11 UNL     1     -45.974  29.758  -1.658  1.00  0.00     0.123 C
ENDBRANCH   9  14
BRANCH  12  20
HETATM   20  C15 UNL     1     -42.382  24.431  -0.298  1.00  0.00     0.159 C
HETATM   21  C16 UNL     1     -42.942  23.044  -0.289  1.00  0.00     0.063 C
HETATM   22  C17 UNL     1     -42.246  23.035   1.047  1.00  0.00     0.171 C
HETATM   23  O1  UNL     1     -42.341  24.406   1.113  1.00  0.00    -0.381 OA
ENDBRANCH  12  20
BRANCH  13  24
HETATM   24  O2  UNL     1     -41.504  26.265  -2.052  1.00  0.00    -0.358 OA
ATOM     25  H2  UNL     1     -41.041  25.438  -1.987  1.00  0.00     0.217 HD
ENDBRANCH  13  24
ENDBRANCH   6   8
ENDBRANCH   1   4
TORSDOF 5
ENDMDL