MODEL 3
REMARK VINA RESULT: -7.730287048      0.752      2.020
REMARK  6 active torsions:
REMARK  status: ('A' for Active; 'I' for Inactive)
REMARK    1  A    between atoms: C2_4  and  C4_7
REMARK    2  A    between atoms: C6_9  and  C7_10
REMARK    3  A    between atoms: C7_10  and  O2_11
REMARK    4  A    between atoms: C9_13  and  C11_15
REMARK    5  A    between atoms: C13_18  and  C14_19
REMARK    6  A    between atoms: C18_23  and  O4_24
ROOT
HETATM    1  C1  UNL     1     -42.533  32.882  -0.788  1.00  0.00     0.148 C
HETATM    2  N1  UNL     1     -43.383  31.745  -0.942  1.00  0.00    -0.374 N
ATOM      3  H1  UNL     1     -44.376  31.846  -0.736  1.00  0.00     0.161 HD
HETATM    4  C2  UNL     1     -42.927  30.546  -1.347  1.00  0.00     0.150 C
HETATM    5  O1  UNL     1     -41.655  30.613  -1.558  1.00  0.00    -0.340 OA
HETATM    6  C3  UNL     1     -40.389  30.677  -1.768  1.00  0.00     0.211 C
ENDROOT
BRANCH   4   7
HETATM    7  C4  UNL     1     -43.946  29.503  -1.443  1.00  0.00     0.049 A
HETATM    8  C5  UNL     1     -43.617  28.234  -0.954  1.00  0.00     0.033 A
HETATM    9  C6  UNL     1     -44.475  27.162  -0.979  1.00  0.00    -0.001 A
HETATM   10  C12 UNL     1     -45.745  27.376  -1.532  1.00  0.00     0.025 A
HETATM   11  C13 UNL     1     -46.118  28.590  -2.022  1.00  0.00    -0.015 A
HETATM   12  C18 UNL     1     -45.194  29.639  -1.964  1.00  0.00     0.087 A
BRANCH   9  13
HETATM   13  C7  UNL     1     -44.151  25.856  -0.460  1.00  0.00     0.087 C
HETATM   14  C9  UNL     1     -43.043  25.219  -0.679  1.00  0.00     0.010 C
HETATM   15  C10 UNL     1     -42.928  23.832  -0.024  1.00  0.00     0.054 C
BRANCH  13  16
HETATM   16  O2  UNL     1     -45.173  25.287   0.345  1.00  0.00    -0.354 OA
HETATM   17  C8  UNL     1     -46.269  24.626  -0.244  1.00  0.00     0.210 C
ENDBRANCH  13  16
BRANCH  14  18
HETATM   18  C11 UNL     1     -41.881  25.665  -1.389  1.00  0.00     0.268 C
HETATM   19  O3  UNL     1     -40.822  25.052  -1.582  1.00  0.00    -0.302 OA
ENDBRANCH  14  18
ENDBRANCH   9  13
BRANCH  11  20
HETATM   20  C14 UNL     1     -47.452  28.746  -2.585  1.00  0.00    -0.021 C
HETATM   21  C15 UNL     1     -48.168  27.409  -2.461  1.00  0.00     0.019 C
HETATM   22  C16 UNL     1     -48.312  29.779  -1.933  1.00  0.00     0.019 C
HETATM   23  C17 UNL     1     -47.372  29.068  -4.053  1.00  0.00     0.019 C
ENDBRANCH  11  20
BRANCH  12  24
HETATM   24  O4  UNL     1     -45.635  30.803  -2.468  1.00  0.00    -0.359 OA
ATOM     25  H4  UNL     1     -45.338  31.643  -2.137  1.00  0.00     0.217 HD
ENDBRANCH  12  24
ENDBRANCH   4   7
TORSDOF 6
ENDMDL