MODEL 4
REMARK VINA RESULT: -8.167234466      1.541      1.914
REMARK  4 active torsions:
REMARK  status: ('A' for Active; 'I' for Inactive)
REMARK    1  A    between atoms: C4_4  and  C5_5
REMARK    2  A    between atoms: C5_5  and  S1_10
REMARK    3  A    between atoms: S1_10  and  C8_11
REMARK    4  A    between atoms: C11_14  and  N3_15
ROOT
HETATM    1  C5  UNL     1     -43.227  32.065  -1.769  1.00  0.00     0.213 C
HETATM    2  C6  UNL     1     -42.882  31.161  -2.852  1.00  0.00     0.101 C
HETATM    3  N1  UNL     1     -42.599  30.452  -3.725  1.00  0.00    -0.194 NA
HETATM    4  C7  UNL     1     -42.040  32.711  -1.236  1.00  0.00     0.101 C
HETATM    5  N2  UNL     1     -41.104  33.220  -0.812  1.00  0.00    -0.194 NA
ENDROOT
BRANCH   1   6
HETATM    6  C4  UNL     1     -44.230  33.047  -2.240  1.00  0.00    -0.033 C
HETATM    7  C3  UNL     1     -43.868  34.178  -2.811  1.00  0.00     0.012 C
HETATM    8  C2  UNL     1     -44.963  35.090  -3.245  1.00  0.00     0.205 C
HETATM    9  C1  UNL     1     -44.465  36.427  -3.685  1.00  0.00     0.044 C
HETATM   10  N4  UNL     1     -45.836  35.198  -2.068  1.00  0.00    -0.068 N
HETATM   11  C15 UNL     1     -46.562  33.948  -2.004  1.00  0.00     0.237 C
ATOM     12  H42 UNL     1     -45.338  35.426  -1.208  1.00  0.00     0.277 HD
ATOM     13  H41 UNL     1     -46.439  36.020  -2.080  1.00  0.00     0.277 HD
HETATM   14  C14 UNL     1     -45.669  32.755  -2.074  1.00  0.00     0.065 C
ENDBRANCH   1   6
BRANCH   1  15
HETATM   15  S1  UNL     1     -43.977  31.044  -0.445  1.00  0.00    -0.085 SA
BRANCH  15  16
HETATM   16  C8  UNL     1     -43.487  29.355  -0.586  1.00  0.00     0.003 A
HETATM   17  C9  UNL     1     -42.181  28.999  -0.296  1.00  0.00     0.021 A
HETATM   18  C10 UNL     1     -41.780  27.700  -0.397  1.00  0.00     0.037 A
HETATM   19  C11 UNL     1     -42.658  26.730  -0.785  1.00  0.00     0.102 A
HETATM   20  C12 UNL     1     -43.958  27.074  -1.075  1.00  0.00     0.037 A
HETATM   21  C13 UNL     1     -44.394  28.392  -0.980  1.00  0.00     0.021 A
BRANCH  19  22
HETATM   22  N3  UNL     1     -42.214  25.364  -0.886  1.00  0.00    -0.116 N
HETATM   23  O1  UNL     1     -41.139  25.106  -1.449  1.00  0.00    -0.532 OA
HETATM   24  O2  UNL     1     -42.971  24.353  -0.362  1.00  0.00    -0.532 OA
ENDBRANCH  19  22
ENDBRANCH  15  16
ENDBRANCH   1  15
TORSDOF 4
ENDMDL