MODEL 4
REMARK VINA RESULT: -7.808325714      1.392      2.005
REMARK  4 active torsions:
REMARK  status: ('A' for Active; 'I' for Inactive)
REMARK    1  A    between atoms: C4_5  and  N2_6
REMARK    2  A    between atoms: C5_8  and  C6_9
REMARK    3  A    between atoms: C5_8  and  N4_19
REMARK    4  A    between atoms: C6_9  and  N3_16
ROOT
HETATM    1  N2  UNL     1     -43.205  28.763  -0.502  1.00  0.00    -0.336 N
ATOM      2  H2  UNL     1     -43.407  29.340   0.314  1.00  0.00     0.168 HD
HETATM    3  C5  UNL     1     -42.831  29.320  -1.583  1.00  0.00     0.209 C
ENDROOT
BRANCH   3   4
HETATM    4  C6  UNL     1     -42.691  30.751  -1.670  1.00  0.00     0.169 C
HETATM    5  C7  UNL     1     -43.541  31.670  -1.330  1.00  0.00     0.037 C
HETATM    6  C8  UNL     1     -44.864  31.436  -0.772  1.00  0.00     0.017 C
HETATM    7  S1  UNL     1     -43.087  33.407  -1.530  1.00  0.00    -0.127 SA
HETATM    8  C9  UNL     1     -45.277  32.187   0.252  1.00  0.00    -0.024 C
HETATM    9  C10 UNL     1     -44.436  33.244   0.834  1.00  0.00     0.037 C
HETATM   10  C11 UNL     1     -43.985  34.284  -0.199  1.00  0.00     0.083 C
BRANCH   4  11
HETATM   11  N3  UNL     1     -41.437  31.233  -2.211  1.00  0.00    -0.110 N
HETATM   12  O1  UNL     1     -40.482  31.329  -1.436  1.00  0.00    -0.532 OA
HETATM   13  O2  UNL     1     -41.417  31.541  -3.537  1.00  0.00    -0.532 OA
ENDBRANCH   4  11
ENDBRANCH   3   4
BRANCH   3  14
HETATM   14  N4  UNL     1     -42.552  28.508  -2.711  1.00  0.00    -0.095 N
HETATM   15  O3  UNL     1     -43.414  28.155  -3.538  1.00  0.00    -0.530 OA
HETATM   16  O4  UNL     1     -41.238  28.101  -2.878  1.00  0.00    -0.530 OA
ENDBRANCH   3  14
BRANCH   1  17
HETATM   17  C4  UNL     1     -43.343  27.374  -0.410  1.00  0.00     0.034 A
HETATM   18  C3  UNL     1     -42.226  26.591  -0.166  1.00  0.00     0.031 A
HETATM   19  C2  UNL     1     -42.370  25.229  -0.076  1.00  0.00     0.029 A
HETATM   20  C1  UNL     1     -43.572  24.568  -0.214  1.00  0.00     0.046 A
HETATM   21  N1  UNL     1     -43.656  23.158  -0.111  1.00  0.00    -0.102 NA
HETATM   22  C13 UNL     1     -44.681  25.365  -0.457  1.00  0.00     0.029 A
HETATM   23  C12 UNL     1     -44.559  26.735  -0.551  1.00  0.00     0.031 A
ENDBRANCH   1  17
TORSDOF 4
ENDMDL