MODEL 1
REMARK VINA RESULT: -6.171555498      0.000      0.000
REMARK  2 active torsions:
REMARK  status: ('A' for Active; 'I' for Inactive)
REMARK    1  A    between atoms: C2_2  and  C3_3
REMARK    2  A    between atoms: C4_6  and  C5_7
ROOT
HETATM    1  C1  UNL     1     -16.154  -9.178  71.864  1.00  0.00     0.029 C
HETATM    2  C2  UNL     1     -15.797  -8.780  73.328  1.00  0.00     0.083 A
HETATM    3  C4  UNL     1     -16.707  -9.259  74.351  1.00  0.00     0.134 A
HETATM    4  C6  UNL     1     -15.397 -10.006  74.179  1.00  0.00     0.142 A
HETATM    5 CL2  UNL     1     -15.382 -11.589  73.399  1.00  0.00    -0.099 Cl
HETATM    6 CL3  UNL     1     -14.138  -9.726  75.420  1.00  0.00    -0.099 Cl
ENDROOT
BRANCH   2   7
HETATM    7  C3  UNL     1     -14.828  -7.708  73.378  1.00  0.00     0.231 C
HETATM    8  O1  UNL     1     -15.075  -6.603  73.784  1.00  0.00    -0.279 OA
HETATM    9 CL1  UNL     1     -13.183  -7.982  72.830  1.00  0.00    -0.043 Cl
ENDBRANCH   2   7
BRANCH   3  10
HETATM   10  C5  UNL     1     -17.084  -8.637  75.610  1.00  0.00     0.239 C
HETATM   11  N1  UNL     1     -17.589  -7.344  75.827  1.00  0.00    -0.062 NA
HETATM   12  O2  UNL     1     -16.960  -9.310  76.714  1.00  0.00    -0.276 OA
ENDBRANCH   3  10
TORSDOF 2
ENDMDL