MODEL 4
REMARK VINA RESULT: -6.147397327      1.887      2.447
REMARK  1 active torsions:
REMARK  status: ('A' for Active; 'I' for Inactive)
REMARK    1  A    between atoms: C2_2  and  N1_3
ROOT
HETATM    1  N1  UNL     1     -16.610 -11.033  71.502  1.00  0.00    -0.267 N
HETATM    2  C3  UNL     1     -15.970  -9.780  71.710  1.00  0.00     0.331 C
HETATM    3  O1  UNL     1     -15.347  -9.608  72.808  1.00  0.00    -0.246 OA
HETATM    4  N2  UNL     1     -16.015  -8.744  70.735  1.00  0.00    -0.276 N
ATOM      5  H2  UNL     1     -15.548  -7.853  70.905  1.00  0.00     0.173 HD
HETATM    6  C4  UNL     1     -16.722  -8.970  69.517  1.00  0.00     0.274 C
HETATM    7  O2  UNL     1     -16.928  -7.994  68.751  1.00  0.00    -0.269 OA
HETATM    8  C5  UNL     1     -17.216 -10.304  69.127  1.00  0.00     0.274 C
HETATM    9 CL1  UNL     1     -16.054 -11.045  67.978  1.00  0.00    -0.081 Cl
HETATM   10 CL2  UNL     1     -18.816 -10.202  68.347  1.00  0.00    -0.081 Cl
HETATM   11  C6  UNL     1     -17.298 -11.228  70.294  1.00  0.00     0.276 C
HETATM   12  O3  UNL     1     -18.032 -12.250  70.189  1.00  0.00    -0.269 OA
ENDROOT
BRANCH   1  13
HETATM   13  C2  UNL     1     -16.539 -12.061  72.520  1.00  0.00     0.132 C
HETATM   14  C1  UNL     1     -17.592 -11.934  73.565  1.00  0.00     0.027 C
ENDBRANCH   1  13
TORSDOF 1
ENDMDL