MODEL 4
REMARK VINA RESULT: -5.885037954      2.893      4.357
REMARK  2 active torsions:
REMARK  status: ('A' for Active; 'I' for Inactive)
REMARK    1  A    between atoms: C1_2  and  C2_4
REMARK       I    between atoms: N2_6  and  C4_7
REMARK    2  A    between atoms: C4_7  and  C5_9
ROOT
HETATM    1  C2  UNL     1     -18.041 -12.612  69.650  1.00  0.00     0.194 A
HETATM    2  C3  UNL     1     -19.362 -12.549  69.038  1.00  0.00     0.161 A
HETATM    3  N2  UNL     1     -18.394 -11.422  68.903  1.00  0.00    -0.331 N
HETATM    4  C4  UNL     1     -18.146 -10.132  68.369  1.00  0.00     0.275 C
HETATM    5  O2  UNL     1     -19.038  -9.551  67.689  1.00  0.00    -0.268 OA
ENDROOT
BRANCH   1   6
HETATM    6  C1  UNL     1     -17.109 -13.593  69.058  1.00  0.00     0.255 C
HETATM    7  N1  UNL     1     -16.766 -13.547  67.677  1.00  0.00    -0.060 NA
HETATM    8  O1  UNL     1     -16.625 -14.474  69.810  1.00  0.00    -0.275 OA
ENDBRANCH   1   6
BRANCH   4   9
HETATM    9  C5  UNL     1     -16.855  -9.428  68.585  1.00  0.00     0.269 C
HETATM   10 CL1  UNL     1     -15.497 -10.442  68.077  1.00  0.00    -0.073 Cl
HETATM   11 CL2  UNL     1     -16.738  -9.045  70.340  1.00  0.00    -0.073 Cl
HETATM   12 CL3  UNL     1     -16.869  -7.871  67.730  1.00  0.00    -0.073 Cl
ENDBRANCH   4   9
TORSDOF 2
ENDMDL