MODEL 5
REMARK VINA RESULT: -6.603625350      2.841      3.621
REMARK  1 active torsions:
REMARK  status: ('A' for Active; 'I' for Inactive)
REMARK    1  A    between atoms: C1_2  and  C2_3
ROOT
HETATM    1  C2  UNL     1     -16.120  -7.122  75.564  1.00  0.00     0.173 C
HETATM    2  C3  UNL     1     -16.681  -8.473  75.588  1.00  0.00     0.231 C
HETATM    3  O2  UNL     1     -17.832  -8.631  76.090  1.00  0.00    -0.273 OA
HETATM    4  N1  UNL     1     -15.923  -9.539  75.056  1.00  0.00    -0.355 N
ATOM      5  H1  UNL     1     -16.367 -10.359  74.642  1.00  0.00     0.162 HD
HETATM    6  C4  UNL     1     -14.508  -9.409  75.124  1.00  0.00     0.097 C
HETATM    7  C5  UNL     1     -13.705 -10.132  74.075  1.00  0.00     0.068 C
HETATM    8  C6  UNL     1     -13.643  -8.776  73.352  1.00  0.00     0.123 C
HETATM    9 CL1  UNL     1     -11.995  -8.422  72.738  1.00  0.00    -0.101 Cl
HETATM   10 CL2  UNL     1     -14.820  -8.749  72.066  1.00  0.00    -0.101 Cl
HETATM   11  C7  UNL     1     -13.979  -8.088  74.638  1.00  0.00     0.082 C
HETATM   12  C8  UNL     1     -14.934  -6.966  74.648  1.00  0.00     0.199 C
HETATM   13  F1  UNL     1     -15.427  -6.616  73.402  1.00  0.00    -0.248 F
ENDROOT
BRANCH   1  14
HETATM   14  C1  UNL     1     -15.769  -6.713  76.972  1.00  0.00     0.248 C
HETATM   15  O1  UNL     1     -15.348  -7.487  77.796  1.00  0.00    -0.306 OA
ENDBRANCH   1  14
TORSDOF 1
ENDMDL