MODEL 2
REMARK VINA RESULT: -6.125095855      1.887      2.122
REMARK  3 active torsions:
REMARK  status: ('A' for Active; 'I' for Inactive)
REMARK    1  A    between atoms: N1_4  and  O1_5
REMARK    2  A    between atoms: C3_7  and  O2_8
REMARK    3  A    between atoms: C4_10  and  O3_11
ROOT
HETATM    1  C1  UNL     1     -13.722  -7.923  73.078  1.00  0.00     0.062 C
HETATM    2  C2  UNL     1     -15.110  -8.409  73.411  1.00  0.00     0.171 C
HETATM    3 CL1  UNL     1     -16.049  -8.817  71.991  1.00  0.00    -0.090 Cl
HETATM    4  N1  UNL     1     -15.753  -7.408  74.260  1.00  0.00    -0.212 N
HETATM    5  C3  UNL     1     -16.488  -7.942  75.163  1.00  0.00     0.172 C
HETATM    6  C4  UNL     1     -16.429  -9.406  75.024  1.00  0.00     0.237 C
HETATM    7  C5  UNL     1     -15.081  -9.601  74.372  1.00  0.00     0.187 C
HETATM    8 CL2  UNL     1     -13.835  -9.431  75.601  1.00  0.00    -0.094 Cl
HETATM    9 CL3  UNL     1     -15.053 -11.136  73.537  1.00  0.00    -0.094 Cl
ENDROOT
BRANCH   4  10
HETATM   10  O1  UNL     1     -15.588  -6.032  74.110  1.00  0.00    -0.284 OA
ATOM     11  H1  UNL     1     -15.511  -5.422  74.834  1.00  0.00     0.245 HD
ENDBRANCH   4  10
BRANCH   5  12
HETATM   12  O2  UNL     1     -17.225  -7.207  76.120  1.00  0.00    -0.346 OA
ATOM     13  H2  UNL     1     -18.124  -7.398  76.360  1.00  0.00     0.219 HD
ENDBRANCH   5  12
BRANCH   6  14
HETATM   14  O3  UNL     1     -16.518 -10.065  76.247  1.00  0.00    -0.384 OA
ATOM     15  H3  UNL     1     -16.687  -9.473  76.970  1.00  0.00     0.210 HD
ENDBRANCH   6  14
TORSDOF 3
ENDMDL