MODEL 3
REMARK VINA RESULT: -6.157240312      1.926      2.624
REMARK  1 active torsions:
REMARK  status: ('A' for Active; 'I' for Inactive)
REMARK    1  A    between atoms: C2_2  and  C3_5
ROOT
HETATM    1  C3  UNL     1     -17.527 -11.258  68.193  1.00  0.00     0.221 C
HETATM    2  N1  UNL     1     -18.324 -10.080  68.493  1.00  0.00    -0.300 N
ATOM      3  H1  UNL     1     -19.243  -9.923  68.905  1.00  0.00     0.173 HD
HETATM    4  S1  UNL     1     -17.093  -9.062  67.873  1.00  0.00     0.298 S
HETATM    5  O1  UNL     1     -16.943  -9.008  66.409  1.00  0.00    -0.200 OA
HETATM    6  O2  UNL     1     -16.761  -7.860  68.657  1.00  0.00    -0.200 OA
HETATM    7  C4  UNL     1     -16.309 -10.506  68.586  1.00  0.00     0.384 C
HETATM    8  F1  UNL     1     -16.144 -10.448  69.934  1.00  0.00    -0.184 F
HETATM    9  F2  UNL     1     -15.163 -10.785  67.871  1.00  0.00    -0.184 F
ENDROOT
BRANCH   1  10
HETATM   10  C2  UNL     1     -17.848 -12.464  69.011  1.00  0.00     0.137 C
HETATM   11  C1  UNL     1     -19.293 -12.873  68.921  1.00  0.00     0.053 C
HETATM   12 CL1  UNL     1     -17.587 -12.072  70.753  1.00  0.00    -0.100 Cl
HETATM   13 CL2  UNL     1     -16.818 -13.869  68.685  1.00  0.00    -0.100 Cl
ENDBRANCH   1  10
TORSDOF 1
ENDMDL