MODEL 5
REMARK VINA RESULT: -4.355643893      1.345      1.986
REMARK  3 active torsions:
REMARK  status: ('A' for Active; 'I' for Inactive)
REMARK    1  A    between atoms: N1_1  and  O1_4
REMARK    2  A    between atoms: O1_4  and  C1_5
REMARK    3  A    between atoms: C1_5  and  C2_7
ROOT
HETATM    1  C1  UNL     1     -17.670  -6.647  63.053  1.00  0.00     0.305 C
HETATM    2  O2  UNL     1     -18.257  -5.747  63.703  1.00  0.00    -0.261 OA
ENDROOT
BRANCH   1   3
HETATM    3  O1  UNL     1     -16.806  -7.473  63.755  1.00  0.00    -0.205 OA
BRANCH   3   4
HETATM    4  N1  UNL     1     -16.860  -7.503  65.125  1.00  0.00    -0.302 N
ATOM      5  H12 UNL     1     -16.047  -7.827  65.649  1.00  0.00     0.184 HD
ATOM      6  H11 UNL     1     -17.710  -7.201  65.602  1.00  0.00     0.184 HD
ENDBRANCH   3   4
ENDBRANCH   1   3
BRANCH   1   7
HETATM    7  C2  UNL     1     -17.857  -6.861  61.596  1.00  0.00     0.230 C
HETATM    8 BR1  UNL     1     -16.196  -7.199  60.706  1.00  0.00    -0.068 Br
HETATM    9 BR2  UNL     1     -18.770  -5.307  60.865  1.00  0.00    -0.068 Br
ENDBRANCH   1   7
TORSDOF 3
ENDMDL