MODEL 4
REMARK VINA RESULT: -4.751608494      2.579      2.784
REMARK  3 active torsions:
REMARK  status: ('A' for Active; 'I' for Inactive)
REMARK    1  A    between atoms: C1_2  and  C2_3
REMARK       I    between atoms: C1_2  and  N1_5
REMARK    2  A    between atoms: C3_7  and  C4_9
REMARK    3  A    between atoms: C4_9  and  O2_10
ROOT
HETATM    1  O1  UNL     1     -13.658  -9.499  74.743  1.00  0.00    -0.272 OA
HETATM    2  C1  UNL     1     -14.859  -9.922  74.820  1.00  0.00     0.236 C
HETATM    3  N1  UNL     1     -15.657  -9.374  75.870  1.00  0.00    -0.322 N
ATOM      4  H1  UNL     1     -16.016  -9.973  76.614  1.00  0.00     0.169 HD
HETATM    5  C3  UNL     1     -15.917  -8.124  75.864  1.00  0.00     0.082 C
HETATM    6 BR1  UNL     1     -15.297  -6.939  74.513  1.00  0.00    -0.034 Br
ENDROOT
BRANCH   2   7
HETATM    7  C2  UNL     1     -15.400 -10.921  73.892  1.00  0.00     0.217 C
HETATM    8 CL1  UNL     1     -17.141 -11.207  74.100  1.00  0.00    -0.121 Cl
ENDBRANCH   2   7
BRANCH   5   9
HETATM    9  C4  UNL     1     -16.743  -7.519  76.974  1.00  0.00     0.229 C
BRANCH   9  10
HETATM   10  O2  UNL     1     -16.959  -8.497  77.966  1.00  0.00    -0.394 OA
ATOM     11  H2  UNL     1     -16.200  -8.529  78.536  1.00  0.00     0.209 HD
ENDBRANCH   9  10
ENDBRANCH   5   9
TORSDOF 3
ENDMDL