MODEL 1
REMARK VINA RESULT: -5.617692892      0.000      0.000
REMARK  4 active torsions:
REMARK  status: ('A' for Active; 'I' for Inactive)
REMARK    1  A    between atoms: N1_1  and  C1_5
REMARK    2  A    between atoms: C1_5  and  C2_6
REMARK    3  A    between atoms: N3_9  and  C4_10
REMARK    4  A    between atoms: C4_10  and  C5_11
ROOT
HETATM    1  C2  UNL     1       1.076   6.732  10.154  1.00  0.00     0.041 C
HETATM    2  C3  UNL     1       1.904   5.542   9.699  1.00  0.00     0.136 C
HETATM    3  N2  UNL     1       0.893   4.596   9.268  1.00  0.00    -0.165 NA
HETATM    4  N3  UNL     1      -0.237   5.296   8.968  1.00  0.00    -0.234 NA
HETATM    5  C9  UNL     1       0.021   6.710   9.027  1.00  0.00     0.117 C
ENDROOT
BRANCH   1   6
HETATM    6  C1  UNL     1       1.804   8.029  10.027  1.00  0.00     0.236 C
BRANCH   6   7
HETATM    7  N1  UNL     1       2.980   7.812   9.181  1.00  0.00    -0.079 N
ATOM      8  H13 UNL     1       3.838   8.168   9.602  1.00  0.00     0.274 HD
ATOM      9  H12 UNL     1       3.250   6.830   9.128  1.00  0.00     0.274 HD
ATOM     10  H11 UNL     1       2.794   8.220   8.265  1.00  0.00     0.274 HD
ENDBRANCH   6   7
ENDBRANCH   1   6
BRANCH   4  11
HETATM   11  C4  UNL     1      -1.355   4.861   9.710  1.00  0.00     0.114 C
BRANCH  11  12
HETATM   12  C5  UNL     1      -1.535   3.398   9.892  1.00  0.00     0.009 A
HETATM   13  C6  UNL     1      -2.626   3.160  11.010  1.00  0.00    -0.004 A
HETATM   14  C7  UNL     1      -2.384   1.805  11.770  1.00  0.00     0.011 A
HETATM   15  C8  UNL     1      -1.356   2.640  11.132  1.00  0.00    -0.004 A
ENDBRANCH  11  12
ENDBRANCH   4  11
TORSDOF 4
ENDMDL