MODEL 2
REMARK VINA RESULT: -4.919180760      4.738      5.805
REMARK  4 active torsions:
REMARK  status: ('A' for Active; 'I' for Inactive)
REMARK    1  A    between atoms: N1_1  and  C1_5
REMARK    2  A    between atoms: C1_5  and  C2_6
REMARK    3  A    between atoms: C2_6  and  N2_7
REMARK    4  A    between atoms: N2_7  and  C3_10
ROOT
HETATM    1  N2  UNL     1       0.577   3.508   9.686  1.00  0.00    -0.068 N
ATOM      2  H21 UNL     1       0.736   2.817   8.952  1.00  0.00     0.277 HD
ATOM      3  H22 UNL     1       1.283   3.211  10.359  1.00  0.00     0.277 HD
ENDROOT
BRANCH   1   4
HETATM    4  C2  UNL     1      -0.724   3.363  10.232  1.00  0.00     0.260 C
BRANCH   4   5
HETATM    5  C1  UNL     1      -1.025   1.914  10.570  1.00  0.00     0.257 C
BRANCH   5   6
HETATM    6  N1  UNL     1      -0.298   1.012   9.701  1.00  0.00    -0.078 N
ATOM      7  H13 UNL     1       0.365   1.513   9.110  1.00  0.00     0.274 HD
ATOM      8  H12 UNL     1       0.363   0.438  10.225  1.00  0.00     0.274 HD
ATOM      9  H11 UNL     1      -0.936   0.439   9.148  1.00  0.00     0.274 HD
ENDBRANCH   5   6
ENDBRANCH   4   5
ENDBRANCH   1   4
BRANCH   1  10
HETATM   10  C3  UNL     1       0.866   4.844   9.200  1.00  0.00     0.200 C
HETATM   11  C4  UNL     1      -0.439   5.492   8.877  1.00  0.00     0.049 C
HETATM   12  C5  UNL     1      -0.324   6.964   8.878  1.00  0.00     0.142 C
HETATM   13  S1  UNL     1       1.091   7.340   9.883  1.00  0.00     0.146 S
HETATM   14  O1  UNL     1       2.084   8.101   9.084  1.00  0.00    -0.228 OA
HETATM   15  O2  UNL     1       0.724   8.013  11.167  1.00  0.00    -0.228 OA
HETATM   16  C6  UNL     1       1.635   5.650  10.176  1.00  0.00     0.173 C
ENDBRANCH   1  10
TORSDOF 4
ENDMDL