MODEL 5
REMARK VINA RESULT: -4.795308223      1.913      2.251
REMARK  4 active torsions:
REMARK  status: ('A' for Active; 'I' for Inactive)
REMARK    1  A    between atoms: N1_1  and  S1_4
REMARK    2  A    between atoms: S1_4  and  N2_7
REMARK    3  A    between atoms: N2_7  and  C1_9
REMARK    4  A    between atoms: C1_9  and  C2_10
ROOT
HETATM    1  N2  UNL     1      -1.355   3.900   9.540  1.00  0.00    -0.301 N
ATOM      2  H2  UNL     1      -0.485   3.586   9.971  1.00  0.00     0.173 HD
ENDROOT
BRANCH   1   3
HETATM    3  S1  UNL     1      -1.487   5.366   8.666  1.00  0.00     0.312 S
HETATM    4  O1  UNL     1      -0.077   5.889   8.490  1.00  0.00    -0.183 OA
HETATM    5  O2  UNL     1      -2.336   6.308   9.461  1.00  0.00    -0.183 OA
BRANCH   3   6
HETATM    6  N1  UNL     1      -2.169   5.033   7.114  1.00  0.00    -0.312 N
ATOM      7  H12 UNL     1      -2.390   4.100   6.767  1.00  0.00     0.170 HD
ATOM      8  H11 UNL     1      -2.310   5.911   6.613  1.00  0.00     0.170 HD
ENDBRANCH   3   6
ENDBRANCH   1   3
BRANCH   1   9
HETATM    9  C1  UNL     1      -2.579   3.149   9.612  1.00  0.00     0.165 C
BRANCH   9  10
HETATM   10  C2  UNL     1      -2.957   2.797  11.047  1.00  0.00     0.142 C
HETATM   11  C3  UNL     1      -1.795   2.119  11.748  1.00  0.00     0.060 C
HETATM   12  C4  UNL     1      -2.585   0.916  11.294  1.00  0.00     0.170 C
HETATM   13  O3  UNL     1      -3.747   1.658  11.161  1.00  0.00    -0.384 OA
ENDBRANCH   9  10
ENDBRANCH   1   9
TORSDOF 4
ENDMDL