MODEL 3
REMARK VINA RESULT: -5.107583923      3.412      6.865
REMARK  7 active torsions:
REMARK  status: ('A' for Active; 'I' for Inactive)
REMARK    1  A    between atoms: O1_1  and  C1_3
REMARK    2  A    between atoms: C1_3  and  C2_4
REMARK    3  A    between atoms: C3_5  and  C4_6
REMARK    4  A    between atoms: C4_6  and  O2_7
REMARK    5  A    between atoms: O2_7  and  C5_8
REMARK    6  A    between atoms: C5_8  and  C6_9
REMARK    7  A    between atoms: C7_10  and  C8_11
ROOT
HETATM    1  C5  UNL     1      -2.386   0.999   9.691  1.00  0.00     0.262 C
ENDROOT
BRANCH   1   2
HETATM    2  O2  UNL     1      -1.425   1.144  10.652  1.00  0.00    -0.368 OA
BRANCH   2   3
HETATM    3  C4  UNL     1      -1.410   2.346  11.302  1.00  0.00     0.262 C
BRANCH   3   4
HETATM    4  C3  UNL     1      -0.645   3.295  10.462  1.00  0.00    -0.078 C
HETATM    5  C2  UNL     1      -0.013   4.078   9.794  1.00  0.00    -0.079 C
BRANCH   5   6
HETATM    6  C1  UNL     1       0.770   5.036   9.001  1.00  0.00     0.257 C
BRANCH   6   7
HETATM    7  O1  UNL     1       2.123   4.960   9.266  1.00  0.00    -0.389 OA
ATOM      8  H1  UNL     1       2.613   4.579   8.548  1.00  0.00     0.210 HD
ENDBRANCH   6   7
ENDBRANCH   5   6
ENDBRANCH   3   4
ENDBRANCH   2   3
ENDBRANCH   1   2
BRANCH   1   9
HETATM    9  C6  UNL     1      -3.697   0.996  10.330  1.00  0.00    -0.078 C
HETATM   10  C7  UNL     1      -4.789   1.009  10.846  1.00  0.00    -0.069 C
BRANCH  10  11
HETATM   11  C8  UNL     1      -6.126   1.035  11.453  1.00  0.00     0.289 A
HETATM   12  C9  UNL     1      -7.266   0.718  10.583  1.00  0.00     0.279 A
HETATM   13  N1  UNL     1      -6.802  -0.286  11.531  1.00  0.00    -0.056 N
ATOM     14  H12 UNL     1      -6.498  -1.258  11.464  1.00  0.00     0.278 HD
ATOM     15  H11 UNL     1      -7.236  -0.833  12.275  1.00  0.00     0.278 HD
ENDBRANCH  10  11
ENDBRANCH   1   9
TORSDOF 7
ENDMDL