MODEL 3
REMARK VINA RESULT: -4.991646899      1.923      2.207
REMARK  3 active torsions:
REMARK  status: ('A' for Active; 'I' for Inactive)
REMARK    1  A    between atoms: C1_2  and  N1_3
REMARK    2  A    between atoms: N1_3  and  C2_5
REMARK    3  A    between atoms: C2_5  and  C3_6
ROOT
HETATM    1  C3  UNL     1      -0.646   3.787  10.068  1.00  0.00     0.111 C
HETATM    2  C4  UNL     1       0.516   4.433   9.373  1.00  0.00     0.044 C
HETATM    3  C5  UNL     1       0.068   5.903   9.363  1.00  0.00     0.165 C
HETATM    4  S1  UNL     1      -1.612   5.632   8.773  1.00  0.00     0.227 S
HETATM    5  O2  UNL     1      -2.592   6.409   9.566  1.00  0.00    -0.206 OA
HETATM    6  O3  UNL     1      -1.640   5.893   7.319  1.00  0.00    -0.206 OA
HETATM    7  N2  UNL     1      -1.718   3.918   9.127  1.00  0.00    -0.313 N
ATOM      8  H2  UNL     1      -2.361   3.213   8.766  1.00  0.00     0.172 HD
ENDROOT
BRANCH   1   9
HETATM    9  C2  UNL     1      -0.361   2.387  10.502  1.00  0.00     0.147 C
BRANCH   9  10
HETATM   10  N1  UNL     1      -1.513   1.634  10.859  1.00  0.00    -0.366 N
ATOM     11  H1  UNL     1      -1.753   0.792  10.335  1.00  0.00     0.161 HD
BRANCH  10  12
HETATM   12  C1  UNL     1      -2.329   2.049  11.940  1.00  0.00     0.348 C
HETATM   13  O1  UNL     1      -3.361   2.768  11.733  1.00  0.00    -0.284 OA
ENDBRANCH  10  12
ENDBRANCH   9  10
ENDBRANCH   1   9
TORSDOF 3
ENDMDL