MODEL 5
REMARK VINA RESULT: -4.623369302      2.198      4.277
REMARK  3 active torsions:
REMARK  status: ('A' for Active; 'I' for Inactive)
REMARK    1  A    between atoms: O1_2  and  C2_3
REMARK    2  A    between atoms: C2_3  and  C3_4
REMARK    3  A    between atoms: C3_4  and  N1_5
ROOT
HETATM    1  N1  UNL     1      -3.147   1.257   9.552  1.00  0.00     0.043 N
HETATM    2  N2  UNL     1      -2.117   0.536   8.900  1.00  0.00    -0.214 N
ATOM      3  H2  UNL     1      -1.126   0.340   8.761  1.00  0.00     0.190 HD
HETATM    4  C4  UNL     1      -3.421   0.296   8.595  1.00  0.00     0.365 A
HETATM    5  C5  UNL     1      -4.236  -0.817   9.267  1.00  0.00     0.242 C
HETATM    6  C6  UNL     1      -3.601  -0.777  10.663  1.00  0.00     0.075 C
HETATM    7  C7  UNL     1      -3.727   0.752  10.755  1.00  0.00     0.245 C
HETATM    8  C8  UNL     1      -5.247   0.818  10.529  1.00  0.00     0.268 C
HETATM    9  N3  UNL     1      -5.519  -0.262   9.567  1.00  0.00    -0.065 N
ATOM     10  H31 UNL     1      -6.199  -0.947   9.896  1.00  0.00     0.277 HD
ATOM     11  H32 UNL     1      -6.042   0.039   8.745  1.00  0.00     0.277 HD
ENDROOT
BRANCH   1  12
HETATM   12  C3  UNL     1      -3.014   2.653   9.386  1.00  0.00     0.294 C
BRANCH  12  13
HETATM   13  C2  UNL     1      -2.387   3.412  10.502  1.00  0.00     0.197 C
BRANCH  13  14
HETATM   14  O1  UNL     1      -1.093   3.063  10.792  1.00  0.00    -0.394 OA
HETATM   15  C1  UNL     1      -0.258   3.912  10.032  1.00  0.00     0.201 C
ENDBRANCH  13  14
ENDBRANCH  12  13
ENDBRANCH   1  12
TORSDOF 3
ENDMDL