MODEL 2
REMARK VINA RESULT: -4.894935273      2.174      2.633
REMARK  4 active torsions:
REMARK  status: ('A' for Active; 'I' for Inactive)
REMARK    1  A    between atoms: C2_2  and  S1_3
REMARK    2  A    between atoms: S1_3  and  N1_6
REMARK    3  A    between atoms: N1_6  and  C3_8
REMARK    4  A    between atoms: C5_10  and  O3_11
ROOT
HETATM    1  N1  UNL     1      -2.428   3.676   8.996  1.00  0.00    -0.309 N
ATOM      2  H1  UNL     1      -2.787   2.944   8.382  1.00  0.00     0.172 HD
ENDROOT
BRANCH   1   3
HETATM    3  S1  UNL     1      -2.087   5.269   8.451  1.00  0.00     0.248 S
HETATM    4  O1  UNL     1      -0.600   5.347   8.228  1.00  0.00    -0.201 OA
HETATM    5  O2  UNL     1      -2.426   6.291   9.496  1.00  0.00    -0.201 OA
BRANCH   3   6
HETATM    6  C2  UNL     1      -2.895   5.651   6.965  1.00  0.00     0.121 C
HETATM    7  C1  UNL     1      -3.316   4.682   6.181  1.00  0.00     0.025 C
ENDBRANCH   3   6
ENDBRANCH   1   3
BRANCH   1   8
HETATM    8  C3  UNL     1      -2.166   3.467  10.377  1.00  0.00     0.124 A
HETATM    9  C4  UNL     1      -1.949   2.000  10.755  1.00  0.00     0.062 A
HETATM   10  C5  UNL     1      -0.794   2.978  10.779  1.00  0.00     0.143 A
BRANCH  10  11
HETATM   11  O3  UNL     1       0.154   2.745   9.789  1.00  0.00    -0.393 OA
ATOM     12  H3  UNL     1       0.985   2.353  10.030  1.00  0.00     0.210 HD
ENDBRANCH  10  11
ENDBRANCH   1   8
TORSDOF 4
ENDMDL