MODEL 1
REMARK VINA RESULT: -5.117987945      0.000      0.000
REMARK  4 active torsions:
REMARK  status: ('A' for Active; 'I' for Inactive)
REMARK    1  A    between atoms: N1_1  and  S1_4
REMARK    2  A    between atoms: S1_4  and  N2_7
REMARK    3  A    between atoms: N2_7  and  C1_9
REMARK    4  A    between atoms: C3_11  and  C4_12
ROOT
HETATM    1  N2  UNL     1       0.063   3.808  10.432  1.00  0.00    -0.297 N
ATOM      2  H2  UNL     1       0.678   3.469  11.171  1.00  0.00     0.174 HD
ENDROOT
BRANCH   1   3
HETATM    3  S1  UNL     1       0.472   5.172   9.545  1.00  0.00     0.313 S
HETATM    4  O1  UNL     1      -0.133   5.323   8.219  1.00  0.00    -0.183 OA
HETATM    5  O2  UNL     1       0.089   6.393  10.367  1.00  0.00    -0.183 OA
BRANCH   3   6
HETATM    6  N1  UNL     1       2.202   5.238   9.358  1.00  0.00    -0.312 N
ATOM      7  H12 UNL     1       2.781   4.495   8.966  1.00  0.00     0.170 HD
ATOM      8  H11 UNL     1       2.523   6.141   9.708  1.00  0.00     0.170 HD
ENDBRANCH   3   6
ENDBRANCH   1   3
BRANCH   1   9
HETATM    9  C1  UNL     1      -1.145   3.135  10.141  1.00  0.00     0.106 A
HETATM   10  C2  UNL     1      -2.469   3.468  10.628  1.00  0.00     0.040 A
HETATM   11  C3  UNL     1      -1.710   2.344  11.342  1.00  0.00     0.072 A
BRANCH  11  12
HETATM   12  C4  UNL     1      -2.206   0.987  11.114  1.00  0.00     0.237 C
HETATM   13  O3  UNL     1      -3.399   0.741  11.081  1.00  0.00    -0.306 OA
ENDBRANCH  11  12
ENDBRANCH   1   9
TORSDOF 4
ENDMDL