MODEL 5
REMARK VINA RESULT: -4.531794626      2.669      3.454
REMARK  2 active torsions:
REMARK  status: ('A' for Active; 'I' for Inactive)
REMARK    1  A    between atoms: C1_4  and  C2_5
REMARK    2  A    between atoms: N3_10  and  C5_12
ROOT
HETATM    1  C2  UNL     1      -2.598   2.162  10.281  1.00  0.00     0.108 C
HETATM    2  C3  UNL     1      -2.342   2.590  11.725  1.00  0.00     0.138 C
HETATM    3  N2  UNL     1      -3.754   2.842  11.787  1.00  0.00    -0.378 N
ATOM      4  H2  UNL     1      -4.360   3.494  12.286  1.00  0.00     0.160 HD
HETATM    5  C4  UNL     1      -3.940   1.795  10.858  1.00  0.00     0.089 C
HETATM    6  N3  UNL     1      -4.810   0.896  10.564  1.00  0.00    -0.324 N
ATOM      7  H3  UNL     1      -4.634   0.255   9.791  1.00  0.00     0.169 HD
ENDROOT
BRANCH   1   8
HETATM    8  C1  UNL     1      -1.801   0.985   9.872  1.00  0.00     0.066 C
HETATM    9  N1  UNL     1      -0.540   1.102   9.764  1.00  0.00    -0.410 N
ATOM     10  H12 UNL     1      -0.100   2.000   9.960  1.00  0.00     0.155 HD
ATOM     11  H11 UNL     1       0.010   0.290   9.482  1.00  0.00     0.155 HD
ENDBRANCH   1   8
BRANCH   6  12
HETATM   12  C5  UNL     1      -6.003   0.790  11.299  1.00  0.00     0.354 C
HETATM   13  O1  UNL     1      -6.278   1.680  12.140  1.00  0.00    -0.283 OA
ENDBRANCH   6  12
TORSDOF 2
ENDMDL