MODEL 5
REMARK VINA RESULT: -4.151100999      1.935      3.124
REMARK  2 active torsions:
REMARK  status: ('A' for Active; 'I' for Inactive)
REMARK    1  A    between atoms: C1_2  and  N1_3
REMARK       I    between atoms: N1_3  and  C2_5
REMARK       I    between atoms: C2_5  and  N2_7
REMARK    2  A    between atoms: N2_7  and  C3_9
ROOT
HETATM    1  N1  UNL     1      -1.830   6.515   8.518  1.00  0.00    -0.287 N
ATOM      2  H1  UNL     1      -1.671   7.521   8.579  1.00  0.00     0.172 HD
HETATM    3  C2  UNL     1      -1.177   5.647   9.420  1.00  0.00     0.322 C
HETATM    4  O2  UNL     1      -0.402   6.183  10.286  1.00  0.00    -0.247 OA
HETATM    5  N2  UNL     1      -1.307   4.264   9.447  1.00  0.00    -0.338 N
ATOM      6  H2  UNL     1      -1.917   3.805   8.771  1.00  0.00     0.164 HD
ENDROOT
BRANCH   1   7
HETATM    7  C1  UNL     1      -2.699   6.005   7.536  1.00  0.00     0.356 C
HETATM    8  O1  UNL     1      -2.287   5.201   6.668  1.00  0.00    -0.283 OA
ENDBRANCH   1   7
BRANCH   5   9
HETATM    9  C3  UNL     1      -0.588   3.458  10.421  1.00  0.00     0.086 A
HETATM   10  C4  UNL     1      -1.509   2.586  11.267  1.00  0.00     0.027 A
HETATM   11  C5  UNL     1      -0.542   1.991  10.302  1.00  0.00     0.027 A
ENDBRANCH   5   9
TORSDOF 2
ENDMDL