MODEL 3
REMARK VINA RESULT: -4.038818790      1.549      1.575
REMARK  3 active torsions:
REMARK  status: ('A' for Active; 'I' for Inactive)
REMARK    1  A    between atoms: C1_2  and  N1_3
REMARK    2  A    between atoms: C2_5  and  N2_6
REMARK    3  A    between atoms: N2_6  and  C3_8
ROOT
HETATM    1  N1  UNL     1       1.132   5.196  10.527  1.00  0.00    -0.331 N
ATOM      2  H1  UNL     1       1.474   4.596  11.278  1.00  0.00     0.168 HD
HETATM    3  C2  UNL     1       0.385   4.660   9.650  1.00  0.00     0.178 C
ENDROOT
BRANCH   3   4
HETATM    4  N2  UNL     1       0.080   3.289   9.766  1.00  0.00    -0.381 N
ATOM      5  H2  UNL     1       0.379   2.635   9.042  1.00  0.00     0.160 HD
BRANCH   4   6
HETATM    6  C3  UNL     1      -0.651   2.818  10.903  1.00  0.00     0.082 A
HETATM    7  C4  UNL     1      -2.105   3.115  10.947  1.00  0.00     0.027 A
HETATM    8  C5  UNL     1      -1.674   1.701  10.705  1.00  0.00     0.027 A
ENDBRANCH   4   6
ENDBRANCH   3   4
BRANCH   1   9
HETATM    9  C1  UNL     1       1.527   6.547  10.551  1.00  0.00     0.353 C
HETATM   10  O1  UNL     1       0.777   7.360  11.159  1.00  0.00    -0.283 OA
ENDBRANCH   1   9
TORSDOF 3
ENDMDL