MODEL 3
REMARK VINA RESULT: -4.700645084      0.447      1.143
REMARK  4 active torsions:
REMARK  status: ('A' for Active; 'I' for Inactive)
REMARK    1  A    between atoms: N1_1  and  C1_4
REMARK    2  A    between atoms: C1_4  and  C2_5
REMARK    3  A    between atoms: C2_5  and  C3_6
REMARK    4  A    between atoms: C5_8  and  C6_9
ROOT
HETATM    1  C3  UNL     1      -1.186   2.535  11.150  1.00  0.00     0.009 A
HETATM    2  C4  UNL     1      -2.298   2.200  12.036  1.00  0.00     0.018 A
HETATM    3  C5  UNL     1      -2.045   1.420  10.754  1.00  0.00     0.055 A
ENDROOT
BRANCH   1   4
HETATM    4  C2  UNL     1      -1.108   3.780  10.373  1.00  0.00     0.109 C
BRANCH   4   5
HETATM    5  C1  UNL     1       0.026   4.157   9.835  1.00  0.00    -0.077 C
BRANCH   5   6
HETATM    6  N1  UNL     1       1.055   4.423   9.132  1.00  0.00    -0.370 N
ATOM      7  H12 UNL     1       0.508   4.204   8.300  1.00  0.00     0.165 HD
ATOM      8  H11 UNL     1       1.956   4.670   8.723  1.00  0.00     0.165 HD
ENDBRANCH   5   6
ENDBRANCH   4   5
ENDBRANCH   1   4
BRANCH   3   9
HETATM    9  C6  UNL     1      -3.134   1.419   9.779  1.00  0.00     0.091 C
HETATM   10  N2  UNL     1      -4.283   1.907   9.930  1.00  0.00    -0.391 N
ATOM     11  H22 UNL     1      -4.470   2.371  10.820  1.00  0.00     0.157 HD
ATOM     12  H21 UNL     1      -5.042   1.906   9.249  1.00  0.00     0.157 HD
HETATM   13  N3  UNL     1      -2.869   0.760   8.516  1.00  0.00    -0.088 NA
ENDBRANCH   3   9
TORSDOF 4
ENDMDL