MODEL 2
REMARK VINA RESULT: -4.479226198      1.869      2.043
REMARK  2 active torsions:
REMARK  status: ('A' for Active; 'I' for Inactive)
REMARK    1  A    between atoms: C1_2  and  N1_3
REMARK    2  A    between atoms: N1_3  and  C2_5
ROOT
HETATM    1  C2  UNL     1      -2.012   3.068   9.947  1.00  0.00     0.286 C
HETATM    2  C3  UNL     1      -1.152   2.749  11.177  1.00  0.00     0.056 C
HETATM    3  C4  UNL     1      -2.106   1.777  11.844  1.00  0.00     0.031 C
HETATM    4  C5  UNL     1      -3.453   2.325  11.503  1.00  0.00     0.235 C
HETATM    5  N2  UNL     1      -3.232   3.480  10.626  1.00  0.00    -0.054 N
ATOM      6  H21 UNL     1      -4.012   3.730  10.019  1.00  0.00     0.279 HD
ATOM      7  H22 UNL     1      -3.193   4.387  11.092  1.00  0.00     0.279 HD
ENDROOT
BRANCH   1   8
HETATM    8  N1  UNL     1      -1.455   4.038   9.100  1.00  0.00    -0.341 N
ATOM      9  H1  UNL     1      -1.113   3.782   8.173  1.00  0.00     0.163 HD
BRANCH   8  10
HETATM   10  C1  UNL     1      -1.374   5.378   9.550  1.00  0.00     0.350 C
HETATM   11  O1  UNL     1      -2.390   6.102   9.715  1.00  0.00    -0.284 OA
ENDBRANCH   8  10
ENDBRANCH   1   8
TORSDOF 2
ENDMDL