MODEL 4
REMARK VINA RESULT: -4.071735207      3.149      4.075
REMARK  2 active torsions:
REMARK  status: ('A' for Active; 'I' for Inactive)
REMARK    1  A    between atoms: C1_2  and  N1_3
REMARK    2  A    between atoms: N1_3  and  C2_5
ROOT
HETATM    1  C2  UNL     1       0.020   5.601   8.741  1.00  0.00     0.286 C
HETATM    2  C3  UNL     1      -0.136   5.508  10.264  1.00  0.00     0.056 C
HETATM    3  C4  UNL     1       1.200   6.121  10.641  1.00  0.00     0.031 C
HETATM    4  C5  UNL     1       2.113   5.654   9.555  1.00  0.00     0.235 C
HETATM    5  N2  UNL     1       1.290   4.903   8.601  1.00  0.00    -0.054 N
ATOM      6  H21 UNL     1       1.659   4.842   7.652  1.00  0.00     0.279 HD
ATOM      7  H22 UNL     1       1.259   3.894   8.745  1.00  0.00     0.279 HD
ENDROOT
BRANCH   1   8
HETATM    8  N1  UNL     1      -1.044   5.030   8.025  1.00  0.00    -0.341 N
ATOM      9  H1  UNL     1      -0.865   4.370   7.269  1.00  0.00     0.163 HD
BRANCH   8  10
HETATM   10  C1  UNL     1      -2.371   5.386   8.369  1.00  0.00     0.350 C
HETATM   11  O1  UNL     1      -2.836   6.540   8.178  1.00  0.00    -0.284 OA
ENDBRANCH   8  10
ENDBRANCH   1   8
TORSDOF 2
ENDMDL