MODEL 1
REMARK VINA RESULT: -5.727156568      0.000      0.000
REMARK  3 active torsions:
REMARK  status: ('A' for Active; 'I' for Inactive)
REMARK    1  A    between atoms: N2_4  and  N3_6
REMARK    2  A    between atoms: C1_8  and  N4_9
REMARK    3  A    between atoms: N4_9  and  C2_11
ROOT
HETATM    1  N3  UNL     1       0.715   4.028   9.474  1.00  0.00    -0.283 N
ATOM      2  H3  UNL     1       0.903   3.056   9.722  1.00  0.00     0.189 HD
HETATM    3  C1  UNL     1      -0.445   4.556   9.697  1.00  0.00     0.194 C
ENDROOT
BRANCH   1   4
HETATM    4  N2  UNL     1       1.694   4.811   8.890  1.00  0.00    -0.248 N
HETATM    5  N1  UNL     1       2.405   5.557   9.605  1.00  0.00    -0.331 N
ATOM      6  H12 UNL     1       2.249   5.574  10.613  1.00  0.00     0.178 HD
ATOM      7  H11 UNL     1       3.128   6.135   9.175  1.00  0.00     0.178 HD
ATOM      8  H2  UNL     1       1.838   4.782   7.880  1.00  0.00     0.207 HD
ENDBRANCH   1   4
BRANCH   3   9
HETATM    9  N4  UNL     1      -1.468   3.773  10.296  1.00  0.00    -0.380 N
ATOM     10  H4  UNL     1      -2.444   4.066  10.244  1.00  0.00     0.160 HD
BRANCH   9  11
HETATM   11  C2  UNL     1      -1.104   2.554  10.978  1.00  0.00     0.082 C
HETATM   12  C3  UNL     1      -2.160   2.202  12.011  1.00  0.00     0.025 C
HETATM   13  C4  UNL     1      -2.473   0.971  11.166  1.00  0.00     0.004 C
HETATM   14  C5  UNL     1      -1.305   1.282  10.231  1.00  0.00     0.025 C
ENDBRANCH   9  11
ENDBRANCH   3   9
TORSDOF 3
ENDMDL