MODEL 5
REMARK VINA RESULT: -4.326300971      1.589      1.985
REMARK  2 active torsions:
REMARK  status: ('A' for Active; 'I' for Inactive)
REMARK    1  A    between atoms: C2_2  and  C3_3
REMARK    2  A    between atoms: C2_2  and  C4_6
ROOT
HETATM    1  C1  UNL     1      -3.278   2.972   8.603  1.00  0.00     0.024 C
HETATM    2  C2  UNL     1      -2.763   3.763   9.499  1.00  0.00     0.002 C
ENDROOT
BRANCH   2   3
HETATM    3  C3  UNL     1      -2.308   5.088   9.026  1.00  0.00     0.260 C
HETATM    4  N1  UNL     1      -1.806   5.155   7.702  1.00  0.00    -0.058 NA
HETATM    5  O1  UNL     1      -2.363   6.103   9.762  1.00  0.00    -0.271 OA
ENDBRANCH   2   3
BRANCH   2   6
HETATM    6  C4  UNL     1      -2.609   3.428  10.918  1.00  0.00     0.023 A
HETATM    7  C5  UNL     1      -2.802   2.016  11.379  1.00  0.00     0.010 A
HETATM    8  C6  UNL     1      -1.413   2.562  11.315  1.00  0.00     0.010 A
ENDBRANCH   2   6
TORSDOF 2
ENDMDL