MODEL 2
REMARK VINA RESULT: -4.324217273      1.398      1.773
REMARK  2 active torsions:
REMARK  status: ('A' for Active; 'I' for Inactive)
REMARK    1  A    between atoms: C2_2  and  C3_3
REMARK    2  A    between atoms: C5_5  and  C6_6
ROOT
HETATM    1  C3  UNL     1      -1.911   3.085  11.196  1.00  0.00     0.021 A
HETATM    2  C4  UNL     1      -0.547   2.995  10.642  1.00  0.00     0.023 A
HETATM    3  C5  UNL     1      -1.540   3.811   9.891  1.00  0.00     0.083 A
ENDROOT
BRANCH   3   4
HETATM    4  C6  UNL     1      -1.519   5.286   9.946  1.00  0.00     0.235 C
HETATM    5  N1  UNL     1      -0.298   5.934  10.283  1.00  0.00    -0.062 NA
HETATM    6  O1  UNL     1      -2.503   6.011   9.717  1.00  0.00    -0.276 OA
ENDBRANCH   3   4
BRANCH   1   7
HETATM    7  C2  UNL     1      -2.870   1.975  11.100  1.00  0.00    -0.031 C
HETATM    8  C1  UNL     1      -2.484   0.717  11.272  1.00  0.00     0.007 C
ENDBRANCH   1   7
TORSDOF 2
ENDMDL