MODEL 5
REMARK VINA RESULT: -4.613549620      2.373      2.608
REMARK  2 active torsions:
REMARK  status: ('A' for Active; 'I' for Inactive)
REMARK    1  A    between atoms: C2_2  and  C3_3
REMARK    2  A    between atoms: C5_5  and  N1_6
REMARK       I    between atoms: N1_6  and  C6_8
ROOT
HETATM    1  C3  UNL     1      -1.843   3.654  10.018  1.00  0.00     0.032 A
HETATM    2  C4  UNL     1      -0.375   3.658  10.330  1.00  0.00     0.036 A
HETATM    3  C5  UNL     1      -1.205   4.940  10.234  1.00  0.00     0.094 A
ENDROOT
BRANCH   3   4
HETATM    4  N1  UNL     1      -0.770   5.833   9.217  1.00  0.00    -0.340 N
HETATM    5  C6  UNL     1      -1.612   6.555   8.336  1.00  0.00     0.329 C
HETATM    6  N2  UNL     1      -1.082   7.422   7.353  1.00  0.00    -0.040 NA
HETATM    7  O1  UNL     1      -2.873   6.475   8.366  1.00  0.00    -0.251 OA
ATOM      8  H1  UNL     1       0.236   5.966   9.113  1.00  0.00     0.164 HD
ENDBRANCH   3   4
BRANCH   1   9
HETATM    9  C2  UNL     1      -2.679   3.089  11.146  1.00  0.00    -0.030 C
HETATM   10  C1  UNL     1      -2.216   2.146  11.938  1.00  0.00     0.007 C
ENDBRANCH   1   9
TORSDOF 2
ENDMDL