MODEL 1
REMARK VINA RESULT: -6.298315509      0.000      0.000
REMARK  2 active torsions:
REMARK  status: ('A' for Active; 'I' for Inactive)
REMARK    1  A    between atoms: N1_2  and  N2_4
REMARK       I    between atoms: N2_4  and  C2_6
REMARK       I    between atoms: C2_6  and  N3_8
REMARK    2  A    between atoms: N3_8  and  C3_10
ROOT
HETATM    1  N2  UNL     1       1.996   5.745  10.099  1.00  0.00    -0.256 N
ATOM      2  H2  UNL     1       2.347   5.535  11.034  1.00  0.00     0.191 HD
HETATM    3  C2  UNL     1       0.907   4.964   9.656  1.00  0.00     0.334 C
HETATM    4  O1  UNL     1       0.394   5.131   8.551  1.00  0.00    -0.246 OA
HETATM    5  N3  UNL     1       0.416   3.975  10.534  1.00  0.00    -0.336 N
ATOM      6  H3  UNL     1       0.853   3.835  11.446  1.00  0.00     0.164 HD
ENDROOT
BRANCH   5   7
HETATM    7  C3  UNL     1      -0.712   3.158  10.133  1.00  0.00     0.112 C
HETATM    8  C4  UNL     1      -1.901   3.404  11.001  1.00  0.00     0.028 C
HETATM    9  C5  UNL     1      -2.266   2.092  11.673  1.00  0.00     0.029 C
HETATM   10  C6  UNL     1      -2.618   1.116  10.566  1.00  0.00     0.232 C
HETATM   11  N4  UNL     1      -1.502   0.973   9.667  1.00  0.00    -0.073 N
HETATM   12  C7  UNL     1      -0.315   1.677  10.106  1.00  0.00     0.257 C
ATOM     13  H42 UNL     1      -1.298  -0.013   9.500  1.00  0.00     0.277 HD
ATOM     14  H41 UNL     1      -1.761   1.254   8.722  1.00  0.00     0.277 HD
ENDBRANCH   5   7
BRANCH   1  15
HETATM   15  N1  UNL     1       2.622   6.721   9.449  1.00  0.00    -0.337 N
HETATM   16  C1  UNL     1       2.338   8.061   9.715  1.00  0.00     0.167 C
ATOM     17  H1  UNL     1       3.320   6.486   8.744  1.00  0.00     0.179 HD
ENDBRANCH   1  15
TORSDOF 2
ENDMDL