MODEL 3
REMARK VINA RESULT: -5.976130694      0.995      1.045
REMARK  2 active torsions:
REMARK  status: ('A' for Active; 'I' for Inactive)
REMARK    1  A    between atoms: C5_5  and  N1_6
REMARK       I    between atoms: N1_6  and  C6_8
REMARK       I    between atoms: C6_8  and  N2_10
REMARK    2  A    between atoms: N2_10  and  N3_12
ROOT
HETATM    1  C1  UNL     1      -3.242   1.377  10.837  1.00  0.00     0.040 C
HETATM    2  C2  UNL     1      -2.435   2.010   9.716  1.00  0.00     0.182 C
HETATM    3  C3  UNL     1      -2.873   3.423   9.518  1.00  0.00     0.034 C
HETATM    4  C4  UNL     1      -1.774   4.428   9.490  1.00  0.00     0.029 C
HETATM    5  C5  UNL     1      -0.697   4.215  10.511  1.00  0.00     0.112 C
HETATM    6  C7  UNL     1      -0.618   2.798  11.015  1.00  0.00     0.257 C
HETATM    7  N4  UNL     1      -1.055   1.862  10.052  1.00  0.00    -0.069 N
ATOM      8  H41 UNL     1      -0.470   1.899   9.217  1.00  0.00     0.277 HD
ATOM      9  H42 UNL     1      -0.854   0.909  10.354  1.00  0.00     0.277 HD
ENDROOT
BRANCH   5  10
HETATM   10  N1  UNL     1       0.584   4.534   9.929  1.00  0.00    -0.336 N
HETATM   11  C6  UNL     1       1.096   5.850  10.043  1.00  0.00     0.334 C
HETATM   12  O1  UNL     1       0.455   6.754  10.646  1.00  0.00    -0.246 OA
HETATM   13  N2  UNL     1       2.355   6.174   9.474  1.00  0.00    -0.258 N
ATOM     14  H2  UNL     1       2.895   5.462   8.982  1.00  0.00     0.191 HD
ATOM     15  H1  UNL     1       1.118   3.815   9.438  1.00  0.00     0.164 HD
BRANCH  13  16
HETATM   16  N3  UNL     1       2.844   7.456   9.591  1.00  0.00    -0.341 N
ATOM     17  H32 UNL     1       2.197   8.219   9.790  1.00  0.00     0.177 HD
ATOM     18  H31 UNL     1       3.843   7.626   9.478  1.00  0.00     0.177 HD
ENDBRANCH  13  16
ENDBRANCH   5  10
TORSDOF 2
ENDMDL