MODEL 4
REMARK VINA RESULT: -5.451685958      2.549      4.383
REMARK  2 active torsions:
REMARK  status: ('A' for Active; 'I' for Inactive)
REMARK    1  A    between atoms: C1_4  and  C2_6
REMARK    2  A    between atoms: C6_13  and  C7_14
ROOT
HETATM    1  C2  UNL     1       1.340   7.119   9.056  1.00  0.00     0.262 C
HETATM    2  N3  UNL     1       2.072   8.247   9.682  1.00  0.00    -0.064 N
ATOM      3  H31 UNL     1       3.012   7.998   9.991  1.00  0.00     0.278 HD
ATOM      4  H32 UNL     1       1.704   8.511  10.595  1.00  0.00     0.278 HD
HETATM    5  C3  UNL     1       2.055   9.334   8.717  1.00  0.00     0.233 C
HETATM    6  C4  UNL     1       0.680   9.750   8.362  1.00  0.00     0.028 C
HETATM    7  C5  UNL     1      -0.190   8.584   7.910  1.00  0.00     0.018 C
HETATM    8  C6  UNL     1      -0.089   7.563   9.056  1.00  0.00     0.113 C
ENDROOT
BRANCH   1   9
HETATM    9  C1  UNL     1       1.646   5.861   9.711  1.00  0.00     0.118 C
HETATM   10  N1  UNL     1       1.712   4.784   9.023  1.00  0.00    -0.389 N
ATOM     11  H12 UNL     1       1.927   3.899   9.484  1.00  0.00     0.157 HD
ATOM     12  H11 UNL     1       1.549   4.823   8.017  1.00  0.00     0.157 HD
HETATM   13  N2  UNL     1       1.871   5.807  11.100  1.00  0.00    -0.086 NA
ENDBRANCH   1   9
BRANCH   8  14
HETATM   14  C7  UNL     1      -1.117   6.547   8.996  1.00  0.00     0.237 C
HETATM   15  N4  UNL     1      -1.209   5.587   7.952  1.00  0.00    -0.062 NA
HETATM   16  O1  UNL     1      -1.982   6.527   9.939  1.00  0.00    -0.276 OA
ENDBRANCH   8  14
TORSDOF 2
ENDMDL