MODEL 4
REMARK VINA RESULT: -5.542000197      1.837      2.130
REMARK  3 active torsions:
REMARK  status: ('A' for Active; 'I' for Inactive)
REMARK    1  A    between atoms: O1_2  and  C2_3
REMARK    2  A    between atoms: C2_3  and  N2_7
REMARK       I    between atoms: C3_9  and  N4_11
REMARK    3  A    between atoms: N4_11  and  N5_13
ROOT
HETATM    1  N2  UNL     1      -0.206   5.169   8.706  1.00  0.00    -0.295 N
ATOM      2  H2  UNL     1       0.158   4.374   8.182  1.00  0.00     0.172 HD
HETATM    3  C3  UNL     1      -1.452   5.186   9.077  1.00  0.00     0.210 C
HETATM    4  N3  UNL     1      -1.947   6.286   9.799  1.00  0.00    -0.062 NA
HETATM    5  N4  UNL     1      -2.250   4.068   8.724  1.00  0.00    -0.274 N
ATOM      6  H4  UNL     1      -3.031   4.225   8.087  1.00  0.00     0.189 HD
ENDROOT
BRANCH   1   7
HETATM    7  C2  UNL     1       0.661   6.273   9.033  1.00  0.00     0.218 C
HETATM    8  N1  UNL     1       0.655   7.323   8.294  1.00  0.00    -0.365 N
ATOM      9  H12 UNL     1       1.269   8.104   8.525  1.00  0.00     0.159 HD
ATOM     10  H11 UNL     1       0.034   7.356   7.486  1.00  0.00     0.159 HD
BRANCH   7  11
HETATM   11  O1  UNL     1       1.494   6.229  10.118  1.00  0.00    -0.327 OA
HETATM   12  C1  UNL     1       1.466   7.225  11.151  1.00  0.00     0.213 C
ENDBRANCH   7  11
ENDBRANCH   1   7
BRANCH   5  13
HETATM   13  N5  UNL     1      -2.042   2.778   9.183  1.00  0.00    -0.307 N
HETATM   14  C4  UNL     1      -2.345   2.350  10.352  1.00  0.00    -0.004 C
HETATM   15  C5  UNL     1      -2.968   3.166  11.404  1.00  0.00     0.064 C
HETATM   16  C6  UNL     1      -2.026   0.906  10.632  1.00  0.00     0.064 C
ATOM     17  H5  UNL     1      -1.612   2.115   8.538  1.00  0.00     0.186 HD
ENDBRANCH   5  13
TORSDOF 3
ENDMDL