MODEL 4
REMARK VINA RESULT: -5.656817856      3.529      4.960
REMARK  3 active torsions:
REMARK  status: ('A' for Active; 'I' for Inactive)
REMARK       I    between atoms: C1_2  and  N2_4
REMARK    1  A    between atoms: N2_4  and  N3_6
REMARK    2  A    between atoms: N3_6  and  C2_8
REMARK    3  A    between atoms: C2_8  and  N4_9
ROOT
HETATM    1  C2  UNL     1      -2.065   3.183   9.552  1.00  0.00     0.208 C
HETATM    2  C3  UNL     1      -2.761   1.902   9.110  1.00  0.00     0.062 C
HETATM    3  C4  UNL     1      -2.466   0.758  10.031  1.00  0.00     0.004 C
HETATM    4  C5  UNL     1      -2.570   1.108  11.480  1.00  0.00     0.000 C
HETATM    5  C6  UNL     1      -2.220   2.482  11.883  1.00  0.00     0.004 C
HETATM    6  C7  UNL     1      -2.654   3.529  10.908  1.00  0.00     0.062 C
ENDROOT
BRANCH   1   7
HETATM    7  N3  UNL     1      -2.320   4.166   8.573  1.00  0.00    -0.297 N
ATOM      8  H3  UNL     1      -3.231   4.142   8.115  1.00  0.00     0.183 HD
BRANCH   7   9
HETATM    9  N2  UNL     1      -1.479   5.117   8.196  1.00  0.00    -0.256 N
HETATM   10  C1  UNL     1      -1.304   6.388   8.757  1.00  0.00     0.346 C
HETATM   11  N1  UNL     1      -0.302   7.288   8.167  1.00  0.00    -0.038 NA
HETATM   12  O1  UNL     1      -1.968   6.772   9.732  1.00  0.00    -0.249 OA
ATOM     13  H2  UNL     1      -0.884   4.896   7.398  1.00  0.00     0.191 HD
ENDBRANCH   7   9
ENDBRANCH   1   7
BRANCH   1  14
HETATM   14  N4  UNL     1      -0.658   2.977   9.719  1.00  0.00    -0.051 N
ATOM     15  H43 UNL     1      -0.449   2.506  10.599  1.00  0.00     0.277 HD
ATOM     16  H42 UNL     1      -0.303   2.269   9.076  1.00  0.00     0.277 HD
ATOM     17  H41 UNL     1      -0.146   3.855   9.631  1.00  0.00     0.277 HD
ENDBRANCH   1  14
TORSDOF 3
ENDMDL