MODEL 3
REMARK VINA RESULT: -5.540907011      1.591      2.011
REMARK  2 active torsions:
REMARK  status: ('A' for Active; 'I' for Inactive)
REMARK    1  A    between atoms: C4_7  and  N2_8
REMARK    2  A    between atoms: N2_8  and  C5_11
ROOT
HETATM    1  N2  UNL     1      -0.270   3.050  10.280  1.00  0.00    -0.063 N
ATOM      2  H21 UNL     1       0.255   2.502   9.598  1.00  0.00     0.278 HD
ATOM      3  H22 UNL     1       0.184   2.704  11.126  1.00  0.00     0.278 HD
ENDROOT
BRANCH   1   4
HETATM    4  C4  UNL     1      -1.660   2.753  10.255  1.00  0.00     0.212 C
HETATM    5  C3  UNL     1      -2.303   2.841  11.648  1.00  0.00     0.265 C
HETATM    6  N1  UNL     1      -3.740   2.859  11.380  1.00  0.00    -0.073 N
HETATM    7  C2  UNL     1      -4.174   1.566  10.934  1.00  0.00     0.232 C
ATOM      8  H12 UNL     1      -3.997   3.595  10.722  1.00  0.00     0.277 HD
ATOM      9  H11 UNL     1      -4.275   3.185  12.185  1.00  0.00     0.277 HD
HETATM   10  C1  UNL     1      -3.355   0.942   9.874  1.00  0.00     0.029 C
HETATM   11  C9  UNL     1      -1.935   1.341   9.795  1.00  0.00     0.036 C
ENDBRANCH   1   4
BRANCH   1  12
HETATM   12  C5  UNL     1      -0.082   4.460  10.102  1.00  0.00     0.213 C
HETATM   13  C6  UNL     1      -1.260   5.116   9.374  1.00  0.00     0.062 C
HETATM   14  C7  UNL     1      -0.613   6.408   8.913  1.00  0.00     0.234 C
HETATM   15  N3  UNL     1       0.797   6.189   8.849  1.00  0.00    -0.073 N
HETATM   16  C8  UNL     1       1.033   4.772   9.121  1.00  0.00     0.265 C
ATOM     17  H32 UNL     1       1.209   6.499   7.969  1.00  0.00     0.277 HD
ATOM     18  H31 UNL     1       1.323   6.806   9.468  1.00  0.00     0.277 HD
ENDBRANCH   1  12
TORSDOF 2
ENDMDL