MODEL 4
REMARK VINA RESULT: -5.160608719      1.656      1.767
REMARK  3 active torsions:
REMARK  status: ('A' for Active; 'I' for Inactive)
REMARK    1  A    between atoms: O1_2  and  C2_3
REMARK    2  A    between atoms: C5_6  and  N1_7
REMARK    3  A    between atoms: C6_11  and  N2_12
REMARK       I    between atoms: N2_12  and  C7_14
ROOT
HETATM    1  C2  UNL     1      -3.428   1.404  10.497  1.00  0.00     0.145 C
HETATM    2  C3  UNL     1      -2.914   2.454  11.434  1.00  0.00     0.036 C
HETATM    3  C4  UNL     1      -2.047   3.273  10.488  1.00  0.00     0.037 C
HETATM    4  C5  UNL     1      -2.969   3.409   9.324  1.00  0.00     0.208 C
HETATM    5  C6  UNL     1      -3.504   2.037   9.127  1.00  0.00     0.143 C
ENDROOT
BRANCH   5   6
HETATM    6  N2  UNL     1      -2.793   1.229   8.195  1.00  0.00    -0.356 N
HETATM    7  C7  UNL     1      -3.298   0.624   7.044  1.00  0.00     0.182 C
HETATM    8  N3  UNL     1      -2.848   0.911   5.896  1.00  0.00    -0.374 N
HETATM    9  N4  UNL     1      -4.327  -0.325   7.160  1.00  0.00    -0.064 NA
ATOM     10  H32 UNL     1      -2.100   1.600   5.813  1.00  0.00     0.158 HD
ATOM     11  H31 UNL     1      -3.216   0.469   5.054  1.00  0.00     0.158 HD
ATOM     12  H2  UNL     1      -1.804   1.076   8.390  1.00  0.00     0.162 HD
ENDBRANCH   5   6
BRANCH   1  13
HETATM   13  O1  UNL     1      -4.616   0.835  10.843  1.00  0.00    -0.389 OA
HETATM   14  C1  UNL     1      -5.584   1.689  11.309  1.00  0.00     0.202 C
ENDBRANCH   1  13
BRANCH   4  15
HETATM   15  N1  UNL     1      -2.389   4.007   8.163  1.00  0.00    -0.073 N
ATOM     16  H13 UNL     1      -1.829   4.817   8.426  1.00  0.00     0.274 HD
ATOM     17  H12 UNL     1      -1.659   3.404   7.783  1.00  0.00     0.274 HD
ATOM     18  H11 UNL     1      -3.053   4.259   7.432  1.00  0.00     0.274 HD
ENDBRANCH   4  15
TORSDOF 3
ENDMDL