MODEL 5
REMARK VINA RESULT: -4.724335632      2.238      3.518
REMARK  4 active torsions:
REMARK  status: ('A' for Active; 'I' for Inactive)
REMARK    1  A    between atoms: N1_2  and  S1_4
REMARK    2  A    between atoms: S1_4  and  N2_7
REMARK    3  A    between atoms: N2_7  and  C2_9
REMARK    4  A    between atoms: C2_9  and  O3_13
ROOT
HETATM    1  N2  UNL     1      -0.220   4.709  10.255  1.00  0.00    -0.233 N
ATOM      2  H2  UNL     1      -0.262   4.119  11.086  1.00  0.00     0.184 HD
ENDROOT
BRANCH   1   3
HETATM    3  S1  UNL     1      -1.657   5.226   9.470  1.00  0.00     0.321 S
HETATM    4  O1  UNL     1      -1.417   5.218   7.979  1.00  0.00    -0.182 OA
HETATM    5  O2  UNL     1      -1.928   6.638   9.865  1.00  0.00    -0.182 OA
BRANCH   3   6
HETATM    6  N1  UNL     1      -2.930   4.155   9.813  1.00  0.00    -0.307 N
HETATM    7  C1  UNL     1      -2.781   3.446  11.055  1.00  0.00     0.161 C
ATOM      8  H1  UNL     1      -3.730   4.027   9.193  1.00  0.00     0.173 HD
ENDBRANCH   3   6
ENDBRANCH   1   3
BRANCH   1   9
HETATM    9  C2  UNL     1       1.023   5.121   9.722  1.00  0.00     0.227 C
HETATM   10  N3  UNL     1       1.366   4.718   8.559  1.00  0.00    -0.365 N
ATOM     11  H32 UNL     1       0.733   4.108   8.041  1.00  0.00     0.159 HD
ATOM     12  H31 UNL     1       2.263   5.016   8.174  1.00  0.00     0.159 HD
BRANCH   9  13
HETATM   13  O3  UNL     1       1.878   5.945  10.422  1.00  0.00    -0.327 OA
HETATM   14  C3  UNL     1       1.420   7.176  10.992  1.00  0.00     0.213 C
ENDBRANCH   9  13
ENDBRANCH   1   9
TORSDOF 4
ENDMDL