MODEL 1
REMARK VINA RESULT: -5.789158650      0.000      0.000
REMARK  2 active torsions:
REMARK  status: ('A' for Active; 'I' for Inactive)
REMARK       I    between atoms: N1_2  and  C2_4
REMARK       I    between atoms: C2_4  and  N2_6
REMARK    1  A    between atoms: N2_6  and  C3_8
REMARK    2  A    between atoms: C7_15  and  N4_16
ROOT
HETATM    1  C3  UNL     1      -1.462   2.795  10.059  1.00  0.00     0.318 C
HETATM    2  N3  UNL     1      -2.016   3.393  11.247  1.00  0.00    -0.052 N
ATOM      3  H31 UNL     1      -2.006   4.410  11.170  1.00  0.00     0.279 HD
ATOM      4  H32 UNL     1      -1.382   3.269  12.036  1.00  0.00     0.279 HD
HETATM    5  C4  UNL     1      -3.322   2.936  11.585  1.00  0.00     0.235 C
HETATM    6  C5  UNL     1      -3.678   1.615  10.949  1.00  0.00     0.030 C
HETATM    7  C6  UNL     1      -2.473   0.719  11.051  1.00  0.00     0.038 C
HETATM    8  C7  UNL     1      -1.381   1.268  10.177  1.00  0.00     0.233 C
ENDROOT
BRANCH   1   9
HETATM    9  N2  UNL     1      -0.067   3.241   9.985  1.00  0.00    -0.313 N
HETATM   10  C2  UNL     1       0.279   4.611   9.953  1.00  0.00     0.317 C
HETATM   11  N1  UNL     1       1.638   4.975   9.882  1.00  0.00    -0.347 N
HETATM   12  O1  UNL     1      -0.591   5.510   9.987  1.00  0.00    -0.247 OA
HETATM   13  C1  UNL     1       2.086   6.353   9.845  1.00  0.00     0.151 C
ATOM     14  H1  UNL     1       2.339   4.235   9.855  1.00  0.00     0.163 HD
ATOM     15  H2  UNL     1       0.676   2.542   9.955  1.00  0.00     0.166 HD
ENDBRANCH   1   9
BRANCH   8  16
HETATM   16  N4  UNL     1      -1.469   0.653   8.868  1.00  0.00    -0.071 N
ATOM     17  H43 UNL     1      -2.430   0.408   8.629  1.00  0.00     0.274 HD
ATOM     18  H42 UNL     1      -1.292   1.323   8.121  1.00  0.00     0.274 HD
ATOM     19  H41 UNL     1      -0.847  -0.153   8.810  1.00  0.00     0.274 HD
ENDBRANCH   8  16
TORSDOF 2
ENDMDL