MODEL 5
REMARK VINA RESULT: -6.215008383      3.772      6.124
REMARK  4 active torsions:
REMARK  status: ('A' for Active; 'I' for Inactive)
REMARK       I    between atoms: C1_2  and  N4_9
REMARK    1  A    between atoms: N2_3  and  N3_5
REMARK    2  A    between atoms: N3_5  and  O1_7
REMARK    3  A    between atoms: N4_9  and  C2_11
REMARK    4  A    between atoms: C5_14  and  N5_15
ROOT
HETATM    1  C2  UNL     1      -3.172   2.431  10.312  1.00  0.00     0.084 C
HETATM    2  C3  UNL     1      -2.462   2.725  11.599  1.00  0.00     0.027 C
HETATM    3  C4  UNL     1      -0.966   2.803  11.262  1.00  0.00     0.035 C
HETATM    4  C5  UNL     1      -0.716   4.096  10.531  1.00  0.00     0.183 C
HETATM    5  C6  UNL     1      -1.973   4.595   9.869  1.00  0.00     0.035 C
HETATM    6  C7  UNL     1      -2.824   3.481   9.314  1.00  0.00     0.027 C
ENDROOT
BRANCH   1   7
HETATM    7  N4  UNL     1      -4.582   2.261  10.436  1.00  0.00    -0.359 N
HETATM    8  C1  UNL     1      -5.214   1.048  10.825  1.00  0.00     0.204 C
HETATM    9  N1  UNL     1      -6.390   1.133  11.642  1.00  0.00    -0.062 NA
HETATM   10  N2  UNL     1      -4.805  -0.106  10.496  1.00  0.00    -0.254 N
ATOM     11  H2  UNL     1      -3.971  -0.199   9.916  1.00  0.00     0.191 HD
ATOM     12  H4  UNL     1      -5.177   3.063  10.232  1.00  0.00     0.162 HD
BRANCH  10  13
HETATM   13  N3  UNL     1      -5.477  -1.242  10.916  1.00  0.00    -0.208 N
ATOM     14  H3  UNL     1      -5.078  -1.763  11.696  1.00  0.00     0.215 HD
BRANCH  13  15
HETATM   15  O1  UNL     1      -6.524  -1.676  10.419  1.00  0.00    -0.274 OA
ATOM     16  H1  UNL     1      -6.689  -2.584  10.194  1.00  0.00     0.246 HD
ENDBRANCH  13  15
ENDBRANCH  10  13
ENDBRANCH   1   7
BRANCH   4  17
HETATM   17  N5  UNL     1       0.372   3.946   9.584  1.00  0.00    -0.075 N
ATOM     18  H53 UNL     1       0.029   3.782   8.637  1.00  0.00     0.274 HD
ATOM     19  H52 UNL     1       0.857   4.828   9.422  1.00  0.00     0.274 HD
ATOM     20  H51 UNL     1       1.013   3.212   9.887  1.00  0.00     0.274 HD
ENDBRANCH   4  17
TORSDOF 4
ENDMDL