MODEL 3
REMARK VINA RESULT: -5.919573993      3.590      5.430
REMARK  2 active torsions:
REMARK  status: ('A' for Active; 'I' for Inactive)
REMARK    1  A    between atoms: C4_5  and  N1_6
REMARK       I    between atoms: N1_6  and  C5_8
REMARK    2  A    between atoms: C5_8  and  C6_10
ROOT
HETATM    1  N1  UNL     1      11.709  -7.721  -3.376  1.00  0.00    -0.322 N
ATOM      2  H1  UNL     1      11.822  -8.584  -2.845  1.00  0.00     0.169 HD
HETATM    3  C5  UNL     1      12.290  -6.585  -2.863  1.00  0.00     0.277 C
HETATM    4  O1  UNL     1      12.236  -5.476  -3.392  1.00  0.00    -0.268 OA
ENDROOT
BRANCH   1   5
HETATM    5  C4  UNL     1      10.942  -7.798  -4.621  1.00  0.00     0.048 A
HETATM    6  C3  UNL     1      10.660  -6.687  -5.358  1.00  0.00     0.080 A
HETATM    7  S1  UNL     1       9.759  -7.298  -6.680  1.00  0.00    -0.104 SA
HETATM    8  C2  UNL     1       9.764  -8.936  -6.267  1.00  0.00    -0.013 A
HETATM    9  C1  UNL     1       9.140 -10.116  -6.994  1.00  0.00     0.057 C
HETATM   10  C7  UNL     1      10.470  -8.987  -5.099  1.00  0.00    -0.022 A
HETATM   11  C8  UNL     1      10.702 -10.327  -4.394  1.00  0.00     0.052 C
ENDBRANCH   1   5
BRANCH   3  12
HETATM   12  C6  UNL     1      13.044  -6.661  -1.579  1.00  0.00     0.269 C
HETATM   13 CL1  UNL     1      14.793  -6.690  -1.866  1.00  0.00    -0.073 Cl
HETATM   14 CL2  UNL     1      12.667  -5.343  -0.487  1.00  0.00    -0.073 Cl
HETATM   15 CL3  UNL     1      12.606  -8.202  -0.792  1.00  0.00    -0.073 Cl
ENDBRANCH   3  12
TORSDOF 2
ENDMDL