MODEL 3
REMARK VINA RESULT: -5.387055125      3.647      5.060
REMARK  3 active torsions:
REMARK  status: ('A' for Active; 'I' for Inactive)
REMARK    1  A    between atoms: C2_2  and  N1_3
REMARK    2  A    between atoms: C11_15  and  O1_16
REMARK    3  A    between atoms: O1_16  and  C12_17
ROOT
HETATM    1  C1  UNL     1      13.157 -11.761 -10.404  1.00  0.00     0.046 C
HETATM    2  C2  UNL     1      13.123 -13.034  -9.580  1.00  0.00     0.121 C
HETATM    3  C3  UNL     1      13.805 -12.810  -8.263  1.00  0.00     0.039 C
HETATM    4  C4  UNL     1      12.803 -13.099  -7.177  1.00  0.00     0.012 C
HETATM    5  C5  UNL     1      11.456 -13.197  -7.827  1.00  0.00    -0.036 C
HETATM    6  C6  UNL     1      10.762 -14.421  -7.270  1.00  0.00     0.010 C
HETATM    7  C7  UNL     1      10.413 -14.101  -5.857  1.00  0.00     0.012 C
HETATM    8  C8  UNL     1       9.332 -13.037  -5.858  1.00  0.00    -0.021 C
HETATM    9  C9  UNL     1       9.071 -12.748  -4.393  1.00  0.00     0.017 C
HETATM   10  C10 UNL     1       8.020 -13.604  -6.389  1.00  0.00     0.017 C
HETATM   11  C11 UNL     1       9.750 -11.810  -6.547  1.00  0.00     0.139 C
HETATM   12  C13 UNL     1      10.640 -11.969  -7.754  1.00  0.00     0.042 C
HETATM   13  C14 UNL     1      11.724 -13.496  -9.304  1.00  0.00     0.048 C
ENDROOT
BRANCH  11  14
HETATM   14  O1  UNL     1      10.265 -10.875  -5.672  1.00  0.00    -0.292 OA
BRANCH  14  15
HETATM   15  C12 UNL     1       9.665  -9.646  -5.692  1.00  0.00     0.525 C
HETATM   16  F1  UNL     1       8.359  -9.748  -6.077  1.00  0.00    -0.144 F
HETATM   17  F2  UNL     1       9.669  -9.173  -4.386  1.00  0.00    -0.144 F
HETATM   18  F3  UNL     1      10.296  -8.750  -6.541  1.00  0.00    -0.144 F
ENDBRANCH  14  15
ENDBRANCH  11  14
BRANCH   2  19
HETATM   19  N1  UNL     1      13.796 -14.057 -10.377  1.00  0.00    -0.071 N
ATOM     20  H13 UNL     1      14.142 -14.840  -9.821  1.00  0.00     0.275 HD
ATOM     21  H12 UNL     1      13.161 -14.593 -10.968  1.00  0.00     0.275 HD
ATOM     22  H11 UNL     1      14.529 -13.577 -10.900  1.00  0.00     0.275 HD
ENDBRANCH   2  19
TORSDOF 3
ENDMDL