MODEL 2
REMARK VINA RESULT: -6.122092145      1.898      2.662
REMARK  2 active torsions:
REMARK  status: ('A' for Active; 'I' for Inactive)
REMARK    1  A    between atoms: C11_12  and  N1_13
REMARK    2  A    between atoms: N1_13  and  C12_15
ROOT
HETATM    1  C1  UNL     1       8.337 -13.284  -8.142  1.00  0.00     0.016 C
HETATM    2  C2  UNL     1       9.580 -13.825  -7.469  1.00  0.00     0.029 C
HETATM    3  C3  UNL     1       9.297 -15.155  -6.912  1.00  0.00    -0.000 C
HETATM    4  C4  UNL     1       9.913 -15.603  -5.851  1.00  0.00     0.017 C
HETATM    5 CL1  UNL     1       9.521 -17.195  -5.250  1.00  0.00    -0.088 Cl
HETATM    6  C5  UNL     1      10.921 -14.818  -5.140  1.00  0.00    -0.001 C
HETATM    7  C6  UNL     1      12.167 -15.692  -4.930  1.00  0.00     0.021 C
HETATM    8  C7  UNL     1      10.379 -14.575  -3.737  1.00  0.00     0.021 C
HETATM    9  C8  UNL     1      11.299 -13.525  -5.815  1.00  0.00    -0.015 C
HETATM   10  C9  UNL     1      12.085 -12.702  -4.860  1.00  0.00     0.018 C
HETATM   11  C10 UNL     1      12.230 -13.894  -6.978  1.00  0.00     0.018 C
HETATM   12  C11 UNL     1      10.037 -12.897  -6.341  1.00  0.00     0.099 C
ENDROOT
BRANCH  12  13
HETATM   13  N1  UNL     1      10.155 -11.554  -6.798  1.00  0.00    -0.367 N
ATOM     14  H1  UNL     1      10.681 -11.411  -7.659  1.00  0.00     0.161 HD
BRANCH  13  15
HETATM   15  C12 UNL     1       9.618 -10.397  -6.185  1.00  0.00     0.175 A
HETATM   16  N2  UNL     1       8.711 -10.048  -5.237  1.00  0.00    -0.304 N
HETATM   17  C13 UNL     1       9.398  -8.999  -5.879  1.00  0.00     0.382 A
ATOM     18  H2  UNL     1       8.020 -10.340  -4.546  1.00  0.00     0.167 HD
HETATM   19  F1  UNL     1      10.306  -8.322  -5.051  1.00  0.00    -0.174 F
HETATM   20  F2  UNL     1       8.757  -8.135  -6.735  1.00  0.00    -0.174 F
ENDBRANCH  13  15
ENDBRANCH  12  13
TORSDOF 2
ENDMDL