MODEL 4
REMARK VINA RESULT: -7.290068528      3.204      7.119
REMARK  4 active torsions:
REMARK  status: ('A' for Active; 'I' for Inactive)
REMARK    1  A    between atoms: C2_2  and  O1_3
REMARK    2  A    between atoms: C2_2  and  C14_17
REMARK    3  A    between atoms: O1_3  and  C3_4
REMARK    4  A    between atoms: C9_10  and  O2_12
ROOT
HETATM    1  C3  UNL     1      10.592  -7.945  -4.160  1.00  0.00     0.123 C
HETATM    2  C4  UNL     1      10.755  -7.517  -5.617  1.00  0.00     0.033 C
HETATM    3  C5  UNL     1       9.680  -8.328  -6.304  1.00  0.00     0.012 C
HETATM    4  C6  UNL     1       9.877  -9.690  -5.623  1.00  0.00    -0.038 C
HETATM    5  C7  UNL     1      11.208 -10.257  -5.991  1.00  0.00     0.012 C
HETATM    6  C8  UNL     1      11.299 -11.715  -5.695  1.00  0.00     0.038 C
HETATM    7  C9  UNL     1      10.168 -12.457  -6.362  1.00  0.00     0.054 C
HETATM    8  C10 UNL     1      10.325 -13.942  -6.207  1.00  0.00     0.045 C
HETATM    9  C11 UNL     1       8.883 -11.997  -5.692  1.00  0.00     0.038 C
HETATM   10  C12 UNL     1       8.713 -10.539  -5.980  1.00  0.00     0.012 C
HETATM   11  C13 UNL     1       9.909  -9.273  -4.170  1.00  0.00     0.041 C
ENDROOT
BRANCH   1  12
HETATM   12  O1  UNL     1      11.822  -7.966  -3.505  1.00  0.00    -0.372 OA
BRANCH  12  13
HETATM   13  C2  UNL     1      11.727  -7.291  -2.292  1.00  0.00     0.225 C
HETATM   14  C1  UNL     1      12.129  -8.214  -1.162  1.00  0.00     0.049 C
BRANCH  13  15
HETATM   15  C14 UNL     1      12.568  -6.031  -2.288  1.00  0.00     0.412 C
HETATM   16  F1  UNL     1      11.800  -5.006  -1.792  1.00  0.00    -0.168 F
HETATM   17  F2  UNL     1      13.731  -6.179  -1.585  1.00  0.00    -0.168 F
HETATM   18  F3  UNL     1      12.879  -5.721  -3.597  1.00  0.00    -0.168 F
ENDBRANCH  13  15
ENDBRANCH  12  13
ENDBRANCH   1  12
BRANCH   7  19
HETATM   19  O2  UNL     1      10.112 -12.058  -7.689  1.00  0.00    -0.390 OA
ATOM     20  H2  UNL     1      10.132 -12.837  -8.234  1.00  0.00     0.210 HD
ENDBRANCH   7  19
TORSDOF 4
ENDMDL