MODEL 1
REMARK VINA RESULT: -8.442276794      0.000      0.000
REMARK  3 active torsions:
REMARK  status: ('A' for Active; 'I' for Inactive)
REMARK    1  A    between atoms: O1_1  and  C1_3
REMARK    2  A    between atoms: C1_3  and  N1_4
REMARK    3  A    between atoms: C5_8  and  C6_9
ROOT
HETATM    1  C1  UNL     1      11.681  -7.027  -3.133  1.00  0.00     0.136 C
HETATM    2  C8  UNL     1      11.330  -7.820  -1.890  1.00  0.00     0.061 C
HETATM    3  C9  UNL     1      12.521  -7.938  -0.962  1.00  0.00     0.005 C
HETATM    4  C10 UNL     1      12.649  -6.802   0.001  1.00  0.00     0.000 C
HETATM    5  C11 UNL     1      13.850  -5.983  -0.415  1.00  0.00     0.000 C
HETATM    6  C12 UNL     1      13.499  -4.768  -1.212  1.00  0.00     0.000 C
HETATM    7  C13 UNL     1      13.227  -5.092  -2.680  1.00  0.00     0.005 C
HETATM    8  C14 UNL     1      11.813  -5.565  -2.910  1.00  0.00     0.061 C
ENDROOT
BRANCH   1   9
HETATM    9  O1  UNL     1      12.991  -7.478  -3.462  1.00  0.00    -0.370 OA
ATOM     10  H1  UNL     1      13.536  -6.699  -3.444  1.00  0.00     0.212 HD
ENDBRANCH   1   9
BRANCH   1  11
HETATM   11  N1  UNL     1      10.863  -7.446  -4.206  1.00  0.00    -0.341 N
HETATM   12  C2  UNL     1      11.134  -6.896  -5.470  1.00  0.00     0.066 C
HETATM   13  C3  UNL     1       9.867  -7.012  -6.310  1.00  0.00     0.046 C
HETATM   14  C4  UNL     1       9.725  -8.500  -6.593  1.00  0.00     0.024 C
HETATM   15  C5  UNL     1       9.715  -9.312  -5.338  1.00  0.00     0.132 C
HETATM   16  C7  UNL     1      10.148  -8.638  -4.099  1.00  0.00     0.079 C
BRANCH  15  17
HETATM   17  C6  UNL     1      10.476 -10.627  -5.559  1.00  0.00     0.395 C
HETATM   18  F1  UNL     1       9.584 -11.674  -5.715  1.00  0.00    -0.170 F
HETATM   19  F2  UNL     1      11.273 -10.943  -4.474  1.00  0.00    -0.170 F
HETATM   20  F3  UNL     1      11.263 -10.565  -6.692  1.00  0.00    -0.170 F
ENDBRANCH  15  17
ENDBRANCH   1  11
TORSDOF 3
ENDMDL