MODEL 1
REMARK VINA RESULT: -4.634229968      0.000      0.000
REMARK  2 active torsions:
REMARK  status: ('A' for Active; 'I' for Inactive)
REMARK    1  A    between atoms: C6_9  and  C7_10
REMARK    2  A    between atoms: C9_12  and  O1_14
ROOT
HETATM    1  C1  UNL     1      13.222 -14.566  -7.526  1.00  0.00     0.068 C
HETATM    2  C2  UNL     1      12.737 -15.277  -6.302  1.00  0.00     0.013 A
HETATM    3  N1  UNL     1      13.194 -16.499  -6.018  1.00  0.00    -0.369 N
ATOM      4  H1  UNL     1      13.863 -16.925  -6.658  1.00  0.00     0.165 HD
HETATM    5  C3  UNL     1      12.820 -17.195  -4.933  1.00  0.00     0.090 A
HETATM    6  C4  UNL     1      11.923 -16.642  -4.058  1.00  0.00     0.041 A
HETATM    7  C5  UNL     1      11.394 -15.354  -4.292  1.00  0.00     0.044 A
HETATM    8 CL1  UNL     1      10.261 -14.775  -3.082  1.00  0.00    -0.084 Cl
HETATM    9  C6  UNL     1      11.804 -14.688  -5.406  1.00  0.00    -0.007 A
ENDROOT
BRANCH   9  10
HETATM   10  C7  UNL     1      11.356 -13.381  -5.803  1.00  0.00     0.067 C
HETATM   11  C8  UNL     1      11.036 -12.325  -4.855  1.00  0.00     0.053 C
HETATM   12  C9  UNL     1       9.607 -12.246  -5.377  1.00  0.00     0.091 C
HETATM   13  C10 UNL     1       9.207 -10.863  -5.849  1.00  0.00     0.049 C
HETATM   14  C11 UNL     1      10.003 -13.213  -6.410  1.00  0.00     0.151 C
HETATM   15 CL2  UNL     1      10.084 -12.361  -7.996  1.00  0.00    -0.098 Cl
HETATM   16 CL3  UNL     1       8.902 -14.562  -6.482  1.00  0.00    -0.098 Cl
BRANCH  12  17
HETATM   17  O1  UNL     1       8.658 -12.763  -4.492  1.00  0.00    -0.387 OA
ATOM     18  H1  UNL     1       7.812 -12.333  -4.545  1.00  0.00     0.210 HD
ENDBRANCH  12  17
ENDBRANCH   9  10
TORSDOF 2
ENDMDL