MODEL 3
REMARK VINA RESULT: -4.544282446      1.730      4.197
REMARK  2 active torsions:
REMARK  status: ('A' for Active; 'I' for Inactive)
REMARK    1  A    between atoms: C10_13  and  C11_15
REMARK    2  A    between atoms: C11_15  and  O2_16
ROOT
HETATM    1  C1  UNL     1      11.297 -15.484  -9.002  1.00  0.00     0.043 C
HETATM    2  C2  UNL     1      10.831 -15.210  -7.611  1.00  0.00    -0.078 C
HETATM    3  C3  UNL     1      10.023 -16.355  -7.051  1.00  0.00     0.043 C
HETATM    4  C4  UNL     1      10.982 -14.096  -6.956  1.00  0.00    -0.015 C
HETATM    5  C5  UNL     1      10.458 -14.022  -5.560  1.00  0.00     0.051 C
HETATM    6  C6  UNL     1      10.868 -14.780  -4.597  1.00  0.00     0.117 C
HETATM    7 CL1  UNL     1      10.096 -14.529  -3.020  1.00  0.00    -0.070 Cl
HETATM    8 CL2  UNL     1      12.156 -15.934  -4.672  1.00  0.00    -0.070 Cl
HETATM    9  C7  UNL     1       9.505 -12.905  -5.343  1.00  0.00     0.162 C
HETATM   10  O1  UNL     1       8.797 -12.870  -4.349  1.00  0.00    -0.292 OA
HETATM   11  C8  UNL     1       9.501 -11.897  -6.390  1.00  0.00     0.086 C
HETATM   12  C9  UNL     1      10.860 -11.617  -6.964  1.00  0.00     0.041 C
HETATM   13  C10 UNL     1      11.570 -12.854  -7.522  1.00  0.00     0.086 C
HETATM   14 CL3  UNL     1      11.475 -12.786  -9.272  1.00  0.00    -0.112 Cl
ENDROOT
BRANCH  13  15
HETATM   15  C11 UNL     1      13.009 -12.736  -7.092  1.00  0.00     0.194 C
BRANCH  15  16
HETATM   16  O2  UNL     1      13.950 -12.746  -8.076  1.00  0.00    -0.399 OA
ATOM     17  H2  UNL     1      14.750 -13.226  -7.901  1.00  0.00     0.209 HD
ENDBRANCH  15  16
ENDBRANCH  13  15
TORSDOF 2
ENDMDL