MODEL 5
REMARK VINA RESULT: -5.450418224      5.018      7.996
REMARK  1 active torsions:
REMARK  status: ('A' for Active; 'I' for Inactive)
REMARK    1  A    between atoms: N2_9  and  C4_10
ROOT
HETATM    1  O1  UNL     1       9.247 -10.152  -7.397  1.00  0.00    -0.265 OA
HETATM    2  C1  UNL     1       9.869  -9.856  -6.339  1.00  0.00     0.288 A
HETATM    3  C2  UNL     1      10.049  -8.540  -5.938  1.00  0.00     0.143 A
HETATM    4 CL1  UNL     1       9.516  -7.071  -6.712  1.00  0.00    -0.075 Cl
HETATM    5  C3  UNL     1      10.759  -8.602  -4.762  1.00  0.00     0.145 A
HETATM    6 CL2  UNL     1      11.286  -7.259  -3.783  1.00  0.00    -0.061 Cl
HETATM    7  N1  UNL     1      10.973  -9.888  -4.506  1.00  0.00    -0.282 N
ATOM      8  H1  UNL     1      11.479 -10.234  -3.691  1.00  0.00     0.188 HD
HETATM    9  N2  UNL     1      10.450 -10.661  -5.436  1.00  0.00    -0.239 N
ENDROOT
BRANCH   9  10
HETATM   10  C4  UNL     1      10.448 -12.112  -5.550  1.00  0.00     0.179 C
HETATM   11  C5  UNL     1       9.229 -12.725  -5.877  1.00  0.00    -0.156 C
HETATM   12  C6  UNL     1       8.031 -13.337  -6.282  1.00  0.00     0.082 C
HETATM   13  C7  UNL     1       8.358 -14.105  -7.609  1.00  0.00     0.013 C
HETATM   14  C8  UNL     1       9.658 -13.595  -8.240  1.00  0.00     0.021 C
HETATM   15  C9  UNL     1      10.918 -13.604  -7.575  1.00  0.00     0.085 C
HETATM   16 CL3  UNL     1      12.199 -13.691  -8.870  1.00  0.00    -0.125 Cl
HETATM   17  C10 UNL     1      11.443 -12.479  -6.710  1.00  0.00     0.059 C
ENDBRANCH   9  10
TORSDOF 1
ENDMDL