MODEL 5
REMARK VINA RESULT: -4.369003774      4.802      6.790
REMARK  1 active torsions:
REMARK  status: ('A' for Active; 'I' for Inactive)
REMARK    1  A    between atoms: C5_6  and  C6_7
ROOT
HETATM    1  C1  UNL     1      10.955 -13.678  -7.040  1.00  0.00     0.025 C
HETATM    2  C2  UNL     1       9.865 -13.145  -6.167  1.00  0.00     0.037 C
HETATM    3  C3  UNL     1       8.576 -13.821  -6.513  1.00  0.00     0.025 C
HETATM    4  C4  UNL     1       9.750 -11.644  -6.256  1.00  0.00     0.004 A
HETATM    5  S1  UNL     1       9.011 -10.358  -7.087  1.00  0.00    -0.085 SA
HETATM    6  C5  UNL     1       9.703  -9.038  -6.233  1.00  0.00     0.104 A
HETATM    7  C7  UNL     1      10.495  -9.658  -5.320  1.00  0.00     0.065 A
HETATM    8 CL1  UNL     1      11.440  -8.653  -4.177  1.00  0.00    -0.082 Cl
HETATM    9  C8  UNL     1      10.521 -11.016  -5.331  1.00  0.00    -0.016 A
HETATM   10  C9  UNL     1      11.201 -12.136  -4.565  1.00  0.00     0.103 C
HETATM   11  C10 UNL     1      10.249 -13.306  -4.711  1.00  0.00     0.194 C
HETATM   12  F1  UNL     1       9.147 -13.171  -3.892  1.00  0.00    -0.224 F
HETATM   13 CL2  UNL     1      11.112 -14.825  -4.453  1.00  0.00    -0.081 Cl
ENDROOT
BRANCH   6  14
HETATM   14  C6  UNL     1       9.474  -7.593  -6.458  1.00  0.00     0.218 C
HETATM   15  O1  UNL     1       8.462  -7.251  -7.063  1.00  0.00    -0.643 OA
HETATM   16  O2  UNL     1      10.402  -6.709  -5.980  1.00  0.00    -0.643 OA
ENDBRANCH   6  14
TORSDOF 1
ENDMDL