MODEL 4
REMARK VINA RESULT: -5.558619643      1.860      3.412
REMARK  2 active torsions:
REMARK  status: ('A' for Active; 'I' for Inactive)
REMARK    1  A    between atoms: C2_2  and  C3_3
REMARK    2  A    between atoms: C12_13  and  O2_14
ROOT
HETATM    1  C3  UNL     1      10.544 -15.632  -4.924  1.00  0.00     0.023 C
HETATM    2  C4  UNL     1      11.515 -16.818  -5.022  1.00  0.00     0.008 C
HETATM    3  C5  UNL     1      11.323 -17.196  -6.451  1.00  0.00     0.004 C
HETATM    4  C6  UNL     1      10.999 -15.924  -7.196  1.00  0.00     0.042 C
HETATM    5  C7  UNL     1      10.634 -14.864  -6.159  1.00  0.00     0.102 C
HETATM    6  O1  UNL     1      11.413 -13.749  -6.221  1.00  0.00    -0.359 OA
HETATM    7  C8  UNL     1      10.672 -12.600  -6.313  1.00  0.00     0.107 C
HETATM    8  C9  UNL     1      10.494 -12.116  -7.750  1.00  0.00     0.045 C
HETATM    9  C10 UNL     1       9.142 -12.600  -8.297  1.00  0.00     0.007 C
HETATM   10  C11 UNL     1       9.223 -14.125  -8.095  1.00  0.00     0.047 C
HETATM   11  C12 UNL     1       9.242 -14.359  -6.595  1.00  0.00     0.132 C
HETATM   12  C13 UNL     1       9.318 -13.034  -5.870  1.00  0.00     0.082 C
HETATM   13  N1  UNL     1       8.550 -12.374  -5.105  1.00  0.00    -0.269 N
ATOM     14  H1  UNL     1       7.634 -12.739  -4.845  1.00  0.00     0.194 HD
HETATM   15  O3  UNL     1       8.987 -11.146  -4.629  1.00  0.00    -0.280 OA
HETATM   16  C14 UNL     1      10.079 -10.470  -5.220  1.00  0.00     0.204 C
HETATM   17  C15 UNL     1      11.208 -11.423  -5.563  1.00  0.00     0.073 C
ENDROOT
BRANCH   1  18
HETATM   18  C2  UNL     1      10.776 -15.030  -3.606  1.00  0.00     0.003 C
HETATM   19  C1  UNL     1      10.718 -15.990  -2.442  1.00  0.00     0.005 C
ENDBRANCH   1  18
BRANCH  11  20
HETATM   20  O2  UNL     1       8.232 -15.153  -6.140  1.00  0.00    -0.381 OA
ATOM     21  H2  UNL     1       8.538 -16.011  -5.871  1.00  0.00     0.211 HD
ENDBRANCH  11  20
TORSDOF 2
ENDMDL