MODEL 4
REMARK VINA RESULT: -5.278794893      3.678      5.785
REMARK  4 active torsions:
REMARK  status: ('A' for Active; 'I' for Inactive)
REMARK    1  A    between atoms: C2_2  and  N1_4
REMARK    2  A    between atoms: N1_4  and  C4_6
REMARK    3  A    between atoms: C4_6  and  O1_8
REMARK    4  A    between atoms: O1_8  and  C5_9
ROOT
HETATM    1  C5  UNL     1      10.512 -14.310  -5.612  1.00  0.00     0.194 C
HETATM    2  C6  UNL     1      11.384 -13.678  -4.548  1.00  0.00     0.039 C
HETATM    3  C7  UNL     1      11.731 -12.289  -5.095  1.00  0.00     0.017 C
HETATM    4  C8  UNL     1      10.426 -11.888  -5.725  1.00  0.00     0.012 C
HETATM    5  C9  UNL     1       9.472 -11.339  -4.702  1.00  0.00     0.020 C
HETATM    6  C10 UNL     1      10.728 -10.827  -6.760  1.00  0.00     0.020 C
HETATM    7  C11 UNL     1       9.951 -13.153  -6.360  1.00  0.00     0.198 C
HETATM    8  O2  UNL     1      10.421 -13.197  -7.680  1.00  0.00    -0.350 OA
HETATM    9  C12 UNL     1       9.659 -14.198  -8.281  1.00  0.00     0.198 C
HETATM   10  C13 UNL     1       8.361 -14.101  -7.551  1.00  0.00     0.198 C
HETATM   11  O3  UNL     1       8.562 -13.208  -6.477  1.00  0.00    -0.350 OA
ENDROOT
BRANCH   1  12
HETATM   12  O1  UNL     1       9.531 -15.162  -5.060  1.00  0.00    -0.316 OA
BRANCH  12  13
HETATM   13  C4  UNL     1       9.890 -16.476  -4.818  1.00  0.00     0.210 C
HETATM   14  S1  UNL     1      10.495 -17.303  -6.086  1.00  0.00    -0.033 SA
BRANCH  13  15
HETATM   15  N1  UNL     1       9.765 -17.124  -3.564  1.00  0.00    -0.358 N
ATOM     16  H1  UNL     1       8.990 -17.776  -3.440  1.00  0.00     0.162 HD
BRANCH  15  17
HETATM   17  C2  UNL     1      10.653 -16.924  -2.461  1.00  0.00     0.076 C
HETATM   18  C1  UNL     1      12.096 -16.793  -2.870  1.00  0.00     0.032 C
HETATM   19  C3  UNL     1      10.285 -15.667  -1.707  1.00  0.00     0.032 C
ENDBRANCH  15  17
ENDBRANCH  13  15
ENDBRANCH  12  13
ENDBRANCH   1  12
TORSDOF 4
ENDMDL