MODEL 5
REMARK VINA RESULT: -6.018380865      1.921      3.305
REMARK  3 active torsions:
REMARK  status: ('A' for Active; 'I' for Inactive)
REMARK    1  A    between atoms: C2_2  and  C4_4
REMARK    2  A    between atoms: C4_4  and  C5_5
REMARK    3  A    between atoms: C9_15  and  N4_16
ROOT
HETATM    1  C4  UNL     1       9.924 -12.692  -6.374  1.00  0.00     0.080 C
HETATM    2  C8  UNL     1       9.114 -12.397  -5.149  1.00  0.00     0.089 C
HETATM    3  N3  UNL     1       9.096 -11.049  -4.806  1.00  0.00    -0.348 N
ATOM      4  H3  UNL     1       8.765 -10.777  -3.880  1.00  0.00     0.167 HD
HETATM    5  C9  UNL     1       9.481 -10.146  -5.615  1.00  0.00     0.143 C
HETATM    6  S1  UNL     1       9.978 -11.016  -7.101  1.00  0.00    -0.073 SA
ENDROOT
BRANCH   1   7
HETATM    7  C2  UNL     1       9.204 -13.591  -7.350  1.00  0.00     0.006 C
HETATM    8  C1  UNL     1       7.966 -14.211  -6.767  1.00  0.00     0.012 C
HETATM    9  C3  UNL     1       8.761 -12.751  -8.521  1.00  0.00     0.012 C
ENDBRANCH   1   7
BRANCH   1  10
HETATM   10  C5  UNL     1      11.239 -13.228  -6.045  1.00  0.00     0.000 A
HETATM   11  C6  UNL     1      12.122 -12.798  -5.083  1.00  0.00     0.117 A
HETATM   12  N1  UNL     1      13.257 -13.560  -5.117  1.00  0.00    -0.312 N
HETATM   13  N2  UNL     1      13.082 -14.435  -6.069  1.00  0.00    -0.312 N
ATOM     14  H1  UNL     1      14.076 -13.463  -4.518  1.00  0.00     0.186 HD
HETATM   15  C7  UNL     1      11.874 -14.277  -6.664  1.00  0.00     0.117 A
ATOM     16  H2  UNL     1      13.765 -15.145  -6.331  1.00  0.00     0.186 HD
ENDBRANCH   1  10
BRANCH   5  17
HETATM   17  N4  UNL     1       9.518  -8.748  -5.393  1.00  0.00    -0.362 N
HETATM   18  C10 UNL     1      10.098  -8.058  -4.228  1.00  0.00     0.125 C
HETATM   19  C11 UNL     1      11.117  -7.193  -4.999  1.00  0.00     0.021 C
HETATM   20  C12 UNL     1      10.233  -6.670  -6.118  1.00  0.00     0.021 C
HETATM   21  C13 UNL     1       9.056  -7.664  -6.214  1.00  0.00     0.125 C
ENDBRANCH   5  17
TORSDOF 3
ENDMDL