MODEL 1
REMARK VINA RESULT: -6.459748257      0.000      0.000
REMARK  3 active torsions:
REMARK  status: ('A' for Active; 'I' for Inactive)
REMARK    1  A    between atoms: C3_3  and  N1_4
REMARK    2  A    between atoms: C5_6  and  C6_7
REMARK    3  A    between atoms: C12_18  and  C13_19
ROOT
HETATM    1  C1  UNL     1      11.677 -13.764  -4.707  1.00  0.00     0.051 C
HETATM    2  C2  UNL     1      10.437 -14.179  -5.359  1.00  0.00    -0.025 A
HETATM    3  C3  UNL     1       9.624 -13.209  -5.949  1.00  0.00     0.059 A
HETATM    4  C10 UNL     1       8.466 -13.582  -6.555  1.00  0.00     0.117 A
HETATM    5  N4  UNL     1       8.075 -14.849  -6.606  1.00  0.00    -0.372 N
ATOM      6  H4  UNL     1       7.202 -15.111  -7.065  1.00  0.00     0.164 HD
HETATM    7  C11 UNL     1       8.860 -15.775  -6.038  1.00  0.00     0.096 A
HETATM    8  C12 UNL     1      10.054 -15.514  -5.399  1.00  0.00    -0.027 A
ENDROOT
BRANCH   3   9
HETATM    9  N1  UNL     1       9.932 -11.821  -5.931  1.00  0.00    -0.318 N
HETATM   10  C4  UNL     1       9.417 -10.885  -4.956  1.00  0.00     0.157 C
HETATM   11  C5  UNL     1      10.402  -9.726  -4.999  1.00  0.00     0.106 C
HETATM   12  N2  UNL     1      11.018  -9.909  -6.282  1.00  0.00    -0.358 N
HETATM   13  C9  UNL     1      10.762 -11.061  -6.796  1.00  0.00     0.191 C
ATOM     14  H2  UNL     1      11.597  -9.204  -6.737  1.00  0.00     0.162 HD
HETATM   15  N3  UNL     1      11.240 -11.510  -8.049  1.00  0.00    -0.063 NA
BRANCH  11  16
HETATM   16  C6  UNL     1       9.623  -8.430  -4.926  1.00  0.00     0.002 C
HETATM   17  C7  UNL     1       9.042  -8.096  -6.281  1.00  0.00     0.011 C
HETATM   18  C8  UNL     1      10.517  -7.313  -4.462  1.00  0.00     0.011 C
ENDBRANCH  11  16
ENDBRANCH   3   9
BRANCH   8  19
HETATM   19  C13 UNL     1      10.841 -16.613  -4.823  1.00  0.00    -0.022 C
HETATM   20  C14 UNL     1      10.060 -17.916  -5.076  1.00  0.00     0.019 C
HETATM   21  C15 UNL     1      12.166 -16.861  -5.515  1.00  0.00     0.019 C
HETATM   22  C16 UNL     1      11.031 -16.500  -3.338  1.00  0.00     0.019 C
ENDBRANCH   8  19
TORSDOF 3
ENDMDL