MODEL 2
REMARK VINA RESULT: -6.288397089      2.234      5.925
REMARK  2 active torsions:
REMARK  status: ('A' for Active; 'I' for Inactive)
REMARK    1  A    between atoms: C2_2  and  C4_4
REMARK    2  A    between atoms: C4_4  and  N1_5
ROOT
HETATM    1  N1  UNL     1      10.528 -15.895  -4.944  1.00  0.00    -0.374 N
ATOM      2  H1  UNL     1       9.881 -16.651  -4.717  1.00  0.00     0.164 HD
HETATM    3  C5  UNL     1      10.178 -15.285  -5.956  1.00  0.00     0.013 C
HETATM    4  C6  UNL     1       8.907 -15.768  -6.626  1.00  0.00     0.132 C
HETATM    5  C7  UNL     1       8.045 -14.561  -6.681  1.00  0.00     0.134 C
HETATM    6  O1  UNL     1       6.891 -14.653  -6.330  1.00  0.00    -0.298 OA
HETATM    7  C8  UNL     1       8.617 -13.286  -7.162  1.00  0.00     0.119 C
HETATM    8  C9  UNL     1       9.917 -12.909  -6.439  1.00  0.00     0.153 C
HETATM    9  C10 UNL     1      10.499 -11.737  -7.153  1.00  0.00     0.041 C
HETATM   10  C11 UNL     1      10.951 -10.629  -6.246  1.00  0.00     0.008 C
HETATM   11  C12 UNL     1       9.942 -10.286  -5.189  1.00  0.00     0.007 C
HETATM   12  C13 UNL     1       9.157  -9.023  -5.565  1.00  0.00     0.011 C
HETATM   13  C14 UNL     1       9.000 -11.403  -4.870  1.00  0.00     0.237 C
HETATM   14  N2  UNL     1       9.597 -12.686  -5.066  1.00  0.00    -0.064 N
ATOM     15  H21 UNL     1      10.414 -12.813  -4.467  1.00  0.00     0.278 HD
ATOM     16  H22 UNL     1       9.010 -13.431  -4.693  1.00  0.00     0.278 HD
HETATM   17  C15 UNL     1      10.817 -14.140  -6.617  1.00  0.00     0.175 C
HETATM   18  C16 UNL     1      12.155 -13.826  -6.208  1.00  0.00     0.072 C
HETATM   19  N3  UNL     1      13.227 -13.560  -5.905  1.00  0.00    -0.196 NA
ENDROOT
BRANCH   1  20
HETATM   20  C4  UNL     1      11.570 -15.823  -4.033  1.00  0.00     0.064 C
BRANCH  20  21
HETATM   21  C2  UNL     1      11.556 -16.935  -2.995  1.00  0.00     0.016 C
HETATM   22  C1  UNL     1      10.807 -16.558  -1.755  1.00  0.00     0.015 C
HETATM   23  C3  UNL     1      12.956 -17.363  -2.636  1.00  0.00     0.015 C
ENDBRANCH  20  21
ENDBRANCH   1  20
TORSDOF 2
ENDMDL