MODEL 1
REMARK VINA RESULT: -6.548512352      0.000      0.000
REMARK  3 active torsions:
REMARK  status: ('A' for Active; 'I' for Inactive)
REMARK    1  A    between atoms: C4_5  and  N2_6
REMARK    2  A    between atoms: N3_9  and  C7_10
REMARK    3  A    between atoms: C15_18  and  O1_19
ROOT
HETATM    1  N2  UNL     1      10.119 -13.318  -5.669  1.00  0.00    -0.374 N
HETATM    2  C5  UNL     1       8.855 -12.757  -6.095  1.00  0.00     0.153 C
HETATM    3  C6  UNL     1       9.143 -11.301  -6.500  1.00  0.00     0.292 C
HETATM    4  N3  UNL     1       9.605 -10.536  -5.390  1.00  0.00     0.096 N
HETATM    5  C13 UNL     1      10.450 -11.269  -4.526  1.00  0.00     0.292 C
HETATM    6  C14 UNL     1      11.146 -12.409  -5.286  1.00  0.00     0.153 C
ENDROOT
BRANCH   1   7
HETATM    7  C4  UNL     1      10.289 -14.717  -5.640  1.00  0.00     0.083 A
HETATM    8  C3  UNL     1      10.340 -15.565  -6.759  1.00  0.00     0.051 A
HETATM    9  C2  UNL     1      10.505 -16.846  -6.292  1.00  0.00     0.095 A
HETATM   10  N1  UNL     1      10.560 -16.855  -4.963  1.00  0.00    -0.340 N
HETATM   11  C1  UNL     1      10.724 -18.006  -4.095  1.00  0.00     0.158 C
HETATM   12  C15 UNL     1      10.430 -15.569  -4.569  1.00  0.00     0.169 A
BRANCH  12  13
HETATM   13  O1  UNL     1      10.447 -15.218  -3.204  1.00  0.00    -0.344 OA
ATOM     14  H1  UNL     1      10.587 -14.320  -2.928  1.00  0.00     0.219 HD
ENDBRANCH  12  13
ENDBRANCH   1   7
BRANCH   4  15
HETATM   15  C7  UNL     1      10.170  -9.257  -5.765  1.00  0.00     0.223 C
HETATM   16  C8  UNL     1      10.804  -8.645  -4.555  1.00  0.00     0.036 C
HETATM   17  C9  UNL     1      11.521  -7.392  -5.086  1.00  0.00     0.002 C
HETATM   18  C10 UNL     1      10.376  -6.430  -5.352  1.00  0.00     0.000 C
HETATM   19  C11 UNL     1       9.464  -6.923  -6.436  1.00  0.00     0.002 C
HETATM   20  C12 UNL     1       9.189  -8.366  -6.452  1.00  0.00     0.036 C
ENDBRANCH   4  15
TORSDOF 3
ENDMDL