MODEL 5
REMARK VINA RESULT: -7.350121483      1.200      2.394
REMARK  3 active torsions:
REMARK  status: ('A' for Active; 'I' for Inactive)
REMARK    1  A    between atoms: C2_3  and  C3_4
REMARK    2  A    between atoms: C3_4  and  O1_7
REMARK    3  A    between atoms: C6_13  and  C7_14
ROOT
HETATM    1  C1  UNL     1      12.390  -6.707  -4.741  1.00  0.00     0.159 C
HETATM    2  N1  UNL     1      11.370  -7.211  -3.850  1.00  0.00    -0.325 N
HETATM    3  C2  UNL     1      10.317  -7.940  -4.249  1.00  0.00     0.133 A
HETATM    4  N2  UNL     1       9.680  -8.192  -3.094  1.00  0.00    -0.285 N
ATOM      5  H2  UNL     1       8.818  -8.731  -3.021  1.00  0.00     0.188 HD
HETATM    6  N3  UNL     1      10.301  -7.660  -2.074  1.00  0.00    -0.287 N
ATOM      7  H3  UNL     1      10.006  -7.721  -1.100  1.00  0.00     0.188 HD
HETATM    8  C6  UNL     1      11.411  -7.011  -2.532  1.00  0.00     0.108 A
ENDROOT
BRANCH   8   9
HETATM    9  C7  UNL     1      12.261  -6.298  -1.609  1.00  0.00     0.021 C
HETATM   10  C8  UNL     1      11.966  -6.371  -0.159  1.00  0.00     0.018 C
HETATM   11  C9  UNL     1      12.901  -5.464   0.632  1.00  0.00     0.006 C
HETATM   12  C10 UNL     1      13.715  -4.534  -0.167  1.00  0.00    -0.010 C
HETATM   13  C11 UNL     1      15.034  -5.203  -0.513  1.00  0.00     0.010 C
HETATM   14  C14 UNL     1      13.134  -4.027  -1.446  1.00  0.00    -0.009 C
HETATM   15  C12 UNL     1      14.675  -5.652  -1.918  1.00  0.00    -0.013 C
HETATM   16  C13 UNL     1      14.212  -4.342  -2.480  1.00  0.00     0.010 C
HETATM   17  C16 UNL     1      13.680  -6.706  -1.840  1.00  0.00     0.022 C
HETATM   18  C15 UNL     1      11.974  -4.812  -1.963  1.00  0.00     0.022 C
ENDBRANCH   8   9
BRANCH   3  19
HETATM   19  C3  UNL     1       9.877  -8.407  -5.594  1.00  0.00     0.110 C
HETATM   20  C4  UNL     1      10.786  -9.456  -6.184  1.00  0.00     0.054 C
HETATM   21  C5  UNL     1       9.656  -7.250  -6.548  1.00  0.00     0.054 C
BRANCH  19  22
HETATM   22  O1  UNL     1       8.643  -9.062  -5.437  1.00  0.00    -0.383 OA
ATOM     23  H1  UNL     1       8.127  -8.900  -6.219  1.00  0.00     0.211 HD
ENDBRANCH  19  22
ENDBRANCH   3  19
TORSDOF 3
ENDMDL