MODEL 1
REMARK VINA RESULT: -7.196495579      0.000      0.000
REMARK  2 active torsions:
REMARK  status: ('A' for Active; 'I' for Inactive)
REMARK    1  A    between atoms: C3_5  and  C4_6
REMARK    2  A    between atoms: N2_10  and  C8_11
ROOT
HETATM    1  C4  UNL     1      10.044  -8.587  -4.998  1.00  0.00     0.034 C
HETATM    2  C5  UNL     1       9.017  -9.247  -4.150  1.00  0.00     0.025 C
HETATM    3  C6  UNL     1       9.547  -8.330  -6.373  1.00  0.00     0.038 C
HETATM    4  C7  UNL     1       9.558  -9.741  -6.984  1.00  0.00     0.119 C
HETATM    5  N2  UNL     1      10.635 -10.328  -6.368  1.00  0.00    -0.403 N
HETATM    6  C15 UNL     1      11.124  -9.662  -5.262  1.00  0.00     0.134 C
ENDROOT
BRANCH   1   7
HETATM    7  C3  UNL     1      10.739  -7.468  -4.353  1.00  0.00     0.114 A
HETATM    8  N1  UNL     1      11.091  -7.232  -3.104  1.00  0.00    -0.326 N
HETATM    9  C2  UNL     1      11.668  -5.992  -3.051  1.00  0.00     0.144 A
ATOM     10  H1  UNL     1      10.957  -7.864  -2.315  1.00  0.00     0.169 HD
HETATM   11  C1  UNL     1      12.222  -5.279  -1.865  1.00  0.00     0.100 C
HETATM   12  O1  UNL     1      11.641  -5.523  -4.275  1.00  0.00    -0.223 OA
HETATM   13  N3  UNL     1      11.106  -6.354  -5.059  1.00  0.00    -0.246 N
ATOM     14  H3  UNL     1      10.970  -6.218  -6.061  1.00  0.00     0.196 HD
ENDBRANCH   1   7
BRANCH   5  15
HETATM   15  C8  UNL     1      11.148 -11.593  -6.693  1.00  0.00     0.024 C
HETATM   16  C9  UNL     1       9.994 -12.308  -7.429  1.00  0.00     0.038 C
HETATM   17  C10 UNL     1      11.413 -12.339  -5.448  1.00  0.00     0.030 C
HETATM   18  C11 UNL     1      12.727 -13.073  -5.414  1.00  0.00     0.002 C
HETATM   19  C12 UNL     1      13.002 -13.676  -6.766  1.00  0.00     0.000 C
HETATM   20  C13 UNL     1      13.250 -12.553  -7.724  1.00  0.00     0.002 C
HETATM   21  C14 UNL     1      12.276 -11.435  -7.653  1.00  0.00     0.030 C
ENDBRANCH   5  15
TORSDOF 2
ENDMDL