MODEL 1
REMARK VINA RESULT: -6.537067466      0.000      0.000
REMARK  4 active torsions:
REMARK  status: ('A' for Active; 'I' for Inactive)
REMARK    1  A    between atoms: N1_2  and  C2_3
REMARK    2  A    between atoms: N1_2  and  C7_14
REMARK    3  A    between atoms: C2_3  and  S2_5
REMARK    4  A    between atoms: S2_5  and  C3_6
ROOT
HETATM    1  C2  UNL     1      10.520  -7.337  -4.642  1.00  0.00     0.144 C
HETATM    2  S1  UNL     1      10.079  -6.607  -6.009  1.00  0.00    -0.052 SA
ENDROOT
BRANCH   1   3
HETATM    3  N1  UNL     1      11.524  -6.908  -3.792  1.00  0.00    -0.366 N
HETATM    4  C1  UNL     1      12.888  -6.787  -4.414  1.00  0.00     0.151 C
BRANCH   3   5
HETATM    5  C7  UNL     1      11.440  -6.543  -2.424  1.00  0.00     0.085 C
HETATM    6  C8  UNL     1      11.869  -5.070  -2.300  1.00  0.00     0.025 C
HETATM    7  C9  UNL     1      13.230  -5.046  -1.677  1.00  0.00     0.002 C
HETATM    8  C10 UNL     1      13.017  -5.414  -0.193  1.00  0.00     0.000 C
HETATM    9  C11 UNL     1      12.323  -6.749  -0.105  1.00  0.00     0.002 C
HETATM   10  C12 UNL     1      12.228  -7.387  -1.505  1.00  0.00     0.025 C
ENDBRANCH   3   5
ENDBRANCH   1   3
BRANCH   1  11
HETATM   11  S2  UNL     1       9.621  -8.868  -4.241  1.00  0.00    -0.024 SA
BRANCH  11  12
HETATM   12  C3  UNL     1       9.902 -10.082  -5.505  1.00  0.00     0.151 A
HETATM   13  N2  UNL     1      11.044 -10.225  -6.173  1.00  0.00    -0.346 N
HETATM   14  C4  UNL     1      11.226 -11.160  -7.130  1.00  0.00     0.091 A
ATOM     15  H2  UNL     1      11.819  -9.600  -5.952  1.00  0.00     0.167 HD
HETATM   16  C5  UNL     1      10.193 -12.012  -7.440  1.00  0.00     0.034 A
HETATM   17  C6  UNL     1       9.005 -11.877  -6.757  1.00  0.00     0.091 A
HETATM   18  N3  UNL     1       8.899 -10.921  -5.815  1.00  0.00    -0.346 N
ATOM     19  H3  UNL     1       8.016 -10.828  -5.314  1.00  0.00     0.167 HD
ENDBRANCH  11  12
ENDBRANCH   1  11
TORSDOF 4
ENDMDL