MODEL 1
REMARK VINA RESULT: -5.352446306      0.000      0.000
REMARK  3 active torsions:
REMARK  status: ('A' for Active; 'I' for Inactive)
REMARK    1  A    between atoms: C2_2  and  C3_3
REMARK    2  A    between atoms: C3_3  and  C4_4
REMARK    3  A    between atoms: C4_4  and  O1_5
ROOT
HETATM    1  C3  UNL     1      10.760 -14.316  -5.101  1.00  0.00     0.119 C
HETATM    2  O2  UNL     1      11.718 -14.151  -6.155  1.00  0.00    -0.369 OA
HETATM    3  C5  UNL     1      12.921 -14.583  -5.661  1.00  0.00     0.126 C
HETATM    4  C6  UNL     1      13.664 -15.260  -6.785  1.00  0.00     0.040 C
HETATM    5  C7  UNL     1      12.669 -15.388  -4.461  1.00  0.00     0.066 C
HETATM    6  C8  UNL     1      13.500 -16.540  -4.158  1.00  0.00    -0.038 C
HETATM    7  C9  UNL     1      13.577 -17.681  -5.063  1.00  0.00     0.015 C
HETATM    8  C10 UNL     1      14.928 -16.041  -3.893  1.00  0.00     0.015 C
HETATM    9  C11 UNL     1      13.008 -17.049  -2.787  1.00  0.00     0.012 C
HETATM   10  C12 UNL     1      11.581 -17.433  -2.984  1.00  0.00     0.045 C
HETATM   11  C13 UNL     1      10.693 -16.240  -3.349  1.00  0.00     0.130 C
HETATM   12  C14 UNL     1      10.251 -15.550  -2.132  1.00  0.00     0.052 C
HETATM   13  O3  UNL     1       9.729 -16.730  -4.229  1.00  0.00    -0.226 OA
HETATM   14  O4  UNL     1      10.682 -16.670  -5.166  1.00  0.00    -0.222 OA
HETATM   15  C15 UNL     1      11.179 -15.568  -4.516  1.00  0.00     0.169 C
ENDROOT
BRANCH   1  16
HETATM   16  C2  UNL     1       9.448 -14.256  -5.839  1.00  0.00     0.039 C
HETATM   17  C1  UNL     1       9.552 -14.071  -7.315  1.00  0.00     0.008 C
ENDBRANCH   1  16
BRANCH   1  18
HETATM   18  C4  UNL     1      10.908 -13.058  -4.285  1.00  0.00     0.205 C
BRANCH  18  19
HETATM   19  O1  UNL     1       9.605 -12.613  -3.982  1.00  0.00    -0.398 OA
ATOM     20  H1  UNL     1       9.448 -11.842  -4.515  1.00  0.00     0.209 HD
ENDBRANCH  18  19
ENDBRANCH   1  18
TORSDOF 3
ENDMDL