MODEL 1
REMARK VINA RESULT: -7.861367784      0.000      0.000
REMARK  6 active torsions:
REMARK  status: ('A' for Active; 'I' for Inactive)
REMARK    1  A    between atoms: C3_5  and  C4_6
REMARK    2  A    between atoms: C8_11  and  O1_12
REMARK    3  A    between atoms: O1_12  and  C9_13
REMARK    4  A    between atoms: C9_13  and  C10_14
REMARK    5  A    between atoms: C10_14  and  N2_15
REMARK    6  A    between atoms: C20_30  and  C21_31
ROOT
HETATM    1  C4  UNL     1       5.970   2.949  18.782  1.00  0.00     0.001 A
HETATM    2  C5  UNL     1       5.369   2.055  19.640  1.00  0.00     0.017 A
HETATM    3  C6  UNL     1       4.906   2.531  20.873  1.00  0.00     0.046 A
HETATM    4  C7  UNL     1       5.035   3.862  21.245  1.00  0.00     0.151 A
HETATM    5  F1  UNL     1       4.550   4.199  22.463  1.00  0.00    -0.203 F
HETATM    6  C8  UNL     1       5.635   4.747  20.384  1.00  0.00     0.129 A
HETATM    7  C13 UNL     1       6.098   4.276  19.155  1.00  0.00     0.092 A
HETATM    8  C14 UNL     1       6.734   5.171  18.215  1.00  0.00     0.103 C
HETATM    9  N3  UNL     1       7.251   5.885  17.452  1.00  0.00    -0.191 NA
ENDROOT
BRANCH   1  10
HETATM   10  C3  UNL     1       6.451   2.466  17.493  1.00  0.00     0.014 A
HETATM   11  C2  UNL     1       5.619   2.665  16.297  1.00  0.00     0.044 A
HETATM   12  N1  UNL     1       4.483   3.257  16.426  1.00  0.00    -0.395 N
HETATM   13  C20 UNL     1       6.169   2.154  15.032  1.00  0.00     0.167 A
HETATM   14  C1  UNL     1       3.549   3.530  15.372  1.00  0.00     0.146 C
ATOM     15  H1  UNL     1       4.223   3.561  17.365  1.00  0.00     0.159 HD
HETATM   16  N5  UNL     1       7.445   1.520  15.205  1.00  0.00    -0.361 N
HETATM   17  C19 UNL     1       8.107   1.376  16.271  1.00  0.00     0.113 A
ATOM     18  H5  UNL     1       7.870   1.138  14.361  1.00  0.00     0.162 HD
HETATM   19  C15 UNL     1       7.620   1.854  17.461  1.00  0.00     0.021 A
HETATM   20  N4  UNL     1       9.322   0.752  16.288  1.00  0.00    -0.352 N
HETATM   21  C16 UNL     1       8.377   1.687  18.629  1.00  0.00     0.017 A
HETATM   22  C17 UNL     1       9.602   1.056  18.628  1.00  0.00     0.018 A
HETATM   23  C18 UNL     1      10.041   0.596  17.408  1.00  0.00     0.089 A
ATOM     24  H4  UNL     1       9.699   0.391  15.412  1.00  0.00     0.166 HD
BRANCH  13  25
HETATM   25  C21 UNL     1       6.375   3.234  14.003  1.00  0.00    -0.030 A
HETATM   26  C22 UNL     1       6.937   4.452  14.298  1.00  0.00     0.009 A
HETATM   27  C23 UNL     1       7.125   5.432  13.336  1.00  0.00     0.001 A
HETATM   28  C24 UNL     1       6.748   5.207  12.036  1.00  0.00     0.000 A
HETATM   29  C25 UNL     1       6.180   3.987  11.714  1.00  0.00     0.001 A
HETATM   30  C26 UNL     1       6.002   3.025  12.692  1.00  0.00     0.009 A
ENDBRANCH  13  25
ENDBRANCH   1  10
BRANCH   6  31
HETATM   31  O1  UNL     1       5.768   6.060  20.734  1.00  0.00    -0.345 OA
BRANCH  31  32
HETATM   32  C9  UNL     1       6.611   6.608  21.697  1.00  0.00     0.206 C
BRANCH  32  33
HETATM   33  C10 UNL     1       8.045   6.720  21.265  1.00  0.00     0.297 C
BRANCH  33  34
HETATM   34  N2  UNL     1       8.386   8.115  21.043  1.00  0.00     0.082 N
HETATM   35  C11 UNL     1       9.141   8.292  19.813  1.00  0.00     0.309 C
HETATM   36  C12 UNL     1       9.266   8.553  22.128  1.00  0.00     0.309 C
ENDBRANCH  33  34
ENDBRANCH  32  33
ENDBRANCH  31  32
ENDBRANCH   6  31
TORSDOF 6
ENDMDL