MODEL 3
REMARK VINA RESULT: -6.774098188      5.204      8.588
REMARK  9 active torsions:
REMARK  status: ('A' for Active; 'I' for Inactive)
REMARK       I    between atoms: N1_2  and  C2_4
REMARK    1  A    between atoms: C2_4  and  C3_6
REMARK    2  A    between atoms: C3_6  and  C4_7
REMARK    3  A    between atoms: C4_7  and  C5_8
REMARK    4  A    between atoms: C5_8  and  O2_9
REMARK    5  A    between atoms: O2_9  and  C6_10
REMARK    6  A    between atoms: C9_13  and  C10_14
REMARK    7  A    between atoms: N2_15  and  O3_16
REMARK    8  A    between atoms: N3_25  and  O4_26
REMARK    9  A    between atoms: N4_28  and  O5_29
ROOT
HETATM    1  C10 UNL     1       7.632   5.193  19.254  1.00  0.00     0.191 A
HETATM    2  N2  UNL     1       7.177   5.363  17.999  1.00  0.00    -0.201 N
HETATM    3  C11 UNL     1       6.901   4.280  17.245  1.00  0.00     0.096 A
HETATM    4  C12 UNL     1       6.427   4.421  15.940  1.00  0.00     0.036 A
HETATM    5  C13 UNL     1       6.139   3.328  15.153  1.00  0.00     0.021 A
HETATM    6  C14 UNL     1       6.319   2.061  15.657  1.00  0.00     0.013 A
HETATM    7 BR1  UNL     1       5.923   0.549  14.578  1.00  0.00    -0.051 Br
HETATM    8  C15 UNL     1       6.784   1.872  16.942  1.00  0.00     0.055 A
HETATM    9  C16 UNL     1       7.064   2.990  17.705  1.00  0.00     0.114 A
HETATM   10  N3  UNL     1       7.524   2.862  18.972  1.00  0.00    -0.133 N
HETATM   11  N4  UNL     1       7.791   3.931  19.703  1.00  0.00    -0.116 N
ENDROOT
BRANCH   1  12
HETATM   12  C9  UNL     1       7.944   6.351  20.108  1.00  0.00     0.015 A
HETATM   13  C8  UNL     1       9.036   7.120  19.778  1.00  0.00     0.018 A
HETATM   14  C7  UNL     1       9.380   8.213  20.534  1.00  0.00     0.037 A
HETATM   15  C6  UNL     1       8.663   8.592  21.646  1.00  0.00     0.068 A
HETATM   16  C18 UNL     1       7.571   7.812  21.964  1.00  0.00     0.037 A
HETATM   17  C17 UNL     1       7.209   6.696  21.203  1.00  0.00     0.018 A
BRANCH  15  18
HETATM   18  O2  UNL     1       9.024   9.700  22.399  1.00  0.00    -0.351 OA
BRANCH  18  19
HETATM   19  C5  UNL     1       9.138   9.561  23.821  1.00  0.00     0.176 C
BRANCH  19  20
HETATM   20  C4  UNL     1      10.303   8.714  24.196  1.00  0.00     0.036 C
BRANCH  20  21
HETATM   21  C3  UNL     1      10.136   7.961  25.481  1.00  0.00     0.105 C
BRANCH  21  22
HETATM   22  C2  UNL     1      11.392   7.662  26.153  1.00  0.00     0.217 C
HETATM   23  N1  UNL     1      12.611   7.723  25.437  1.00  0.00    -0.365 N
HETATM   24  C1  UNL     1      13.895   7.434  26.059  1.00  0.00     0.149 C
ATOM     25  H1  UNL     1      12.588   7.979  24.450  1.00  0.00     0.161 HD
HETATM   26  O1  UNL     1      11.437   7.348  27.358  1.00  0.00    -0.274 OA
ENDBRANCH  21  22
ENDBRANCH  20  21
ENDBRANCH  19  20
ENDBRANCH  18  19
ENDBRANCH  15  18
ENDBRANCH   1  12
BRANCH   2  27
HETATM   27  O3  UNL     1       6.992   6.637  17.481  1.00  0.00    -0.281 OA
ATOM     28  H3  UNL     1       6.737   6.759  16.574  1.00  0.00     0.245 HD
ENDBRANCH   2  27
BRANCH  11  29
HETATM   29  O5  UNL     1       8.260   3.772  20.995  1.00  0.00    -0.264 OA
ATOM     30  H5  UNL     1       7.658   3.413  21.636  1.00  0.00     0.247 HD
ENDBRANCH  11  29
BRANCH  10  31
HETATM   31  O4  UNL     1       7.691   1.588  19.444  1.00  0.00    -0.266 OA
ATOM     32  H4  UNL     1       8.548   1.367  19.791  1.00  0.00     0.247 HD
ENDBRANCH  10  31
TORSDOF 9
ENDMDL