MODEL 5
REMARK VINA RESULT: -6.283139653      3.483      5.430
REMARK  9 active torsions:
REMARK  status: ('A' for Active; 'I' for Inactive)
REMARK    1  A    between atoms: C2_2  and  O1_3
REMARK    2  A    between atoms: O1_3  and  C3_4
REMARK    3  A    between atoms: C3_4  and  C4_6
REMARK       I    between atoms: N1_8  and  C6_9
REMARK    4  A    between atoms: C11_15  and  C12_16
REMARK    5  A    between atoms: C12_16  and  O4_17
REMARK    6  A    between atoms: C12_16  and  N2_19
REMARK    7  A    between atoms: N2_19  and  C13_21
REMARK    8  A    between atoms: C13_21  and  C14_22
REMARK    9  A    between atoms: C14_22  and  N3_23
ROOT
HETATM    1  C4  UNL     1       4.229   6.334  21.356  1.00  0.00     0.137 C
HETATM    2  C5  UNL     1       2.921   6.744  21.914  1.00  0.00     0.145 C
HETATM    3  N1  UNL     1       2.909   7.669  22.982  1.00  0.00    -0.347 N
HETATM    4  C6  UNL     1       1.626   8.001  23.542  1.00  0.00     0.216 C
HETATM    5  C7  UNL     1       1.574   8.951  24.677  1.00  0.00     0.117 C
HETATM    6  O3  UNL     1       0.590   7.482  23.064  1.00  0.00    -0.274 OA
HETATM    7  C8  UNL     1       4.045   8.291  23.540  1.00  0.00     0.165 C
HETATM    8  C9  UNL     1       5.232   8.229  22.665  1.00  0.00    -0.032 A
HETATM    9  C10 UNL     1       6.276   9.113  22.881  1.00  0.00     0.026 A
HETATM   10  C11 UNL     1       7.461   9.123  22.113  1.00  0.00     0.032 A
HETATM   11  C17 UNL     1       7.510   8.183  21.120  1.00  0.00     0.026 A
HETATM   12 BR1  UNL     1       9.031   8.118  19.966  1.00  0.00    -0.050 Br
HETATM   13  C18 UNL     1       6.450   7.287  20.904  1.00  0.00     0.028 A
HETATM   14  C19 UNL     1       5.311   7.302  21.665  1.00  0.00    -0.034 A
ENDROOT
BRANCH  10  15
HETATM   15  C12 UNL     1       8.506  10.070  22.462  1.00  0.00     0.147 C
BRANCH  15  16
HETATM   16  O4  UNL     1       8.493  11.132  21.692  1.00  0.00    -0.346 OA
ATOM     17  H4  UNL     1       8.567  11.939  22.189  1.00  0.00     0.219 HD
ENDBRANCH  15  16
BRANCH  15  18
HETATM   18  N2  UNL     1       9.471  10.003  23.464  1.00  0.00    -0.369 N
ATOM     19  H2  UNL     1       9.849  10.850  23.886  1.00  0.00     0.161 HD
BRANCH  18  20
HETATM   20  C13 UNL     1       9.921   8.693  23.887  1.00  0.00     0.152 C
BRANCH  20  21
HETATM   21  C14 UNL     1      11.235   8.711  24.617  1.00  0.00     0.290 C
BRANCH  21  22
HETATM   22  N3  UNL     1      11.056   8.252  25.981  1.00  0.00     0.081 N
HETATM   23  C15 UNL     1       9.814   7.587  26.223  1.00  0.00     0.309 C
HETATM   24  C16 UNL     1      12.203   7.533  26.482  1.00  0.00     0.309 C
ENDBRANCH  21  22
ENDBRANCH  20  21
ENDBRANCH  18  20
ENDBRANCH  15  18
ENDBRANCH  10  15
BRANCH   1  25
HETATM   25  C3  UNL     1       4.540   4.944  21.741  1.00  0.00     0.269 C
HETATM   26  O2  UNL     1       4.388   4.530  22.919  1.00  0.00    -0.264 OA
BRANCH  25  27
HETATM   27  O1  UNL     1       5.010   4.061  20.799  1.00  0.00    -0.321 OA
BRANCH  27  28
HETATM   28  C2  UNL     1       6.287   3.508  20.699  1.00  0.00     0.174 C
HETATM   29  C1  UNL     1       6.323   2.107  21.197  1.00  0.00     0.034 C
ENDBRANCH  27  28
ENDBRANCH  25  27
ENDBRANCH   1  25
TORSDOF 9
ENDMDL