MODEL 4
REMARK VINA RESULT: -8.347256857      2.948      7.555
REMARK  7 active torsions:
REMARK  status: ('A' for Active; 'I' for Inactive)
REMARK    1  A    between atoms: O1_2  and  C2_3
REMARK    2  A    between atoms: C2_3  and  N1_4
REMARK    3  A    between atoms: C3_5  and  C4_6
REMARK    4  A    between atoms: C4_6  and  C5_7
REMARK    5  A    between atoms: C5_7  and  N2_8
REMARK    6  A    between atoms: N2_8  and  C7_10
REMARK    7  A    between atoms: C14_20  and  C15_21
ROOT
HETATM    1  N1  UNL     1       7.695   8.542  19.442  1.00  0.00    -0.253 N
HETATM    2  C3  UNL     1       8.388   7.809  20.351  1.00  0.00     0.114 A
HETATM    3  N3  UNL     1       8.357   6.550  19.894  1.00  0.00    -0.338 N
ATOM      4  H3  UNL     1       8.794   5.755  20.360  1.00  0.00     0.167 HD
HETATM    5  C13 UNL     1       7.675   6.475  18.741  1.00  0.00     0.105 A
HETATM    6  C14 UNL     1       7.426   5.411  17.992  1.00  0.00     0.065 C
HETATM    7  C21 UNL     1       7.251   7.756  18.456  1.00  0.00     0.281 A
HETATM    8  O2  UNL     1       6.557   8.092  17.425  1.00  0.00    -0.265 OA
ENDROOT
BRANCH   2   9
HETATM    9  C4  UNL     1       8.949   8.299  21.437  1.00  0.00     0.042 C
BRANCH   9  10
HETATM   10  C5  UNL     1       8.233   9.183  22.387  1.00  0.00     0.153 C
BRANCH  10  11
HETATM   11  N2  UNL     1       8.350   8.650  23.710  1.00  0.00    -0.382 N
HETATM   12  C6  UNL     1       7.117   8.318  24.418  1.00  0.00     0.150 C
BRANCH  11  13
HETATM   13  C7  UNL     1       9.583   8.420  24.377  1.00  0.00     0.030 A
HETATM   14  C8  UNL     1      10.796   8.919  23.956  1.00  0.00     0.030 A
HETATM   15  C9  UNL     1      11.984   8.661  24.651  1.00  0.00     0.021 A
HETATM   16  C10 UNL     1      11.967   7.890  25.788  1.00  0.00     0.011 A
HETATM   17 BR1  UNL     1      13.574   7.517  26.761  1.00  0.00    -0.051 Br
HETATM   18  C11 UNL     1      10.774   7.377  26.236  1.00  0.00     0.021 A
HETATM   19  C12 UNL     1       9.628   7.649  25.532  1.00  0.00     0.030 A
ENDBRANCH  11  13
ENDBRANCH  10  11
ENDBRANCH   9  10
ENDBRANCH   2   9
BRANCH   1  20
HETATM   20  C2  UNL     1       7.435   9.969  19.520  1.00  0.00     0.237 C
BRANCH  20  21
HETATM   21  O1  UNL     1       8.444  10.764  19.083  1.00  0.00    -0.351 OA
HETATM   22  C1  UNL     1       8.503  11.981  19.708  1.00  0.00     0.210 C
ENDBRANCH  20  21
ENDBRANCH   1  20
BRANCH   6  23
HETATM   23  C15 UNL     1       7.886   4.071  18.324  1.00  0.00     0.036 A
HETATM   24  C16 UNL     1       9.143   3.597  18.023  1.00  0.00     0.029 A
HETATM   25  C17 UNL     1       9.548   2.303  18.361  1.00  0.00     0.004 A
HETATM   26  C18 UNL     1       8.662   1.475  19.017  1.00  0.00     0.017 A
HETATM   27  C19 UNL     1       7.410   1.962  19.311  1.00  0.00     0.090 A
HETATM   28  N4  UNL     1       7.048   3.230  18.966  1.00  0.00    -0.361 N
HETATM   29  C20 UNL     1       5.707   3.720  19.293  1.00  0.00     0.155 C
ENDBRANCH   6  23
TORSDOF 7
ENDMDL