MODEL 1
REMARK VINA RESULT: -8.547174733      0.000      0.000
REMARK  8 active torsions:
REMARK  status: ('A' for Active; 'I' for Inactive)
REMARK    1  A    between atoms: N2_5  and  C3_6
REMARK    2  A    between atoms: C3_6  and  C4_7
REMARK    3  A    between atoms: C4_7  and  C5_8
REMARK    4  A    between atoms: C10_16  and  N4_17
REMARK    5  A    between atoms: C12_20  and  C13_21
REMARK    6  A    between atoms: C13_21  and  C14_22
REMARK    7  A    between atoms: C17_25  and  O1_26
REMARK    8  A    between atoms: C20_29  and  O2_30
ROOT
HETATM    1  C1  UNL     1       9.418   8.206  19.362  1.00  0.00     0.045 C
HETATM    2  C2  UNL     1       8.704   7.958  20.433  1.00  0.00     0.053 A
HETATM    3  N1  UNL     1       8.821   8.659  21.614  1.00  0.00    -0.297 N
ATOM      4  H1  UNL     1       9.473   9.431  21.758  1.00  0.00     0.187 HD
HETATM    5  N2  UNL     1       8.015   8.226  22.511  1.00  0.00    -0.275 N
HETATM    6  C10 UNL     1       7.266   7.182  22.018  1.00  0.00     0.134 A
HETATM    7  C12 UNL     1       7.720   7.026  20.696  1.00  0.00     0.038 A
ENDROOT
BRANCH   7   8
HETATM    8  C13 UNL     1       7.250   6.126  19.887  1.00  0.00     0.032 C
BRANCH   8   9
HETATM    9  C14 UNL     1       7.722   4.821  19.512  1.00  0.00    -0.002 A
HETATM   10  C15 UNL     1       8.754   4.592  18.614  1.00  0.00     0.017 A
HETATM   11  C16 UNL     1       9.213   3.334  18.299  1.00  0.00     0.038 A
HETATM   12  C17 UNL     1       8.636   2.232  18.893  1.00  0.00     0.070 A
HETATM   13  C19 UNL     1       7.604   2.412  19.795  1.00  0.00     0.074 A
HETATM   14  C20 UNL     1       7.166   3.670  20.091  1.00  0.00     0.081 A
BRANCH  12  15
HETATM   15  O1  UNL     1       9.084   0.943  18.591  1.00  0.00    -0.356 OA
HETATM   16  C18 UNL     1      10.358   0.795  18.011  1.00  0.00     0.210 C
ENDBRANCH  12  15
BRANCH  14  17
HETATM   17  O2  UNL     1       6.145   3.871  20.980  1.00  0.00    -0.355 OA
HETATM   18  C21 UNL     1       5.304   2.813  21.335  1.00  0.00     0.210 C
ENDBRANCH  14  17
ENDBRANCH   8   9
ENDBRANCH   7   8
BRANCH   6  19
HETATM   19  N4  UNL     1       6.386   6.573  22.664  1.00  0.00    -0.360 N
HETATM   20  C11 UNL     1       5.053   6.546  22.953  1.00  0.00     0.120 C
ATOM     21  H4  UNL     1       6.834   5.805  23.163  1.00  0.00     0.165 HD
ENDBRANCH   6  19
BRANCH   5  22
HETATM   22  C3  UNL     1       7.910   8.736  23.854  1.00  0.00     0.155 C
BRANCH  22  23
HETATM   23  C4  UNL     1       9.153   9.287  24.443  1.00  0.00     0.062 C
BRANCH  23  24
HETATM   24  C5  UNL     1       9.886   8.454  25.392  1.00  0.00    -0.040 A
HETATM   25  C6  UNL     1       9.194   7.745  26.351  1.00  0.00     0.094 A
HETATM   26  N3  UNL     1       9.901   7.003  27.217  1.00  0.00    -0.373 N
HETATM   27  C7  UNL     1      11.241   6.912  27.200  1.00  0.00     0.106 A
ATOM     28  H3  UNL     1       9.391   6.479  27.928  1.00  0.00     0.164 HD
HETATM   29  C8  UNL     1      11.941   7.602  26.262  1.00  0.00     0.026 A
HETATM   30 BR1  UNL     1      13.850   7.451  26.265  1.00  0.00    -0.050 Br
HETATM   31  C9  UNL     1      11.260   8.375  25.354  1.00  0.00     0.029 A
ENDBRANCH  23  24
ENDBRANCH  22  23
ENDBRANCH   5  22
TORSDOF 8
ENDMDL