MODEL 2
REMARK VINA RESULT: -7.826048985      3.817      7.712
REMARK  10 active torsions:
REMARK  status: ('A' for Active; 'I' for Inactive)
REMARK    1  A    between atoms: C3_5  and  C4_6
REMARK    2  A    between atoms: C4_6  and  C5_7
REMARK    3  A    between atoms: N3_13  and  O1_14
REMARK    4  A    between atoms: N4_16  and  C10_17
REMARK    5  A    between atoms: C16_24  and  C17_25
REMARK    6  A    between atoms: C17_25  and  C18_26
REMARK    7  A    between atoms: C23_31  and  O2_32
REMARK    8  A    between atoms: O2_32  and  C24_33
REMARK    9  A    between atoms: C24_33  and  C25_34
REMARK   10  A    between atoms: C25_34  and  O3_35
ROOT
HETATM    1  C1  UNL     1       4.220   6.351  20.346  1.00  0.00     0.070 C
HETATM    2  C2  UNL     1       5.001   5.277  19.700  1.00  0.00     0.034 A
HETATM    3  N1  UNL     1       4.462   4.422  18.826  1.00  0.00    -0.344 N
ATOM      4  H1  UNL     1       3.490   4.412  18.516  1.00  0.00     0.167 HD
HETATM    5  C3  UNL     1       5.414   3.589  18.432  1.00  0.00     0.115 A
HETATM    6  N4  UNL     1       6.571   3.942  19.081  1.00  0.00    -0.296 N
HETATM    7  C16 UNL     1       6.364   4.981  19.875  1.00  0.00     0.064 A
ENDROOT
BRANCH   7   8
HETATM    8  C17 UNL     1       7.187   5.607  20.648  1.00  0.00     0.046 C
BRANCH   8   9
HETATM    9  C18 UNL     1       7.938   6.802  20.562  1.00  0.00    -0.001 A
HETATM   10  C19 UNL     1       8.229   7.396  19.365  1.00  0.00     0.014 A
HETATM   11  C20 UNL     1       8.941   8.586  19.279  1.00  0.00     0.001 A
HETATM   12  C21 UNL     1       9.370   9.192  20.414  1.00  0.00     0.003 A
HETATM   13  C22 UNL     1       9.100   8.631  21.637  1.00  0.00     0.037 A
HETATM   14  C23 UNL     1       8.393   7.452  21.692  1.00  0.00     0.079 A
BRANCH  14  15
HETATM   15  O2  UNL     1       8.137   6.914  22.915  1.00  0.00    -0.348 OA
BRANCH  15  16
HETATM   16  C24 UNL     1       7.685   7.716  23.979  1.00  0.00     0.201 C
BRANCH  16  17
HETATM   17  C25 UNL     1       6.160   7.664  24.064  1.00  0.00     0.190 C
BRANCH  17  18
HETATM   18  O3  UNL     1       5.681   6.415  23.702  1.00  0.00    -0.399 OA
ATOM     19  H3  UNL     1       5.541   6.360  22.763  1.00  0.00     0.209 HD
ENDBRANCH  17  18
ENDBRANCH  16  17
ENDBRANCH  15  16
ENDBRANCH  14  15
ENDBRANCH   8   9
ENDBRANCH   7   8
BRANCH   6  20
HETATM   20  C10 UNL     1       7.729   3.171  18.799  1.00  0.00     0.041 A
HETATM   21  C11 UNL     1       7.929   1.917  19.328  1.00  0.00     0.033 A
HETATM   22  C12 UNL     1       9.022   1.127  19.054  1.00  0.00     0.044 A
HETATM   23  C13 UNL     1       9.975   1.630  18.194  1.00  0.00     0.116 A
HETATM   24  F1  UNL     1      11.062   0.837  17.925  1.00  0.00    -0.206 F
HETATM   25  C14 UNL     1       9.826   2.882  17.634  1.00  0.00     0.044 A
HETATM   26  C15 UNL     1       8.718   3.641  17.933  1.00  0.00     0.033 A
ENDBRANCH   6  20
BRANCH   5  27
HETATM   27  C4  UNL     1       5.264   2.594  17.562  1.00  0.00     0.081 C
BRANCH  27  28
HETATM   28  C5  UNL     1       5.454   2.804  16.129  1.00  0.00     0.068 A
HETATM   29  C6  UNL     1       4.776   3.831  15.472  1.00  0.00     0.049 A
HETATM   30  C7  UNL     1       5.018   3.955  14.115  1.00  0.00     0.093 A
HETATM   31  N2  UNL     1       5.850   3.149  13.448  1.00  0.00    -0.355 N
HETATM   32  C8  UNL     1       6.077   3.315  12.013  1.00  0.00     0.156 C
HETATM   33  C9  UNL     1       6.482   2.174  14.120  1.00  0.00     0.215 A
HETATM   34  N3  UNL     1       6.291   1.995  15.455  1.00  0.00    -0.220 N
BRANCH  34  35
HETATM   35  O1  UNL     1       6.928   1.003  16.160  1.00  0.00    -0.282 OA
ATOM     36  H1  UNL     1       7.849   0.854  15.981  1.00  0.00     0.245 HD
ENDBRANCH  34  35
ENDBRANCH  27  28
ENDBRANCH   5  27
TORSDOF 10
ENDMDL