MODEL 2
REMARK VINA RESULT: -7.128242881      0.853      1.164
REMARK  7 active torsions:
REMARK  status: ('A' for Active; 'I' for Inactive)
REMARK    1  A    between atoms: C3_3  and  N1_4
REMARK    2  A    between atoms: N1_4  and  C4_5
REMARK    3  A    between atoms: N1_4  and  C6_9
REMARK    4  A    between atoms: C4_5  and  C5_6
REMARK    5  A    between atoms: C5_6  and  O1_7
REMARK    6  A    between atoms: N2_19  and  C12_20
REMARK    7  A    between atoms: C14_22  and  C15_23
REMARK       I    between atoms: C15_23  and  N3_25
ROOT
HETATM    1  C1  UNL     1      10.579  -0.064  17.885  1.00  0.00     0.014 C
HETATM    2  C2  UNL     1      10.518   1.138  17.767  1.00  0.00    -0.097 C
HETATM    3  C3  UNL     1      10.464   2.584  17.611  1.00  0.00     0.221 C
ENDROOT
BRANCH   3   4
HETATM    4  N1  UNL     1       9.032   2.882  17.259  1.00  0.00    -0.347 N
BRANCH   4   5
HETATM    5  C4  UNL     1       8.712   2.647  15.911  1.00  0.00     0.091 C
BRANCH   5   6
HETATM    6  C5  UNL     1       7.484   1.852  15.604  1.00  0.00     0.208 C
BRANCH   6   7
HETATM    7  O1  UNL     1       7.724   0.484  15.681  1.00  0.00    -0.396 OA
ATOM      8  H1  UNL     1       7.382   0.025  14.923  1.00  0.00     0.209 HD
ENDBRANCH   6   7
ENDBRANCH   5   6
ENDBRANCH   4   5
BRANCH   4   9
HETATM    9  C6  UNL     1       8.294   3.396  18.334  1.00  0.00     0.037 A
HETATM   10  C7  UNL     1       7.542   2.658  19.184  1.00  0.00     0.051 A
HETATM   11  C8  UNL     1       6.807   3.273  20.207  1.00  0.00     0.041 A
HETATM   12 BR1  UNL     1       5.809   2.039  21.307  1.00  0.00    -0.049 Br
HETATM   13  C9  UNL     1       6.780   4.636  20.437  1.00  0.00     0.075 A
HETATM   14  C10 UNL     1       7.568   5.364  19.549  1.00  0.00     0.110 A
HETATM   15  N4  UNL     1       5.960   5.203  21.403  1.00  0.00    -0.335 N
HETATM   16  C11 UNL     1       8.275   4.786  18.564  1.00  0.00     0.057 A
HETATM   17  S1  UNL     1       7.704   7.067  19.828  1.00  0.00     0.268 S
HETATM   18  O2  UNL     1       8.990   7.467  20.442  1.00  0.00    -0.200 OA
HETATM   19  O3  UNL     1       7.463   7.788  18.510  1.00  0.00    -0.200 OA
HETATM   20  N2  UNL     1       6.398   7.485  20.898  1.00  0.00    -0.252 N
HETATM   21  C14 UNL     1       5.768   6.455  21.642  1.00  0.00     0.187 C
ATOM     22  H4  UNL     1       5.448   4.550  21.995  1.00  0.00     0.168 HD
BRANCH  20  23
HETATM   23  C12 UNL     1       6.046   8.868  20.889  1.00  0.00     0.139 C
HETATM   24  C13 UNL     1       6.868   9.729  21.826  1.00  0.00     0.028 C
ENDBRANCH  20  23
BRANCH  21  25
HETATM   25  C15 UNL     1       4.904   6.847  22.735  1.00  0.00     0.287 C
HETATM   26  O4  UNL     1       5.401   6.931  23.911  1.00  0.00    -0.264 OA
HETATM   27  N3  UNL     1       3.545   7.156  22.674  1.00  0.00    -0.354 N
HETATM   28  C16 UNL     1       2.713   7.156  21.516  1.00  0.00     0.152 C
HETATM   29  C17 UNL     1       2.852   7.533  23.935  1.00  0.00     0.152 C
ENDBRANCH  21  25
ENDBRANCH   4   9
ENDBRANCH   3   4
TORSDOF 7
ENDMDL