MODEL 5
REMARK VINA RESULT: -8.321250137      2.158      3.187
REMARK  6 active torsions:
REMARK  status: ('A' for Active; 'I' for Inactive)
REMARK    1  A    between atoms: C2_2  and  O1_3
REMARK    2  A    between atoms: O1_3  and  C3_4
REMARK    3  A    between atoms: N2_18  and  C12_19
REMARK    4  A    between atoms: C12_19  and  C13_20
REMARK    5  A    between atoms: C13_20  and  C14_21
REMARK    6  A    between atoms: C14_21  and  N3_22
ROOT
HETATM    1  C3  UNL     1       8.916   8.812  22.862  1.00  0.00     0.089 A
HETATM    2  C4  UNL     1       9.652   8.855  21.700  1.00  0.00     0.080 A
HETATM    3  C5  UNL     1       9.080   8.461  20.516  1.00  0.00     0.121 A
HETATM    4  F1  UNL     1       9.779   8.494  19.360  1.00  0.00    -0.206 F
HETATM    5  C6  UNL     1       7.760   8.018  20.484  1.00  0.00     0.073 A
HETATM    6  C7  UNL     1       7.007   7.963  21.614  1.00  0.00     0.058 A
HETATM    7  C8  UNL     1       7.616   8.368  22.788  1.00  0.00     0.092 A
HETATM    8  C9  UNL     1       6.961   8.381  24.104  1.00  0.00     0.257 C
HETATM    9  O2  UNL     1       7.655   8.868  25.031  1.00  0.00    -0.267 OA
HETATM   10  N1  UNL     1       5.686   7.945  24.525  1.00  0.00    -0.348 N
ATOM     11  H1  UNL     1       5.328   8.328  25.400  1.00  0.00     0.163 HD
HETATM   12  C10 UNL     1       4.835   6.991  23.813  1.00  0.00     0.226 C
HETATM   13  C11 UNL     1       4.710   7.307  22.384  1.00  0.00     0.242 C
HETATM   14  O3  UNL     1       3.510   7.465  21.956  1.00  0.00    -0.271 OA
HETATM   15  N2  UNL     1       5.694   7.480  21.338  1.00  0.00    -0.315 N
ENDROOT
BRANCH  15  16
HETATM   16  C12 UNL     1       5.297   7.148  20.008  1.00  0.00     0.134 C
BRANCH  16  17
HETATM   17  C13 UNL     1       5.094   5.677  19.764  1.00  0.00     0.040 C
BRANCH  17  18
HETATM   18  C14 UNL     1       6.207   4.828  20.316  1.00  0.00     0.127 C
BRANCH  18  19
HETATM   19  N3  UNL     1       6.997   4.351  19.208  1.00  0.00    -0.351 N
HETATM   20  C15 UNL     1       7.655   5.194  18.205  1.00  0.00     0.127 C
HETATM   21  C16 UNL     1       7.750   4.262  16.993  1.00  0.00     0.041 C
HETATM   22  C17 UNL     1       7.966   2.938  17.639  1.00  0.00     0.075 C
HETATM   23  C18 UNL     1       7.453   1.786  16.750  1.00  0.00     0.057 C
HETATM   24  C21 UNL     1       9.401   2.525  17.732  1.00  0.00     0.242 C
HETATM   25  C23 UNL     1       7.260   2.985  18.917  1.00  0.00     0.230 C
HETATM   26  C19 UNL     1       8.764   1.062  16.579  1.00  0.00     0.226 C
HETATM   27  C20 UNL     1       9.737   2.165  16.308  1.00  0.00     0.073 C
HETATM   28  N4  UNL     1       9.271   1.077  17.961  1.00  0.00     0.095 N
HETATM   29  C22 UNL     1      10.550   0.440  18.112  1.00  0.00     0.310 C
HETATM   30  O4  UNL     1       6.937   2.010  19.639  1.00  0.00    -0.272 OA
ENDBRANCH  18  19
ENDBRANCH  17  18
ENDBRANCH  16  17
ENDBRANCH  15  16
BRANCH   1  31
HETATM   31  O1  UNL     1       9.413   9.185  24.072  1.00  0.00    -0.350 OA
BRANCH  31  32
HETATM   32  C2  UNL     1      10.730   9.262  24.481  1.00  0.00     0.171 C
HETATM   33  C1  UNL     1      11.147   8.325  25.547  1.00  0.00     0.034 C
ENDBRANCH  31  32
ENDBRANCH   1  31
TORSDOF 6
ENDMDL