MODEL 2
REMARK VINA RESULT: -7.458637662      1.835      2.457
REMARK  6 active torsions:
REMARK  status: ('A' for Active; 'I' for Inactive)
REMARK       I    between atoms: N1_8  and  C8_9
REMARK    1  A    between atoms: C8_9  and  C9_11
REMARK    2  A    between atoms: C9_11  and  N2_12
REMARK    3  A    between atoms: N2_12  and  C10_13
REMARK    4  A    between atoms: N2_12  and  C16_25
REMARK    5  A    between atoms: C10_13  and  C11_14
REMARK       I    between atoms: C11_14  and  N3_16
REMARK    6  A    between atoms: N3_16  and  C12_18
ROOT
HETATM    1  N2  UNL     1       6.336   7.804  20.750  1.00  0.00    -0.348 N
ENDROOT
BRANCH   1   2
HETATM    2  C9  UNL     1       6.282   6.554  20.245  1.00  0.00     0.165 C
BRANCH   2   3
HETATM    3  C8  UNL     1       7.315   5.537  20.285  1.00  0.00     0.259 C
HETATM    4  N1  UNL     1       7.530   4.642  19.150  1.00  0.00    -0.339 N
HETATM    5  C2  UNL     1       8.557   3.621  19.197  1.00  0.00     0.084 C
HETATM    6  C6  UNL     1       6.736   4.754  17.958  1.00  0.00     0.084 C
HETATM    7  C1  UNL     1       8.015   2.275  19.631  1.00  0.00     0.032 C
HETATM    8  C3  UNL     1       9.396   3.545  17.959  1.00  0.00     0.025 C
HETATM    9  C4  UNL     1       8.447   3.305  16.799  1.00  0.00     0.004 C
HETATM   10  C5  UNL     1       7.454   4.425  16.688  1.00  0.00     0.025 C
HETATM   11  C7  UNL     1       5.471   3.920  17.998  1.00  0.00     0.032 C
HETATM   12  O1  UNL     1       8.091   5.315  21.221  1.00  0.00    -0.267 OA
ENDBRANCH   2   3
ENDBRANCH   1   2
BRANCH   1  13
HETATM   13  C10 UNL     1       5.952   7.801  22.175  1.00  0.00     0.230 C
BRANCH  13  14
HETATM   14  C11 UNL     1       6.924   8.423  23.066  1.00  0.00     0.236 C
HETATM   15  O2  UNL     1       6.652   9.501  23.644  1.00  0.00    -0.272 OA
HETATM   16  N3  UNL     1       8.205   7.867  23.335  1.00  0.00    -0.354 N
ATOM     17  H3  UNL     1       8.479   6.990  22.894  1.00  0.00     0.162 HD
BRANCH  16  18
HETATM   18  C12 UNL     1       9.121   8.541  24.228  1.00  0.00     0.099 C
HETATM   19  C13 UNL     1      10.193   9.244  23.516  1.00  0.00     0.041 C
HETATM   20  C14 UNL     1      11.564   8.787  23.885  1.00  0.00     0.142 C
HETATM   21  S1  UNL     1      11.290   8.271  25.592  1.00  0.00     0.146 S
HETATM   22  O3  UNL     1      12.221   7.211  26.022  1.00  0.00    -0.228 OA
HETATM   23  O4  UNL     1      11.289   9.499  26.416  1.00  0.00    -0.228 OA
HETATM   24  C15 UNL     1       9.618   7.649  25.319  1.00  0.00     0.165 C
ENDBRANCH  16  18
ENDBRANCH  13  14
ENDBRANCH   1  13
BRANCH   1  25
HETATM   25  C16 UNL     1       6.731   9.029  20.331  1.00  0.00     0.008 C
HETATM   26  C17 UNL     1       6.051   9.712  19.162  1.00  0.00     0.054 C
HETATM   27  C18 UNL     1       7.133  10.429  18.372  1.00  0.00     0.007 C
HETATM   28  C19 UNL     1       8.124  10.778  19.431  1.00  0.00     0.026 C
HETATM   29  C20 UNL     1       8.130   9.509  20.311  1.00  0.00     0.128 C
HETATM   30 CL1  UNL     1       9.410   8.499  19.759  1.00  0.00    -0.119 Cl
ENDBRANCH   1  25
TORSDOF 6
ENDMDL