MODEL 4
REMARK VINA RESULT: -7.220994958      1.505      1.807
REMARK  6 active torsions:
REMARK  status: ('A' for Active; 'I' for Inactive)
REMARK    1  A    between atoms: C2_2  and  C3_4
REMARK    2  A    between atoms: C10_12  and  O2_13
REMARK    3  A    between atoms: O2_13  and  C11_14
REMARK    4  A    between atoms: C11_14  and  C12_15
REMARK    5  A    between atoms: C12_15  and  N2_16
REMARK    6  A    between atoms: N3_24  and  O4_25
ROOT
HETATM    1  C11 UNL     1       5.563   5.614  20.742  1.00  0.00     0.200 C
ENDROOT
BRANCH   1   2
HETATM    2  O2  UNL     1       6.752   4.935  20.497  1.00  0.00    -0.355 OA
BRANCH   2   3
HETATM    3  C10 UNL     1       6.585   3.889  19.612  1.00  0.00     0.370 C
HETATM    4  C3  UNL     1       7.324   2.648  20.042  1.00  0.00     0.118 C
HETATM    5  C4  UNL     1       7.413   1.778  18.797  1.00  0.00     0.003 C
HETATM    6  C5  UNL     1       8.747   1.904  18.120  1.00  0.00     0.007 C
HETATM    7  C9  UNL     1       6.355   2.132  17.774  1.00  0.00     0.036 C
HETATM    8  C6  UNL     1       9.432   3.198  18.316  1.00  0.00     0.031 C
HETATM    9  C7  UNL     1       8.606   4.390  18.532  1.00  0.00     0.276 C
HETATM   10  N1  UNL     1       7.212   4.275  18.343  1.00  0.00     0.118 N
HETATM   11  C8  UNL     1       6.756   3.513  17.237  1.00  0.00     0.276 C
BRANCH   4  12
HETATM   12  C2  UNL     1       6.731   1.930  21.173  1.00  0.00     0.132 C
HETATM   13  C1  UNL     1       5.281   1.836  21.444  1.00  0.00     0.091 C
HETATM   14  O1  UNL     1       7.472   1.356  21.968  1.00  0.00    -0.298 OA
ENDBRANCH   4  12
ENDBRANCH   2   3
ENDBRANCH   1   2
BRANCH   1  15
HETATM   15  C12 UNL     1       5.826   6.894  21.497  1.00  0.00     0.287 C
BRANCH  15  16
HETATM   16  N2  UNL     1       6.217   8.000  20.614  1.00  0.00     0.023 N
HETATM   17  C13 UNL     1       5.407   7.857  19.430  1.00  0.00     0.299 C
HETATM   18  C14 UNL     1       7.581   8.027  20.504  1.00  0.00     0.251 C
HETATM   19  C15 UNL     1       8.372   8.102  19.281  1.00  0.00     0.071 C
HETATM   20  C17 UNL     1       7.990   9.406  21.067  1.00  0.00     0.123 C
HETATM   21  C16 UNL     1       9.326   9.211  19.766  1.00  0.00     0.142 C
HETATM   22  O3  UNL     1       9.318   9.148  21.183  1.00  0.00    -0.369 OA
HETATM   23  C19 UNL     1       8.324  10.313  19.969  1.00  0.00     0.125 C
HETATM   24 BR1  UNL     1       7.168  10.766  18.589  1.00  0.00    -0.085 Br
HETATM   25  C18 UNL     1       7.010   9.614  22.054  1.00  0.00     0.195 C
HETATM   26  N3  UNL     1       5.811   9.144  21.370  1.00  0.00    -0.015 NA
BRANCH  26  27
HETATM   27  O4  UNL     1       4.833   8.872  22.230  1.00  0.00    -0.288 OA
ATOM     28  H4  UNL     1       4.046   9.378  22.063  1.00  0.00     0.239 HD
ENDBRANCH  26  27
ENDBRANCH  15  16
ENDBRANCH   1  15
TORSDOF 6
ENDMDL