MODEL 3
REMARK VINA RESULT: -6.582780161      1.219      1.489
REMARK  2 active torsions:
REMARK  status: ('A' for Active; 'I' for Inactive)
REMARK    1  A    between atoms: C5_6  and  N2_7
REMARK    2  A    between atoms: N2_7  and  C6_9
ROOT
HETATM    1  C1  UNL     1      11.607   1.513 201.045  1.00  0.00     0.052 C
HETATM    2  C2  UNL     1      12.451   2.175 200.017  1.00  0.00    -0.009 A
HETATM    3  C3  UNL     1      13.216   1.415 199.161  1.00  0.00     0.096 A
HETATM    4  C4  UNL     1      13.209  -0.039 199.246  1.00  0.00     0.104 C
HETATM    5  N1  UNL     1      13.188  -1.193 199.304  1.00  0.00    -0.191 NA
HETATM    6  C5  UNL     1      13.987   2.065 198.220  1.00  0.00     0.123 A
HETATM    7  N4  UNL     1      14.021   3.402 198.109  1.00  0.00    -0.343 N
ATOM      8  H4  UNL     1      14.608   3.836 197.397  1.00  0.00     0.167 HD
HETATM    9  C15 UNL     1      13.288   4.169 198.929  1.00  0.00     0.039 A
HETATM   10  C16 UNL     1      12.507   3.554 199.878  1.00  0.00     0.058 A
HETATM   11  N5  UNL     1      11.802   4.553 200.645  1.00  0.00    -0.388 N
ATOM     12  H5  UNL     1      11.443   4.475 201.596  1.00  0.00     0.159 HD
HETATM   13  C17 UNL     1      11.722   5.709 199.738  1.00  0.00     0.126 C
HETATM   14  C18 UNL     1      13.087   5.632 199.095  1.00  0.00     0.079 C
ENDROOT
BRANCH   6  15
HETATM   15  N2  UNL     1      14.772   1.277 197.338  1.00  0.00    -0.370 N
ATOM     16  H2  UNL     1      15.777   1.208 197.490  1.00  0.00     0.161 HD
BRANCH  15  17
HETATM   17  C6  UNL     1      14.165   0.556 196.208  1.00  0.00     0.088 C
HETATM   18  C7  UNL     1      14.320   1.382 194.996  1.00  0.00     0.055 C
HETATM   19  C8  UNL     1      14.651   0.686 193.725  1.00  0.00     0.021 C
HETATM   20  C9  UNL     1      15.495   1.650 192.883  1.00  0.00     0.037 C
HETATM   21  C10 UNL     1      13.400   0.427 192.872  1.00  0.00     0.037 C
HETATM   22  N3  UNL     1      15.399  -0.516 193.831  1.00  0.00    -0.405 N
HETATM   23  C11 UNL     1      14.944  -1.425 194.850  1.00  0.00     0.021 C
ATOM     24  H3  UNL     1      16.198  -0.720 193.231  1.00  0.00     0.154 HD
HETATM   25  C12 UNL     1      16.056  -2.476 194.995  1.00  0.00     0.037 C
HETATM   26  C13 UNL     1      13.700  -2.191 194.451  1.00  0.00     0.037 C
HETATM   27  C14 UNL     1      14.759  -0.801 196.185  1.00  0.00     0.055 C
ENDBRANCH  15  17
ENDBRANCH   6  15
TORSDOF 2
ENDMDL