MODEL 5
REMARK VINA RESULT: -6.962430798      1.533      2.005
REMARK  6 active torsions:
REMARK  status: ('A' for Active; 'I' for Inactive)
REMARK    1  A    between atoms: C2_2  and  C4_4
REMARK    2  A    between atoms: C6_6  and  O1_7
REMARK    3  A    between atoms: C9_11  and  C10_12
REMARK       I    between atoms: N2_15  and  C11_16
REMARK    4  A    between atoms: C11_16  and  O3_18
REMARK    5  A    between atoms: O3_18  and  C12_19
REMARK    6  A    between atoms: C16_23  and  O4_24
ROOT
HETATM    1  C10 UNL     1      13.012   2.495 199.225  1.00  0.00     0.104 A
HETATM    2  N1  UNL     1      12.150   3.184 199.990  1.00  0.00    -0.283 N
ATOM      3  H1  UNL     1      11.879   4.167 200.026  1.00  0.00     0.188 HD
HETATM    4  N2  UNL     1      11.790   2.143 200.661  1.00  0.00    -0.174 N
HETATM    5  C11 UNL     1      10.805   1.835 201.665  1.00  0.00     0.389 C
HETATM    6  O2  UNL     1      10.819   0.679 202.173  1.00  0.00    -0.236 OA
HETATM    7  C16 UNL     1      12.625   1.381 199.948  1.00  0.00     0.195 A
ENDROOT
BRANCH   1   8
HETATM    8  C9  UNL     1      13.852   2.677 198.019  1.00  0.00    -0.043 C
HETATM    9  C4  UNL     1      13.419   1.940 196.803  1.00  0.00     0.023 C
HETATM   10  C5  UNL     1      12.647   2.841 195.836  1.00  0.00     0.041 C
HETATM   11  C6  UNL     1      12.812   4.296 195.909  1.00  0.00     0.119 C
HETATM   12  C7  UNL     1      13.469   4.951 197.062  1.00  0.00     0.036 C
HETATM   13  C8  UNL     1      14.320   4.060 197.883  1.00  0.00     0.039 C
BRANCH   9  14
HETATM   14  C2  UNL     1      14.422   1.123 196.062  1.00  0.00    -0.014 C
HETATM   15  C1  UNL     1      14.504  -0.301 196.460  1.00  0.00     0.010 C
HETATM   16  C3  UNL     1      14.425   1.362 194.565  1.00  0.00     0.010 C
ENDBRANCH   9  14
BRANCH  11  17
HETATM   17  O1  UNL     1      13.362   4.880 194.719  1.00  0.00    -0.396 OA
ATOM     18  H1  UNL     1      14.272   4.657 194.565  1.00  0.00     0.210 HD
ENDBRANCH  11  17
ENDBRANCH   1   8
BRANCH   7  19
HETATM   19  O4  UNL     1      12.907   0.009 200.009  1.00  0.00    -0.343 OA
ATOM     20  H4  UNL     1      13.581  -0.569 200.345  1.00  0.00     0.219 HD
ENDBRANCH   7  19
BRANCH   5  21
HETATM   21  O3  UNL     1       9.844   2.727 202.094  1.00  0.00    -0.292 OA
BRANCH  21  22
HETATM   22  C12 UNL     1       9.325   2.911 203.357  1.00  0.00     0.061 C
HETATM   23  C13 UNL     1       9.197   1.662 204.225  1.00  0.00     0.046 C
HETATM   24  C14 UNL     1       9.990   4.007 204.133  1.00  0.00     0.046 C
HETATM   25  C15 UNL     1       7.841   3.336 203.120  1.00  0.00     0.046 C
ENDBRANCH  21  22
ENDBRANCH   5  21
TORSDOF 6
ENDMDL