MODEL 5
REMARK VINA RESULT: -5.712958349      1.681      3.628
REMARK  5 active torsions:
REMARK  status: ('A' for Active; 'I' for Inactive)
REMARK    1  A    between atoms: O1_2  and  C2_3
REMARK    2  A    between atoms: C10_11  and  O2_13
REMARK    3  A    between atoms: C12_15  and  C13_16
REMARK    4  A    between atoms: C15_18  and  O3_19
REMARK    5  A    between atoms: C16_21  and  O4_22
ROOT
HETATM    1  C2  UNL     1      11.051   1.125 201.278  1.00  0.00     0.121 C
HETATM    2  C3  UNL     1      12.336   0.496 200.926  1.00  0.00     0.033 C
HETATM    3  C4  UNL     1      12.881   0.709 199.583  1.00  0.00     0.013 C
HETATM    4  C5  UNL     1      12.145   1.663 198.709  1.00  0.00    -0.028 C
HETATM    5  C6  UNL     1      10.993   0.868 198.075  1.00  0.00     0.016 C
HETATM    6  C7  UNL     1      11.616   2.811 199.498  1.00  0.00    -0.003 C
HETATM    7  C8  UNL     1      12.723   3.586 200.122  1.00  0.00     0.008 C
HETATM    8  C9  UNL     1      13.936   3.759 199.283  1.00  0.00     0.038 C
HETATM    9  C10 UNL     1      13.817   3.359 197.865  1.00  0.00     0.064 C
HETATM   10  C11 UNL     1      13.435   4.600 197.041  1.00  0.00     0.046 C
HETATM   11  C12 UNL     1      12.955   2.199 197.560  1.00  0.00     0.085 C
HETATM   12  C17 UNL     1      10.670   2.363 200.568  1.00  0.00     0.037 C
ENDROOT
BRANCH  11  13
HETATM   13  C13 UNL     1      13.691   1.102 196.850  1.00  0.00     0.066 A
HETATM   14  C14 UNL     1      14.012   0.993 195.507  1.00  0.00     0.075 A
HETATM   15  C15 UNL     1      14.696  -0.189 195.312  1.00  0.00     0.126 A
HETATM   16  C16 UNL     1      14.768  -0.763 196.563  1.00  0.00     0.217 A
HETATM   17  O5  UNL     1      14.171   0.022 197.421  1.00  0.00    -0.290 OA
BRANCH  15  18
HETATM   18  O3  UNL     1      15.198  -0.681 194.117  1.00  0.00    -0.356 OA
ATOM     19  H3  UNL     1      14.734  -1.196 193.467  1.00  0.00     0.218 HD
ENDBRANCH  15  18
BRANCH  16  20
HETATM   20  O4  UNL     1      15.388  -1.982 196.800  1.00  0.00    -0.339 OA
ATOM     21  H4  UNL     1      15.515  -2.337 197.673  1.00  0.00     0.220 HD
ENDBRANCH  16  20
ENDBRANCH  11  13
BRANCH   9  22
HETATM   22  O2  UNL     1      15.124   3.040 197.413  1.00  0.00    -0.389 OA
ATOM     23  H2  UNL     1      15.210   3.400 196.538  1.00  0.00     0.210 HD
ENDBRANCH   9  22
BRANCH   1  24
HETATM   24  O1  UNL     1      11.041   1.389 202.651  1.00  0.00    -0.391 OA
HETATM   25  C1  UNL     1       9.804   1.715 203.141  1.00  0.00     0.202 C
ENDBRANCH   1  24
TORSDOF 5
ENDMDL