MODEL 4
REMARK VINA RESULT: -6.700002552      1.321      1.996
REMARK  6 active torsions:
REMARK  status: ('A' for Active; 'I' for Inactive)
REMARK    1  A    between atoms: S1_2  and  C2_3
REMARK    2  A    between atoms: C3_4  and  O1_5
REMARK    3  A    between atoms: C6_9  and  O2_10
REMARK    4  A    between atoms: C7_12  and  C8_13
REMARK    5  A    between atoms: C9_14  and  C10_15
REMARK    6  A    between atoms: C14_19  and  O3_20
ROOT
HETATM    1  C2  UNL     1      13.549   2.403 197.819  1.00  0.00     0.047 A
HETATM    2  C3  UNL     1      13.303   3.621 198.411  1.00  0.00     0.098 A
HETATM    3  C4  UNL     1      13.279   4.823 197.729  1.00  0.00     0.056 A
HETATM    4  C5  UNL     1      13.515   4.824 196.369  1.00  0.00     0.021 A
HETATM    5  C6  UNL     1      13.766   3.593 195.757  1.00  0.00     0.087 A
HETATM    6  C7  UNL     1      13.789   2.399 196.438  1.00  0.00     0.017 A
HETATM    7  C14 UNL     1      13.441   6.212 195.841  1.00  0.00     0.162 C
HETATM    8  C15 UNL     1      12.608   6.969 196.888  1.00  0.00     0.120 C
HETATM    9  C16 UNL     1      13.050   6.220 198.120  1.00  0.00     0.165 C
HETATM   10  O4  UNL     1      13.203   6.660 199.265  1.00  0.00    -0.292 OA
ENDROOT
BRANCH   6  11
HETATM   11  C8  UNL     1      14.049   1.109 195.816  1.00  0.00     0.012 C
HETATM   12  C9  UNL     1      14.446   0.836 194.619  1.00  0.00    -0.017 C
BRANCH  12  13
HETATM   13  C10 UNL     1      14.643  -0.602 194.214  1.00  0.00    -0.034 C
HETATM   14  C11 UNL     1      15.930  -0.691 193.389  1.00  0.00     0.018 C
HETATM   15  C12 UNL     1      13.524  -1.008 193.308  1.00  0.00     0.018 C
HETATM   16  C13 UNL     1      14.804  -1.485 195.411  1.00  0.00     0.018 C
ENDBRANCH  12  13
ENDBRANCH   6  11
BRANCH   1  17
HETATM   17  S1  UNL     1      13.563   0.883 198.776  1.00  0.00    -0.131 SA
HETATM   18  C1  UNL     1      12.116   0.749 199.835  1.00  0.00     0.095 C
ENDBRANCH   1  17
BRANCH   5  19
HETATM   19  O2  UNL     1      13.995   3.650 194.394  1.00  0.00    -0.359 OA
ATOM     20  H2  UNL     1      14.167   2.814 193.978  1.00  0.00     0.217 HD
ENDBRANCH   5  19
BRANCH   2  21
HETATM   21  O1  UNL     1      13.070   3.599 199.778  1.00  0.00    -0.358 OA
ATOM     22  H1  UNL     1      13.737   4.000 200.322  1.00  0.00     0.217 HD
ENDBRANCH   2  21
BRANCH   7  23
HETATM   23  O3  UNL     1      14.698   6.829 195.855  1.00  0.00    -0.390 OA
ATOM     24  H3  UNL     1      14.628   7.759 195.670  1.00  0.00     0.210 HD
ENDBRANCH   7  23
TORSDOF 6
ENDMDL