MODEL 1
REMARK VINA RESULT: -9.626074438      0.000      0.000
REMARK  5 active torsions:
REMARK  status: ('A' for Active; 'I' for Inactive)
REMARK    1  A    between atoms: O1_2  and  C2_3
REMARK    2  A    between atoms: C2_3  and  C3_5
REMARK    3  A    between atoms: C9_11  and  O3_12
REMARK    4  A    between atoms: N1_14  and  C10_15
REMARK    5  A    between atoms: C15_20  and  O4_21
ROOT
HETATM    1  C3  UNL     1      14.506   0.804 196.470  1.00  0.00     0.086 C
HETATM    2  C4  UNL     1      14.041   2.224 196.351  1.00  0.00     0.015 C
HETATM    3  C5  UNL     1      12.970   2.470 197.390  1.00  0.00     0.011 C
HETATM    4  C6  UNL     1      13.590   2.169 198.740  1.00  0.00     0.028 C
HETATM    5  C7  UNL     1      12.625   2.550 199.779  1.00  0.00     0.008 A
HETATM    6  C8  UNL     1      12.048   1.449 200.329  1.00  0.00     0.004 A
HETATM    7  C9  UNL     1      11.173   1.872 201.277  1.00  0.00     0.151 A
HETATM    8  N1  UNL     1      11.195   3.240 201.329  1.00  0.00    -0.303 N
HETATM    9  C15 UNL     1      12.086   3.647 200.408  1.00  0.00     0.152 A
HETATM   10  C16 UNL     1      12.588   0.205 199.690  1.00  0.00     0.049 C
HETATM   11  C17 UNL     1      13.734   0.668 198.833  1.00  0.00    -0.001 C
HETATM   12  C18 UNL     1      13.764   0.006 197.490  1.00  0.00     0.020 C
ENDROOT
BRANCH   8  13
HETATM   13  C10 UNL     1      10.377   3.965 202.235  1.00  0.00     0.094 C
HETATM   14  C11 UNL     1       8.931   3.483 202.171  1.00  0.00     0.026 C
HETATM   15  C12 UNL     1       8.480   3.295 203.582  1.00  0.00     0.002 C
HETATM   16  C13 UNL     1       9.739   3.106 204.416  1.00  0.00     0.002 C
HETATM   17  C14 UNL     1      10.740   3.936 203.655  1.00  0.00     0.026 C
ENDBRANCH   8  13
BRANCH   7  18
HETATM   18  O3  UNL     1      10.389   1.021 202.060  1.00  0.00    -0.345 OA
ATOM     19  H3  UNL     1       9.919   1.293 202.839  1.00  0.00     0.219 HD
ENDBRANCH   7  18
BRANCH   9  20
HETATM   20  O4  UNL     1      12.368   4.991 200.184  1.00  0.00    -0.345 OA
ATOM     21  H4  UNL     1      11.998   5.749 200.621  1.00  0.00     0.219 HD
ENDBRANCH   9  20
BRANCH   1  22
HETATM   22  C2  UNL     1      14.464   0.151 195.154  1.00  0.00     0.262 C
HETATM   23  O2  UNL     1      14.379  -1.103 195.097  1.00  0.00    -0.265 OA
BRANCH  22  24
HETATM   24  O1  UNL     1      14.510   0.830 193.949  1.00  0.00    -0.326 OA
HETATM   25  C1  UNL     1      15.279   0.375 192.836  1.00  0.00     0.213 C
ENDBRANCH  22  24
ENDBRANCH   1  22
TORSDOF 5
ENDMDL