MODEL 3
REMARK VINA RESULT: -5.238528509      1.509      1.828
REMARK  2 active torsions:
REMARK  status: ('A' for Active; 'I' for Inactive)
REMARK    1  A    between atoms: C2_2  and  C4_5
REMARK    2  A    between atoms: C2_2  and  C5_8
ROOT
HETATM    1  C1  UNL     1      10.979   1.374 200.286  1.00  0.00     0.044 C
HETATM    2  C2  UNL     1      12.265   2.057 199.908  1.00  0.00     0.145 C
HETATM    3  C3  UNL     1      13.350   1.349 200.585  1.00  0.00     0.081 C
HETATM    4  N1  UNL     1      14.226   0.786 201.108  1.00  0.00    -0.196 NA
ENDROOT
BRANCH   2   5
HETATM    5  C4  UNL     1      12.228   3.428 200.440  1.00  0.00     0.197 C
HETATM    6  O1  UNL     1      13.237   4.159 200.537  1.00  0.00    -0.647 OA
HETATM    7  O2  UNL     1      11.014   3.953 200.863  1.00  0.00    -0.647 OA
ENDBRANCH   2   5
BRANCH   2   8
HETATM    8  C5  UNL     1      12.484   2.070 198.412  1.00  0.00     0.080 C
HETATM    9  C6  UNL     1      13.510   3.098 198.003  1.00  0.00     0.017 C
HETATM   10  C7  UNL     1      13.087   3.645 196.665  1.00  0.00     0.002 C
HETATM   11  C8  UNL     1      14.149   4.425 195.974  1.00  0.00     0.006 C
HETATM   12  C9  UNL     1      13.864   4.433 194.489  1.00  0.00     0.064 C
HETATM   13  C10 UNL     1      14.620   3.337 193.852  1.00  0.00     0.040 C
HETATM   14  N2  UNL     1      15.826   3.545 193.488  1.00  0.00    -0.397 N
HETATM   15  S1  UNL     1      13.917   1.728 193.566  1.00  0.00    -0.117 SA
ATOM     16  H22 UNL     1      16.229   4.467 193.652  1.00  0.00     0.156 HD
ATOM     17  H21 UNL     1      16.349   2.788 193.048  1.00  0.00     0.156 HD
HETATM   18  C11 UNL     1      15.126   0.405 193.961  1.00  0.00     0.080 C
HETATM   19  C12 UNL     1      14.376  -0.721 194.567  1.00  0.00     0.011 C
HETATM   20  C13 UNL     1      14.527  -0.873 196.046  1.00  0.00     0.011 C
HETATM   21  C14 UNL     1      14.351   0.368 196.837  1.00  0.00     0.074 C
HETATM   22  S2  UNL     1      12.791   0.437 197.742  1.00  0.00    -0.162 SA
ENDBRANCH   2   8
TORSDOF 2
ENDMDL