MODEL 5
REMARK VINA RESULT: -1.251941668      2.046      5.390
REMARK  4 active torsions:
REMARK  status: ('A' for Active; 'I' for Inactive)
REMARK    1  A    between atoms: O1_2  and  C2_3
REMARK    2  A    between atoms: C4_5  and  O2_6
REMARK    3  A    between atoms: C6_9  and  O3_10
REMARK    4  A    between atoms: C12_17  and  O4_18
ROOT
HETATM    1  C2  UNL     1      11.856   2.257 200.752  1.00  0.00     0.080 A
HETATM    2  C3  UNL     1      11.006   3.324 200.749  1.00  0.00     0.076 A
HETATM    3  C4  UNL     1      11.564   4.499 200.314  1.00  0.00     0.104 A
HETATM    4  C5  UNL     1      12.882   4.610 199.916  1.00  0.00     0.136 A
HETATM    5  C6  UNL     1      13.793   3.520 199.946  1.00  0.00     0.111 A
HETATM    6  C7  UNL     1      13.213   2.345 200.353  1.00  0.00     0.012 A
HETATM    7  C8  UNL     1      13.649   0.907 200.025  1.00  0.00     0.049 C
HETATM    8  C9  UNL     1      13.182   0.633 198.584  1.00  0.00    -0.012 C
HETATM    9  C10 UNL     1      13.670  -0.774 198.289  1.00  0.00     0.010 C
HETATM   10  C11 UNL     1      13.715   1.546 197.533  1.00  0.00     0.036 C
HETATM   11  C12 UNL     1      12.781   2.633 197.042  1.00  0.00     0.122 C
HETATM   12  C13 UNL     1      13.491   3.929 196.651  1.00  0.00     0.013 C
HETATM   13  C14 UNL     1      13.565   3.901 195.096  1.00  0.00     0.012 C
HETATM   14  C15 UNL     1      12.751   5.120 197.113  1.00  0.00     0.039 C
HETATM   15  C16 UNL     1      13.424   6.142 197.980  1.00  0.00     0.125 C
HETATM   16  C17 UNL     1      12.808   7.488 197.696  1.00  0.00     0.040 C
HETATM   17  O5  UNL     1      13.177   5.918 199.432  1.00  0.00    -0.341 OA
ENDROOT
BRANCH   1  18
HETATM   18  O1  UNL     1      11.320   1.023 201.182  1.00  0.00    -0.355 OA
HETATM   19  C1  UNL     1      10.586   0.968 202.370  1.00  0.00     0.210 C
ENDBRANCH   1  18
BRANCH   3  20
HETATM   20  O2  UNL     1      10.634   5.572 200.329  1.00  0.00    -0.358 OA
ATOM     21  H2  UNL     1       9.817   5.333 200.751  1.00  0.00     0.217 HD
ENDBRANCH   3  20
BRANCH   5  22
HETATM   22  O3  UNL     1      15.137   3.756 199.614  1.00  0.00    -0.357 OA
ATOM     23  H3  UNL     1      15.745   3.986 200.308  1.00  0.00     0.217 HD
ENDBRANCH   5  22
BRANCH  11  24
HETATM   24  O4  UNL     1      12.176   2.092 195.850  1.00  0.00    -0.395 OA
ATOM     25  H4  UNL     1      11.706   2.821 195.462  1.00  0.00     0.210 HD
ENDBRANCH  11  24
TORSDOF 4
ENDMDL