MODEL 3
REMARK VINA RESULT: -9.100282928      1.229      1.803
REMARK  8 active torsions:
REMARK  status: ('A' for Active; 'I' for Inactive)
REMARK    1  A    between atoms: C2_2  and  C4_4
REMARK    2  A    between atoms: C9_9  and  C10_10
REMARK    3  A    between atoms: C10_10  and  O1_11
REMARK    4  A    between atoms: C10_10  and  S1_13
REMARK    5  A    between atoms: S1_13  and  C11_14
REMARK    6  A    between atoms: C15_18  and  O2_19
REMARK    7  A    between atoms: C16_21  and  O3_22
REMARK    8  A    between atoms: C17_24  and  O4_25
ROOT
HETATM    1  C4  UNL     1      14.317   0.357 196.581  1.00  0.00     0.051 C
HETATM    2  C5  UNL     1      14.130   1.881 196.580  1.00  0.00     0.054 C
HETATM    3  C6  UNL     1      13.394   2.063 197.859  1.00  0.00    -0.013 A
HETATM    4  C7  UNL     1      12.714   0.898 198.158  1.00  0.00    -0.019 A
HETATM    5  C8  UNL     1      11.968   0.863 199.310  1.00  0.00     0.028 A
HETATM    6  C9  UNL     1      11.848   1.939 200.211  1.00  0.00     0.041 A
HETATM    7  C15 UNL     1      12.553   3.066 199.849  1.00  0.00     0.113 A
HETATM    8  C16 UNL     1      13.323   3.153 198.696  1.00  0.00     0.106 A
HETATM    9  C17 UNL     1      12.980  -0.103 197.071  1.00  0.00     0.160 C
ENDROOT
BRANCH   6  10
HETATM   10  C10 UNL     1      11.037   1.814 201.414  1.00  0.00     0.116 C
BRANCH  10  11
HETATM   11  O1  UNL     1      11.412   0.681 202.066  1.00  0.00    -0.353 OA
ATOM     12  H1  UNL     1      10.636   0.155 202.221  1.00  0.00     0.218 HD
ENDBRANCH  10  11
BRANCH  10  13
HETATM   13  S1  UNL     1       9.835   2.629 202.180  1.00  0.00    -0.096 SA
BRANCH  13  14
HETATM   14  C11 UNL     1       9.095   2.960 203.624  1.00  0.00     0.004 C
HETATM   15  C12 UNL     1       7.603   3.318 203.683  1.00  0.00     0.026 C
HETATM   16  C13 UNL     1       9.797   3.898 204.646  1.00  0.00     0.026 C
HETATM   17  C14 UNL     1       9.105   1.610 204.499  1.00  0.00     0.026 C
ENDBRANCH  13  14
ENDBRANCH  10  13
ENDBRANCH   6  10
BRANCH   7  18
HETATM   18  O2  UNL     1      12.524   4.178 200.634  1.00  0.00    -0.357 OA
ATOM     19  H2  UNL     1      13.284   4.747 200.690  1.00  0.00     0.217 HD
ENDBRANCH   7  18
BRANCH   8  20
HETATM   20  O3  UNL     1      13.998   4.329 198.413  1.00  0.00    -0.357 OA
ATOM     21  H3  UNL     1      13.535   5.145 198.266  1.00  0.00     0.217 HD
ENDBRANCH   8  20
BRANCH   9  22
HETATM   22  O4  UNL     1      12.964  -1.394 197.530  1.00  0.00    -0.390 OA
ATOM     23  H4  UNL     1      13.263  -1.493 198.425  1.00  0.00     0.210 HD
ENDBRANCH   9  22
BRANCH   1  24
HETATM   24  C2  UNL     1      14.671  -0.048 195.220  1.00  0.00    -0.086 C
HETATM   25  C1  UNL     1      14.622   0.758 194.177  1.00  0.00     0.014 C
HETATM   26  C3  UNL     1      15.111  -1.454 195.008  1.00  0.00     0.043 C
ENDBRANCH   1  24
TORSDOF 8
ENDMDL