MODEL 4
REMARK VINA RESULT: -3.629713189      1.708      5.091
REMARK  6 active torsions:
REMARK  status: ('A' for Active; 'I' for Inactive)
REMARK    1  A    between atoms: C3_3  and  C4_4
REMARK    2  A    between atoms: C5_5  and  O1_6
REMARK    3  A    between atoms: C6_8  and  C7_9
REMARK    4  A    between atoms: C9_12  and  O3_13
REMARK    5  A    between atoms: C17_23  and  C18_24
REMARK    6  A    between atoms: C18_24  and  O5_25
ROOT
HETATM    1  C4  UNL     1      13.849   3.644 195.343  1.00  0.00     0.032 A
HETATM    2  C5  UNL     1      14.305   2.744 194.362  1.00  0.00     0.095 A
HETATM    3  C6  UNL     1      14.338   1.342 194.615  1.00  0.00     0.077 A
HETATM    4  C9  UNL     1      13.911   0.907 195.843  1.00  0.00     0.091 A
HETATM    5  C10 UNL     1      13.453   1.835 196.823  1.00  0.00     0.017 A
HETATM    6  C11 UNL     1      13.427   3.169 196.568  1.00  0.00     0.092 A
HETATM    7  O4  UNL     1      12.960   4.037 197.595  1.00  0.00    -0.339 OA
HETATM    8  C12 UNL     1      13.370   3.647 198.919  1.00  0.00     0.064 C
HETATM    9  C13 UNL     1      14.843   3.937 199.115  1.00  0.00     0.046 C
HETATM   10  C14 UNL     1      12.598   4.569 199.854  1.00  0.00     0.046 C
HETATM   11  C15 UNL     1      13.033   2.236 199.243  1.00  0.00     0.026 C
HETATM   12  C16 UNL     1      14.035   1.778 200.305  1.00  0.00     0.014 C
HETATM   13  C17 UNL     1      12.997   1.293 198.101  1.00  0.00     0.054 C
ENDROOT
BRANCH   1  14
HETATM   14  C3  UNL     1      13.802   5.069 195.108  1.00  0.00     0.013 C
HETATM   15  C2  UNL     1      14.725   5.966 195.158  1.00  0.00    -0.030 C
HETATM   16  C1  UNL     1      14.300   7.398 194.843  1.00  0.00     0.036 C
ENDBRANCH   1  14
BRANCH   2  17
HETATM   17  O1  UNL     1      14.720   3.127 193.176  1.00  0.00    -0.359 OA
ATOM     18  H1  UNL     1      14.189   3.647 192.585  1.00  0.00     0.217 HD
ENDBRANCH   2  17
BRANCH   3  19
HETATM   19  C7  UNL     1      14.811   0.428 193.590  1.00  0.00     0.161 C
HETATM   20  C8  UNL     1      13.949  -0.400 192.725  1.00  0.00     0.097 C
HETATM   21  O2  UNL     1      16.043   0.305 193.395  1.00  0.00    -0.293 OA
ENDBRANCH   3  19
BRANCH   4  22
HETATM   22  O3  UNL     1      13.896  -0.409 196.203  1.00  0.00    -0.359 OA
ATOM     23  H3  UNL     1      14.508  -0.783 196.826  1.00  0.00     0.217 HD
ENDBRANCH   4  22
BRANCH  13  24
HETATM   24  C18 UNL     1      11.630   0.639 197.990  1.00  0.00     0.174 C
BRANCH  24  25
HETATM   25  O5  UNL     1      10.728   1.146 198.889  1.00  0.00    -0.400 OA
ATOM     26  H5  UNL     1      10.804   0.746 199.748  1.00  0.00     0.209 HD
ENDBRANCH  24  25
ENDBRANCH  13  24
TORSDOF 6
ENDMDL