MODEL 1
REMARK VINA RESULT: -7.521798297      0.000      0.000
REMARK  6 active torsions:
REMARK  status: ('A' for Active; 'I' for Inactive)
REMARK    1  A    between atoms: C2_2  and  C3_3
REMARK    2  A    between atoms: C3_3  and  O2_5
REMARK    3  A    between atoms: O2_5  and  C4_6
REMARK    4  A    between atoms: C10_12  and  O3_13
REMARK    5  A    between atoms: C13_17  and  O4_18
REMARK    6  A    between atoms: C14_20  and  O5_21
ROOT
HETATM    1  C4  UNL     1      13.613   2.615 198.351  1.00  0.00     0.144 C
HETATM    2  C5  UNL     1      12.684   3.422 197.467  1.00  0.00     0.038 C
HETATM    3  C6  UNL     1      13.407   4.212 196.438  1.00  0.00    -0.012 C
HETATM    4  C7  UNL     1      12.476   4.618 195.315  1.00  0.00     0.010 C
HETATM    5  C8  UNL     1      14.612   3.513 195.862  1.00  0.00     0.046 C
HETATM    6  C9  UNL     1      14.426   2.078 195.655  1.00  0.00    -0.014 A
HETATM    7  C10 UNL     1      14.821   1.710 194.369  1.00  0.00     0.081 A
HETATM    8  C11 UNL     1      14.742   0.408 193.935  1.00  0.00     0.008 A
HETATM    9  C12 UNL     1      15.165   0.008 192.555  1.00  0.00     0.054 C
HETATM   10  C13 UNL     1      14.259  -0.588 194.780  1.00  0.00     0.108 A
HETATM   11  C14 UNL     1      13.866  -0.223 196.056  1.00  0.00     0.107 A
HETATM   12  C15 UNL     1      13.947   1.092 196.492  1.00  0.00    -0.003 A
HETATM   13  C16 UNL     1      13.456   1.183 197.912  1.00  0.00     0.010 C
HETATM   14  C17 UNL     1      14.284   0.313 198.821  1.00  0.00     0.023 C
HETATM   15  C18 UNL     1      12.012   0.727 197.988  1.00  0.00     0.023 C
ENDROOT
BRANCH   1  16
HETATM   16  O2  UNL     1      13.309   2.756 199.709  1.00  0.00    -0.315 OA
BRANCH  16  17
HETATM   17  C3  UNL     1      12.557   3.833 200.154  1.00  0.00     0.258 C
HETATM   18  O1  UNL     1      12.957   4.984 199.838  1.00  0.00    -0.265 OA
BRANCH  17  19
HETATM   19  C2  UNL     1      11.316   3.627 200.982  1.00  0.00     0.106 C
HETATM   20  C1  UNL     1      11.034   2.160 201.011  1.00  0.00     0.015 C
ENDBRANCH  17  19
ENDBRANCH  16  17
ENDBRANCH   1  16
BRANCH  11  21
HETATM   21  O5  UNL     1      13.390  -1.196 196.893  1.00  0.00    -0.357 OA
ATOM     22  H5  UNL     1      13.160  -0.954 197.782  1.00  0.00     0.217 HD
ENDBRANCH  11  21
BRANCH   7  23
HETATM   23  O3  UNL     1      15.298   2.693 193.536  1.00  0.00    -0.359 OA
ATOM     24  H3  UNL     1      14.667   3.212 193.051  1.00  0.00     0.217 HD
ENDBRANCH   7  23
BRANCH  10  25
HETATM   25  O4  UNL     1      14.195  -1.889 194.301  1.00  0.00    -0.357 OA
ATOM     26  H4  UNL     1      14.307  -2.604 194.916  1.00  0.00     0.217 HD
ENDBRANCH  10  25
TORSDOF 6
ENDMDL