MODEL 1
REMARK VINA RESULT: -7.565114776      0.000      0.000
REMARK  12 active torsions:
REMARK  status: ('A' for Active; 'I' for Inactive)
REMARK    1  A    between atoms: O1_2  and  C2_3
REMARK    2  A    between atoms: C7_8  and  O2_9
REMARK    3  A    between atoms: O2_9  and  C8_10
REMARK    4  A    between atoms: C8_10  and  C9_11
REMARK    5  A    between atoms: C8_10  and  C10_14
REMARK    6  A    between atoms: C9_11  and  O3_12
REMARK    7  A    between atoms: C12_16  and  O4_17
REMARK    8  A    between atoms: C15_21  and  O5_22
REMARK    9  A    between atoms: C18_26  and  C19_27
REMARK   10  A    between atoms: C19_27  and  C20_28
REMARK   11  A    between atoms: C23_32  and  O6_33
REMARK   12  A    between atoms: C24_35  and  O7_36
ROOT
HETATM    1  C2  UNL     1      40.204 -24.922  28.654  1.00  0.00     0.104 A
HETATM    2  C3  UNL     1      40.761 -24.075  29.548  1.00  0.00     0.077 A
HETATM    3  C4  UNL     1      40.952 -22.745  29.211  1.00  0.00     0.078 A
HETATM    4  C5  UNL     1      40.566 -22.276  27.964  1.00  0.00    -0.017 A
HETATM    5  C6  UNL     1      40.010 -23.112  27.068  1.00  0.00     0.050 A
HETATM    6  C7  UNL     1      39.806 -24.499  27.370  1.00  0.00     0.103 A
HETATM    7  C18 UNL     1      40.903 -20.813  27.679  1.00  0.00     0.028 C
HETATM    8  C27 UNL     1      42.414 -20.856  28.063  1.00  0.00     0.036 C
HETATM    9  C28 UNL     1      42.599 -21.016  29.542  1.00  0.00     0.176 C
HETATM   10  O8  UNL     1      41.534 -21.847  30.081  1.00  0.00    -0.350 OA
ENDROOT
BRANCH   6  11
HETATM   11  O2  UNL     1      39.291 -25.285  26.485  1.00  0.00    -0.336 OA
BRANCH  11  12
HETATM   12  C8  UNL     1      38.760 -26.088  25.578  1.00  0.00     0.186 C
BRANCH  12  13
HETATM   13  C9  UNL     1      39.797 -26.795  24.710  1.00  0.00     0.201 C
BRANCH  13  14
HETATM   14  O3  UNL     1      40.946 -27.168  25.350  1.00  0.00    -0.398 OA
ATOM     15  H3  UNL     1      41.165 -28.090  25.294  1.00  0.00     0.209 HD
ENDBRANCH  13  14
ENDBRANCH  12  13
BRANCH  12  16
HETATM   16  C10 UNL     1      37.672 -25.477  24.721  1.00  0.00    -0.015 A
HETATM   17  C11 UNL     1      37.798 -24.323  23.986  1.00  0.00     0.048 A
HETATM   18  C12 UNL     1      36.746 -23.701  23.324  1.00  0.00     0.088 A
HETATM   19  C14 UNL     1      35.477 -24.284  23.414  1.00  0.00     0.077 A
HETATM   20 BR1  UNL     1      34.025 -23.401  22.534  1.00  0.00    -0.045 Br
HETATM   21  C15 UNL     1      35.294 -25.438  24.128  1.00  0.00     0.092 A
HETATM   22  C16 UNL     1      36.372 -26.001  24.749  1.00  0.00    -0.018 A
HETATM   23  C17 UNL     1      36.193 -27.375  25.293  1.00  0.00     0.052 C
BRANCH  18  24
HETATM   24  O4  UNL     1      36.864 -22.567  22.594  1.00  0.00    -0.354 OA
HETATM   25  C13 UNL     1      37.911 -21.638  22.548  1.00  0.00     0.210 C
ENDBRANCH  18  24
BRANCH  21  26
HETATM   26  O5  UNL     1      34.014 -25.996  24.197  1.00  0.00    -0.359 OA
ATOM     27  H5  UNL     1      33.737 -26.411  25.005  1.00  0.00     0.217 HD
ENDBRANCH  21  26
ENDBRANCH  12  16
ENDBRANCH  11  12
ENDBRANCH   6  11
BRANCH   1  28
HETATM   28  O1  UNL     1      40.019 -26.249  28.984  1.00  0.00    -0.353 OA
HETATM   29  C1  UNL     1      40.900 -27.302  28.837  1.00  0.00     0.210 C
ENDBRANCH   1  28
BRANCH   7  30
HETATM   30  C19 UNL     1      40.276 -19.942  28.716  1.00  0.00     0.048 C
BRANCH  30  31
HETATM   31  C20 UNL     1      39.509 -18.754  28.271  1.00  0.00    -0.053 A
HETATM   32  C21 UNL     1      38.935 -17.788  29.021  1.00  0.00     0.034 A
HETATM   33  C22 UNL     1      38.095 -16.781  28.518  1.00  0.00     0.070 A
HETATM   34 CL1  UNL     1      37.392 -15.556  29.544  1.00  0.00    -0.081 Cl
HETATM   35  C23 UNL     1      37.831 -16.767  27.178  1.00  0.00     0.121 A
HETATM   36  C24 UNL     1      38.380 -17.722  26.359  1.00  0.00     0.103 A
HETATM   37  C26 UNL     1      39.196 -18.685  26.887  1.00  0.00     0.047 A
BRANCH  35  38
HETATM   38  O6  UNL     1      36.993 -15.775  26.634  1.00  0.00    -0.356 OA
ATOM     39  H6  UNL     1      36.983 -14.901  27.008  1.00  0.00     0.218 HD
ENDBRANCH  35  38
BRANCH  36  40
HETATM   40  O7  UNL     1      38.069 -17.677  25.009  1.00  0.00    -0.353 OA
HETATM   41  C25 UNL     1      37.024 -18.472  24.506  1.00  0.00     0.210 C
ENDBRANCH  36  40
ENDBRANCH  30  31
ENDBRANCH   7  30
TORSDOF 12
ENDMDL