MODEL 5
REMARK VINA RESULT: -7.880967614      0.776      1.238
REMARK  12 active torsions:
REMARK  status: ('A' for Active; 'I' for Inactive)
REMARK    1  A    between atoms: C2_2  and  C3_3
REMARK    2  A    between atoms: C3_3  and  C4_4
REMARK    3  A    between atoms: C4_4  and  N1_5
REMARK    4  A    between atoms: C5_6  and  C6_7
REMARK    5  A    between atoms: C9_10  and  N2_11
REMARK    6  A    between atoms: N2_11  and  C10_13
REMARK    7  A    between atoms: C10_13  and  C11_16
REMARK    8  A    between atoms: C15_20  and  O1_21
REMARK    9  A    between atoms: C19_27  and  O3_28
REMARK   10  A    between atoms: O3_28  and  C20_29
REMARK   11  A    between atoms: C20_29  and  C21_30
REMARK   12  A    between atoms: C27_37  and  O4_38
ROOT
HETATM    1  N1  UNL     1      37.383 -19.588  25.567  1.00  0.00    -0.253 N
HETATM    2  C5  UNL     1      37.674 -20.744  26.353  1.00  0.00     0.279 C
HETATM    3  O2  UNL     1      37.606 -21.923  25.619  1.00  0.00    -0.319 OA
HETATM    4  C17 UNL     1      36.524 -22.337  24.848  1.00  0.00     0.098 A
HETATM    5  C18 UNL     1      35.956 -23.571  24.858  1.00  0.00     0.078 A
HETATM    6  C19 UNL     1      34.873 -23.861  24.038  1.00  0.00     0.104 A
HETATM    7  C27 UNL     1      34.339 -22.900  23.184  1.00  0.00     0.100 A
HETATM    8  C28 UNL     1      34.927 -21.654  23.187  1.00  0.00     0.067 A
HETATM    9  C29 UNL     1      35.994 -21.387  24.001  1.00  0.00     0.116 A
HETATM   10  S1  UNL     1      36.802 -19.821  24.042  1.00  0.00     0.269 S
HETATM   11  O5  UNL     1      38.012 -20.003  23.102  1.00  0.00    -0.200 OA
HETATM   12  O6  UNL     1      35.950 -18.803  23.416  1.00  0.00    -0.200 OA
ENDROOT
BRANCH   2  13
HETATM   13  C6  UNL     1      39.027 -20.651  26.971  1.00  0.00    -0.006 A
HETATM   14  C7  UNL     1      39.157 -20.650  28.332  1.00  0.00     0.014 A
HETATM   15  C8  UNL     1      40.384 -20.553  28.967  1.00  0.00     0.033 A
HETATM   16  C9  UNL     1      41.526 -20.451  28.226  1.00  0.00     0.066 A
HETATM   17  C15 UNL     1      41.392 -20.451  26.825  1.00  0.00     0.092 A
HETATM   18  C16 UNL     1      40.172 -20.549  26.233  1.00  0.00     0.050 A
BRANCH  16  19
HETATM   19  N2  UNL     1      42.800 -20.379  28.817  1.00  0.00    -0.325 N
ATOM     20  H2  UNL     1      43.285 -19.491  28.685  1.00  0.00     0.165 HD
BRANCH  19  21
HETATM   21  C10 UNL     1      43.518 -21.345  29.568  1.00  0.00     0.329 C
HETATM   22  F1  UNL     1      43.349 -22.616  28.900  1.00  0.00    -0.182 F
HETATM   23  F2  UNL     1      43.032 -21.583  30.818  1.00  0.00    -0.182 F
BRANCH  21  24
HETATM   24  C11 UNL     1      45.020 -21.152  29.602  1.00  0.00     0.035 C
HETATM   25  C12 UNL     1      45.421 -20.475  28.286  1.00  0.00     0.022 C
HETATM   26  C13 UNL     1      45.729 -22.508  29.572  1.00  0.00     0.022 C
HETATM   27  C14 UNL     1      45.581 -20.366  30.709  1.00  0.00     0.022 C
ENDBRANCH  21  24
ENDBRANCH  19  21
ENDBRANCH  16  19
BRANCH  17  28
HETATM   28  O1  UNL     1      42.576 -20.347  26.092  1.00  0.00    -0.358 OA
ATOM     29  H1  UNL     1      42.534 -19.824  25.300  1.00  0.00     0.217 HD
ENDBRANCH  17  28
ENDBRANCH   2  13
BRANCH   1  30
HETATM   30  C4  UNL     1      37.285 -18.381  26.258  1.00  0.00     0.079 C
BRANCH  30  31
HETATM   31  C3  UNL     1      38.310 -17.340  26.061  1.00  0.00     0.045 C
BRANCH  31  32
HETATM   32  C2  UNL     1      39.153 -16.902  27.180  1.00  0.00     0.001 C
HETATM   33  C1  UNL     1      38.595 -17.032  28.551  1.00  0.00     0.005 C
ENDBRANCH  31  32
ENDBRANCH  30  31
ENDBRANCH   1  30
BRANCH   6  34
HETATM   34  O3  UNL     1      34.277 -25.107  24.027  1.00  0.00    -0.348 OA
BRANCH  34  35
HETATM   35  C20 UNL     1      35.106 -26.249  23.955  1.00  0.00     0.180 C
BRANCH  35  36
HETATM   36  C21 UNL     1      34.544 -27.129  22.847  1.00  0.00     0.013 C
HETATM   37  C22 UNL     1      34.930 -26.521  21.514  1.00  0.00     0.037 C
HETATM   38  C23 UNL     1      36.275 -27.153  21.129  1.00  0.00     0.272 C
HETATM   39  N3  UNL     1      35.953 -28.490  20.654  1.00  0.00     0.084 N
HETATM   40  C24 UNL     1      37.160 -29.140  20.232  1.00  0.00     0.309 C
HETATM   41  C25 UNL     1      35.206 -29.228  21.650  1.00  0.00     0.272 C
HETATM   42  C26 UNL     1      35.151 -28.486  22.968  1.00  0.00     0.037 C
ENDBRANCH  35  36
ENDBRANCH  34  35
ENDBRANCH   6  34
BRANCH   7  43
HETATM   43  O4  UNL     1      33.247 -23.193  22.359  1.00  0.00    -0.358 OA
ATOM     44  H4  UNL     1      32.651 -22.511  22.072  1.00  0.00     0.217 HD
ENDBRANCH   7  43
TORSDOF 12
ENDMDL