MODEL 2
REMARK VINA RESULT: -8.467836497      0.968      1.604
REMARK  16 active torsions:
REMARK  status: ('A' for Active; 'I' for Inactive)
REMARK    1  A    between atoms: C2_2  and  C3_3
REMARK    2  A    between atoms: C3_3  and  C4_4
REMARK    3  A    between atoms: C4_4  and  C5_5
REMARK    4  A    between atoms: C5_5  and  O1_6
REMARK    5  A    between atoms: O1_6  and  C6_7
REMARK    6  A    between atoms: C6_7  and  O3_9
REMARK    7  A    between atoms: O3_9  and  C7_10
REMARK    8  A    between atoms: C7_10  and  C8_11
REMARK    9  A    between atoms: C10_13  and  O4_14
REMARK   10  A    between atoms: N1_18  and  O5_20
REMARK   11  A    between atoms: O5_20  and  C13_21
REMARK   12  A    between atoms: C13_21  and  C14_22
REMARK   13  A    between atoms: C14_22  and  O6_23
REMARK   14  A    between atoms: C14_22  and  N2_25
REMARK   15  A    between atoms: N2_25  and  C15_26
REMARK   16  A    between atoms: C26_39  and  O7_40
ROOT
HETATM    1  C8  UNL     1      37.400 -22.286  24.133  1.00  0.00     0.028 C
HETATM    2  C9  UNL     1      36.303 -21.258  24.213  1.00  0.00     0.056 C
HETATM    3  C10 UNL     1      36.398 -20.431  25.432  1.00  0.00     0.131 C
HETATM    4  C11 UNL     1      37.631 -20.153  26.134  1.00  0.00     0.091 C
HETATM    5  C12 UNL     1      38.567 -19.156  25.588  1.00  0.00     0.041 C
HETATM    6  N1  UNL     1      38.967 -18.237  26.454  1.00  0.00    -0.270 N
ATOM      7  H1  UNL     1      38.591 -18.304  27.400  1.00  0.00     0.194 HD
HETATM    8  C21 UNL     1      39.089 -19.026  24.243  1.00  0.00    -0.034 C
HETATM    9  C22 UNL     1      38.281 -18.257  23.322  1.00  0.00     0.005 C
HETATM   10  C23 UNL     1      36.862 -18.149  23.154  1.00  0.00    -0.019 C
HETATM   11  C24 UNL     1      35.792 -19.075  23.027  1.00  0.00     0.039 C
HETATM   12  C25 UNL     1      35.099 -18.651  21.684  1.00  0.00     0.017 C
HETATM   13  C26 UNL     1      35.846 -20.563  22.971  1.00  0.00     0.071 C
HETATM   14  C27 UNL     1      36.282 -21.161  21.695  1.00  0.00     0.040 C
HETATM   15  C28 UNL     1      37.241 -22.321  21.728  1.00  0.00     0.012 C
HETATM   16  C29 UNL     1      38.230 -22.188  22.904  1.00  0.00    -0.037 C
HETATM   17  C30 UNL     1      39.163 -23.367  22.744  1.00  0.00     0.015 C
HETATM   18  C31 UNL     1      39.010 -20.956  22.630  1.00  0.00     0.014 C
HETATM   19  C32 UNL     1      39.762 -20.262  23.663  1.00  0.00     0.041 C
ENDROOT
BRANCH   6  20
HETATM   20  O5  UNL     1      39.770 -17.281  26.224  1.00  0.00    -0.271 OA
BRANCH  20  21
HETATM   21  C13 UNL     1      40.051 -16.047  25.776  1.00  0.00     0.301 C
BRANCH  21  22
HETATM   22  C14 UNL     1      38.721 -15.273  25.658  1.00  0.00     0.216 C
BRANCH  22  23
HETATM   23  O6  UNL     1      38.523 -14.799  24.434  1.00  0.00    -0.337 OA
ATOM     24  H6  UNL     1      37.628 -14.511  24.301  1.00  0.00     0.220 HD
ENDBRANCH  22  23
BRANCH  22  25
HETATM   25  N2  UNL     1      37.900 -15.092  26.662  1.00  0.00    -0.380 NA
BRANCH  25  26
HETATM   26  C15 UNL     1      36.886 -14.995  27.641  1.00  0.00     0.148 A
HETATM   27  C16 UNL     1      36.436 -15.873  28.507  1.00  0.00     0.051 A
HETATM   28  C17 UNL     1      35.298 -15.582  29.382  1.00  0.00     0.046 A
HETATM   29  C18 UNL     1      34.747 -14.375  29.252  1.00  0.00     0.119 A
HETATM   30  F1  UNL     1      33.661 -14.044  30.026  1.00  0.00    -0.206 F
HETATM   31  C19 UNL     1      35.189 -13.395  28.354  1.00  0.00     0.088 A
HETATM   32  C20 UNL     1      36.226 -13.711  27.582  1.00  0.00     0.159 A
HETATM   33  F2  UNL     1      36.733 -12.818  26.667  1.00  0.00    -0.202 F
ENDBRANCH  25  26
ENDBRANCH  22  25
ENDBRANCH  21  22
ENDBRANCH  20  21
ENDBRANCH   6  20
BRANCH   3  34
HETATM   34  O4  UNL     1      35.532 -20.957  26.452  1.00  0.00    -0.395 OA
ATOM     35  H4  UNL     1      34.660 -21.093  26.098  1.00  0.00     0.210 HD
ENDBRANCH   3  34
BRANCH   1  36
HETATM   36  C7  UNL     1      36.778 -23.700  24.166  1.00  0.00     0.187 C
BRANCH  36  37
HETATM   37  O3  UNL     1      35.462 -23.723  24.650  1.00  0.00    -0.298 OA
BRANCH  37  38
HETATM   38  C6  UNL     1      34.519 -24.372  23.931  1.00  0.00     0.406 C
HETATM   39  O2  UNL     1      33.907 -23.731  23.019  1.00  0.00    -0.230 OA
BRANCH  38  40
HETATM   40  O1  UNL     1      34.146 -25.697  24.100  1.00  0.00    -0.298 OA
BRANCH  40  41
HETATM   41  C5  UNL     1      34.744 -26.762  23.323  1.00  0.00     0.181 C
BRANCH  41  42
HETATM   42  C4  UNL     1      35.718 -27.420  24.243  1.00  0.00     0.027 C
BRANCH  42  43
HETATM   43  C3  UNL     1      35.227 -28.656  24.919  1.00  0.00     0.002 C
BRANCH  43  44
HETATM   44  C2  UNL     1      34.340 -29.539  24.133  1.00  0.00    -0.004 C
HETATM   45  C1  UNL     1      34.020 -30.798  24.945  1.00  0.00     0.005 C
ENDBRANCH  43  44
ENDBRANCH  42  43
ENDBRANCH  41  42
ENDBRANCH  40  41
ENDBRANCH  38  40
ENDBRANCH  37  38
ENDBRANCH  36  37
ENDBRANCH   1  36
BRANCH  13  46
HETATM   46  O7  UNL     1      34.418 -20.881  22.955  1.00  0.00    -0.389 OA
ATOM     47  H7  UNL     1      34.025 -20.027  23.100  1.00  0.00     0.210 HD
ENDBRANCH  13  46
TORSDOF 16
ENDMDL