MODEL 5
REMARK VINA RESULT: -6.846902157      3.944      7.897
REMARK  13 active torsions:
REMARK  status: ('A' for Active; 'I' for Inactive)
REMARK    1  A    between atoms: C6_6  and  O1_7
REMARK    2  A    between atoms: O1_7  and  C7_8
REMARK    3  A    between atoms: C7_8  and  C8_9
REMARK    4  A    between atoms: C8_9  and  C9_10
REMARK    5  A    between atoms: C9_10  and  N1_11
REMARK    6  A    between atoms: N1_11  and  C10_13
REMARK    7  A    between atoms: C12_18  and  N4_19
REMARK    8  A    between atoms: C13_22  and  N5_23
REMARK    9  A    between atoms: N5_23  and  N6_24
REMARK   10  A    between atoms: C14_26  and  C15_27
REMARK   11  A    between atoms: C18_31  and  N7_32
REMARK   12  A    between atoms: N7_32  and  N8_34
REMARK   13  A    between atoms: N8_34  and  N9_35
ROOT
HETATM    1  C10 UNL     1      37.316 -17.458  28.458  1.00  0.00     0.685 A
HETATM    2  N2  UNL     1      38.277 -17.631  29.371  1.00  0.00    -0.176 N
ATOM      3  H2  UNL     1      38.469 -16.885  30.039  1.00  0.00     0.185 HD
HETATM    4  C11 UNL     1      39.005 -18.780  29.429  1.00  0.00     0.170 A
HETATM    5  N3  UNL     1      40.002 -18.870  30.435  1.00  0.00    -0.079 NA
HETATM    6  C12 UNL     1      38.758 -19.787  28.540  1.00  0.00     0.204 A
HETATM    7  C13 UNL     1      37.748 -19.598  27.585  1.00  0.00     0.254 A
HETATM    8  N10 UNL     1      37.062 -18.446  27.576  1.00  0.00    -0.160 N
ATOM      9  H10 UNL     1      36.327 -18.312  26.881  1.00  0.00     0.187 HD
ENDROOT
BRANCH   7  10
HETATM   10  N5  UNL     1      37.515 -20.459  26.786  1.00  0.00    -0.304 NA
BRANCH  10  11
HETATM   11  N6  UNL     1      37.266 -21.382  25.930  1.00  0.00    -0.244 N
HETATM   12  C14 UNL     1      36.124 -21.954  25.681  1.00  0.00     0.134 C
ATOM     13  H6  UNL     1      38.060 -21.706  25.377  1.00  0.00     0.201 HD
BRANCH  12  14
HETATM   14  C15 UNL     1      35.925 -22.992  24.695  1.00  0.00     0.005 A
HETATM   15  C16 UNL     1      36.504 -24.257  24.868  1.00  0.00     0.036 A
HETATM   16  C17 UNL     1      36.338 -25.266  23.947  1.00  0.00     0.041 A
HETATM   17 BR1  UNL     1      37.188 -26.941  24.311  1.00  0.00    -0.049 Br
HETATM   18  C18 UNL     1      35.587 -25.049  22.813  1.00  0.00     0.081 A
HETATM   19  C19 UNL     1      35.015 -23.806  22.637  1.00  0.00     0.058 A
HETATM   20  C20 UNL     1      35.179 -22.779  23.568  1.00  0.00     0.048 A
HETATM   21 CL1  UNL     1      34.423 -21.200  23.292  1.00  0.00    -0.083 Cl
BRANCH  18  22
HETATM   22  N7  UNL     1      35.454 -26.125  21.897  1.00  0.00    -0.215 N
ATOM     23  H7  UNL     1      35.993 -26.127  21.031  1.00  0.00     0.204 HD
BRANCH  22  24
HETATM   24  N8  UNL     1      34.688 -27.053  22.148  1.00  0.00    -0.243 NA
BRANCH  24  25
HETATM   25  N9  UNL     1      33.995 -28.037  22.496  1.00  0.00    -0.260 N
ATOM     26  H92 UNL     1      34.473 -28.480  21.711  1.00  0.00     0.193 HD
ATOM     27  H91 UNL     1      33.391 -28.775  22.857  1.00  0.00     0.193 HD
ENDBRANCH  24  25
ENDBRANCH  22  24
ENDBRANCH  18  22
ENDBRANCH  12  14
ENDBRANCH  10  11
ENDBRANCH   7  10
BRANCH   6  28
HETATM   28  N4  UNL     1      39.498 -20.999  28.570  1.00  0.00    -0.107 N
HETATM   29  O2  UNL     1      39.198 -21.950  29.313  1.00  0.00    -0.531 OA
HETATM   30  O3  UNL     1      40.583 -21.115  27.738  1.00  0.00    -0.531 OA
ENDBRANCH   6  28
BRANCH   1  31
HETATM   31  N1  UNL     1      36.611 -16.419  28.358  1.00  0.00    -0.205 N
ATOM     32  H1  UNL     1      35.631 -16.602  28.575  1.00  0.00     0.183 HD
BRANCH  31  33
HETATM   33  C9  UNL     1      36.831 -15.088  28.029  1.00  0.00     0.081 C
BRANCH  33  34
HETATM   34  C8  UNL     1      38.034 -14.782  27.165  1.00  0.00     0.072 C
BRANCH  34  35
HETATM   35  C7  UNL     1      37.805 -15.147  25.713  1.00  0.00     0.181 C
BRANCH  35  36
HETATM   36  O1  UNL     1      38.151 -16.495  25.513  1.00  0.00    -0.350 OA
BRANCH  36  37
HETATM   37  C6  UNL     1      38.714 -16.987  24.347  1.00  0.00     0.080 A
HETATM   38  C4  UNL     1      37.991 -17.890  23.553  1.00  0.00    -0.028 A
HETATM   39  C3  UNL     1      38.501 -18.406  22.396  1.00  0.00     0.016 A
HETATM   40  C5  UNL     1      36.634 -18.282  23.998  1.00  0.00     0.051 C
HETATM   41  C2  UNL     1      39.758 -18.062  21.947  1.00  0.00    -0.061 A
HETATM   42  C1  UNL     1      40.316 -18.629  20.676  1.00  0.00     0.048 C
HETATM   43  C23 UNL     1      40.485 -17.177  22.709  1.00  0.00     0.016 A
HETATM   44  C21 UNL     1      39.969 -16.647  23.895  1.00  0.00    -0.028 A
HETATM   45  C22 UNL     1      40.796 -15.699  24.671  1.00  0.00     0.051 C
ENDBRANCH  36  37
ENDBRANCH  35  36
ENDBRANCH  34  35
ENDBRANCH  33  34
ENDBRANCH  31  33
ENDBRANCH   1  31
TORSDOF 13
ENDMDL