MODEL 4
REMARK VINA RESULT: -7.573884663      3.065      5.166
REMARK  10 active torsions:
REMARK  status: ('A' for Active; 'I' for Inactive)
REMARK    1  A    between atoms: C2_2  and  C4_4
REMARK    2  A    between atoms: C4_4  and  C9_13
REMARK    3  A    between atoms: N1_5  and  O1_7
REMARK    4  A    between atoms: O1_7  and  C5_8
REMARK    5  A    between atoms: C5_8  and  C6_9
REMARK    6  A    between atoms: C13_20  and  O3_21
REMARK    7  A    between atoms: O3_21  and  C14_22
REMARK    8  A    between atoms: C17_26  and  C18_27
REMARK    9  A    between atoms: C20_29  and  O4_30
REMARK   10  A    between atoms: C24_35  and  O5_36
ROOT
HETATM    1  C9  UNL     1      38.003 -17.539  24.889  1.00  0.00    -0.005 A
HETATM    2  C10 UNL     1      36.983 -18.131  24.186  1.00  0.00     0.035 A
HETATM    3  C11 UNL     1      36.691 -19.482  24.229  1.00  0.00     0.039 A
HETATM    4 BR1  UNL     1      35.264 -20.291  23.258  1.00  0.00    -0.049 Br
HETATM    5  C12 UNL     1      37.497 -20.284  25.047  1.00  0.00     0.066 A
HETATM    6  N2  UNL     1      37.284 -21.607  25.077  1.00  0.00    -0.334 N
ATOM      7  H2  UNL     1      36.507 -22.005  24.548  1.00  0.00     0.168 HD
HETATM    8  C13 UNL     1      38.072 -22.404  25.787  1.00  0.00     0.158 A
HETATM    9  C17 UNL     1      39.168 -21.957  26.558  1.00  0.00     0.079 A
HETATM   10  C25 UNL     1      39.383 -20.584  26.534  1.00  0.00     0.199 A
HETATM   11  O6  UNL     1      40.321 -20.107  27.182  1.00  0.00    -0.286 OA
HETATM   12  C26 UNL     1      38.536 -19.757  25.773  1.00  0.00     0.044 A
HETATM   13  C27 UNL     1      38.789 -18.372  25.697  1.00  0.00     0.031 A
ENDROOT
BRANCH   1  14
HETATM   14  C4  UNL     1      38.431 -16.173  24.720  1.00  0.00     0.070 C
HETATM   15  N1  UNL     1      38.019 -15.151  25.345  1.00  0.00    -0.266 N
ATOM     16  H1  UNL     1      38.542 -14.293  25.168  1.00  0.00     0.194 HD
BRANCH  14  17
HETATM   17  C2  UNL     1      39.585 -15.925  23.822  1.00  0.00    -0.042 C
HETATM   18  C1  UNL     1      40.752 -15.719  24.298  1.00  0.00     0.021 C
HETATM   19  C3  UNL     1      39.320 -15.970  22.352  1.00  0.00     0.050 C
ENDBRANCH  14  17
BRANCH  15  20
HETATM   20  O1  UNL     1      36.991 -15.032  26.212  1.00  0.00    -0.277 OA
BRANCH  20  21
HETATM   21  C5  UNL     1      37.264 -14.221  27.426  1.00  0.00     0.233 C
BRANCH  21  22
HETATM   22  C6  UNL     1      37.410 -15.257  28.458  1.00  0.00     0.149 C
HETATM   23  C7  UNL     1      36.382 -16.253  28.841  1.00  0.00     0.060 C
HETATM   24  C8  UNL     1      37.676 -16.738  29.609  1.00  0.00     0.171 C
HETATM   25  O2  UNL     1      38.340 -16.272  28.403  1.00  0.00    -0.384 OA
ENDBRANCH  21  22
ENDBRANCH  20  21
ENDBRANCH  15  20
ENDBRANCH   1  14
BRANCH   9  26
HETATM   26  C18 UNL     1      39.973 -22.916  27.277  1.00  0.00     0.018 A
HETATM   27  C19 UNL     1      40.697 -23.865  26.518  1.00  0.00     0.054 A
HETATM   28  C20 UNL     1      41.422 -24.865  27.096  1.00  0.00     0.093 A
HETATM   29  C22 UNL     1      41.441 -24.938  28.490  1.00  0.00     0.082 A
HETATM   30  N3  UNL     1      42.228 -25.996  29.072  1.00  0.00    -0.099 NA
HETATM   31  C23 UNL     1      40.763 -24.053  29.248  1.00  0.00     0.066 A
HETATM   32  C24 UNL     1      40.042 -23.059  28.638  1.00  0.00     0.079 A
BRANCH  28  33
HETATM   33  O4  UNL     1      42.148 -25.821  26.359  1.00  0.00    -0.354 OA
HETATM   34  C21 UNL     1      41.461 -26.757  25.553  1.00  0.00     0.210 C
ENDBRANCH  28  33
BRANCH  32  35
HETATM   35  O5  UNL     1      39.346 -22.144  29.414  1.00  0.00    -0.360 OA
ATOM     36  H5  UNL     1      39.623 -21.237  29.376  1.00  0.00     0.217 HD
ENDBRANCH  32  35
ENDBRANCH   9  26
BRANCH   8  37
HETATM   37  O3  UNL     1      37.870 -23.802  25.822  1.00  0.00    -0.328 OA
BRANCH  37  38
HETATM   38  C14 UNL     1      37.284 -24.426  24.648  1.00  0.00     0.150 A
HETATM   39  C15 UNL     1      37.042 -25.931  24.912  1.00  0.00     0.057 A
HETATM   40  C16 UNL     1      35.916 -24.917  24.693  1.00  0.00     0.114 A
HETATM   41 CL1  UNL     1      34.944 -25.156  23.197  1.00  0.00    -0.122 Cl
ENDBRANCH  37  38
ENDBRANCH   8  37
TORSDOF 10
ENDMDL