MODEL 1
REMARK VINA RESULT: -7.920327501      0.000      0.000
REMARK  9 active torsions:
REMARK  status: ('A' for Active; 'I' for Inactive)
REMARK    1  A    between atoms: C2_2  and  C3_3
REMARK    2  A    between atoms: C8_8  and  O1_9
REMARK    3  A    between atoms: C12_18  and  S2_19
REMARK    4  A    between atoms: S2_19  and  C13_20
REMARK    5  A    between atoms: C20_30  and  C21_31
REMARK    6  A    between atoms: C21_31  and  N3_32
REMARK    7  A    between atoms: N3_32  and  C22_35
REMARK    8  A    between atoms: C22_35  and  C23_36
REMARK    9  A    between atoms: C23_36  and  O3_37
ROOT
HETATM    1  C3  UNL     1      42.621 -21.594  28.442  1.00  0.00     0.137 C
HETATM    2  C4  UNL     1      42.168 -21.913  27.049  1.00  0.00     0.066 C
HETATM    3  C5  UNL     1      41.560 -20.770  26.334  1.00  0.00     0.047 C
HETATM    4  C6  UNL     1      40.756 -19.949  27.257  1.00  0.00    -0.010 A
HETATM    5  C7  UNL     1      40.704 -20.122  28.627  1.00  0.00     0.076 A
HETATM    6  C8  UNL     1      39.975 -19.339  29.449  1.00  0.00     0.121 A
HETATM    7  C9  UNL     1      39.195 -18.266  28.950  1.00  0.00     0.090 A
HETATM    8  N1  UNL     1      38.447 -17.441  29.649  1.00  0.00    -0.314 N
ATOM      9  H1  UNL     1      38.381 -17.532  30.662  1.00  0.00     0.170 HD
HETATM   10  C10 UNL     1      37.777 -16.483  29.008  1.00  0.00     0.289 A
HETATM   11  O2  UNL     1      37.003 -15.596  29.533  1.00  0.00    -0.260 OA
HETATM   12  S1  UNL     1      38.197 -16.734  27.382  1.00  0.00    -0.025 SA
HETATM   13  C11 UNL     1      39.239 -18.087  27.596  1.00  0.00     0.057 A
HETATM   14  C12 UNL     1      39.990 -18.891  26.748  1.00  0.00     0.034 A
HETATM   15  N2  UNL     1      41.440 -21.211  29.236  1.00  0.00    -0.346 N
HETATM   16  C19 UNL     1      41.153 -21.888  30.402  1.00  0.00     0.135 C
HETATM   17  C20 UNL     1      41.288 -23.421  30.163  1.00  0.00     0.058 C
HETATM   18  C25 UNL     1      42.419 -23.740  29.263  1.00  0.00     0.128 C
HETATM   19  C26 UNL     1      43.297 -24.833  29.894  1.00  0.00     0.040 C
HETATM   20  O4  UNL     1      43.276 -22.671  29.038  1.00  0.00    -0.355 OA
ENDROOT
BRANCH  14  21
HETATM   21  S2  UNL     1      39.988 -18.591  25.018  1.00  0.00    -0.087 SA
BRANCH  21  22
HETATM   22  C13 UNL     1      38.453 -18.869  24.208  1.00  0.00     0.023 A
HETATM   23  C14 UNL     1      37.606 -19.851  24.668  1.00  0.00     0.023 A
HETATM   24  C15 UNL     1      36.396 -20.061  24.064  1.00  0.00     0.044 A
HETATM   25  C16 UNL     1      36.022 -19.271  22.977  1.00  0.00     0.117 A
HETATM   26  F1  UNL     1      34.817 -19.493  22.392  1.00  0.00    -0.206 F
HETATM   27  C17 UNL     1      36.873 -18.290  22.519  1.00  0.00     0.062 A
HETATM   28  C18 UNL     1      38.091 -18.083  23.131  1.00  0.00     0.031 A
HETATM   29 BR1  UNL     1      39.234 -16.712  22.463  1.00  0.00    -0.050 Br
ENDBRANCH  21  22
ENDBRANCH  14  21
BRANCH   6  30
HETATM   30  O1  UNL     1      40.001 -19.602  30.807  1.00  0.00    -0.356 OA
ATOM     31  H1  UNL     1      40.538 -19.052  31.366  1.00  0.00     0.218 HD
ENDBRANCH   6  30
BRANCH   1  32
HETATM   32  C2  UNL     1      43.623 -20.468  28.409  1.00  0.00     0.057 C
HETATM   33  C1  UNL     1      44.563 -20.515  29.596  1.00  0.00     0.010 C
ENDBRANCH   1  32
BRANCH  17  34
HETATM   34  C21 UNL     1      40.027 -24.010  29.627  1.00  0.00     0.241 C
BRANCH  34  35
HETATM   35  N3  UNL     1      40.209 -24.287  28.234  1.00  0.00    -0.073 N
ATOM     36  H32 UNL     1      39.912 -23.502  27.653  1.00  0.00     0.277 HD
ATOM     37  H31 UNL     1      41.197 -24.303  27.981  1.00  0.00     0.277 HD
BRANCH  35  38
HETATM   38  C22 UNL     1      39.551 -25.496  27.861  1.00  0.00     0.258 C
BRANCH  38  39
HETATM   39  C23 UNL     1      40.493 -26.637  27.590  1.00  0.00     0.194 C
BRANCH  39  40
HETATM   40  O3  UNL     1      40.368 -27.609  28.574  1.00  0.00    -0.394 OA
HETATM   41  C24 UNL     1      41.578 -28.000  29.125  1.00  0.00     0.201 C
ENDBRANCH  39  40
ENDBRANCH  38  39
ENDBRANCH  35  38
ENDBRANCH  34  35
ENDBRANCH  17  34
TORSDOF 9
ENDMDL