MODEL 3
REMARK VINA RESULT: -8.517437010      0.382      1.071
REMARK  13 active torsions:
REMARK  status: ('A' for Active; 'I' for Inactive)
REMARK    1  A    between atoms: C3_3  and  N1_6
REMARK    2  A    between atoms: N1_6  and  C6_9
REMARK    3  A    between atoms: C6_9  and  C7_10
REMARK    4  A    between atoms: C8_13  and  C9_14
REMARK    5  A    between atoms: N3_17  and  C12_18
REMARK    6  A    between atoms: N5_29  and  C19_30
REMARK    7  A    between atoms: N6_33  and  C22_34
REMARK    8  A    between atoms: C22_34  and  C23_35
REMARK    9  A    between atoms: C22_34  and  C27_39
REMARK   10  A    between atoms: C23_35  and  C24_36
REMARK   11  A    between atoms: C27_39  and  O1_40
REMARK   12  A    between atoms: C27_39  and  N7_42
REMARK   13  A    between atoms: N7_42  and  O2_44
ROOT
HETATM    1  C1  UNL     1      38.817 -27.195  23.167  1.00  0.00     0.014 C
HETATM    2  C2  UNL     1      38.070 -26.702  23.971  1.00  0.00    -0.079 C
HETATM    3  C3  UNL     1      37.151 -26.088  24.930  1.00  0.00     0.180 C
HETATM    4  C4  UNL     1      36.272 -25.048  24.295  1.00  0.00     0.060 C
HETATM    5  C5  UNL     1      36.219 -27.181  25.474  1.00  0.00     0.060 C
ENDROOT
BRANCH   3   6
HETATM    6  N1  UNL     1      37.884 -25.571  26.063  1.00  0.00    -0.049 N
ATOM      7  H12 UNL     1      37.289 -25.029  26.689  1.00  0.00     0.279 HD
ATOM      8  H11 UNL     1      38.152 -26.308  26.716  1.00  0.00     0.279 HD
BRANCH   6   9
HETATM    9  C6  UNL     1      39.031 -24.807  25.600  1.00  0.00     0.311 C
BRANCH   9  10
HETATM   10  C7  UNL     1      39.167 -23.541  26.360  1.00  0.00     0.123 A
HETATM   11  N2  UNL     1      38.746 -22.344  26.008  1.00  0.00    -0.332 N
HETATM   12  C8  UNL     1      39.061 -21.432  26.987  1.00  0.00     0.104 A
ATOM     13  H2  UNL     1      38.257 -22.127  25.138  1.00  0.00     0.168 HD
HETATM   14  N5  UNL     1      39.690 -22.106  27.953  1.00  0.00    -0.274 N
HETATM   15  N8  UNL     1      39.747 -23.395  27.555  1.00  0.00    -0.284 N
ATOM     16  H8  UNL     1      40.173 -24.151  28.091  1.00  0.00     0.188 HD
BRANCH  12  17
HETATM   17  C9  UNL     1      38.732 -20.014  26.920  1.00  0.00     0.058 C
HETATM   18  C10 UNL     1      37.359 -19.769  26.273  1.00  0.00     0.032 C
HETATM   19  C11 UNL     1      37.208 -18.312  26.018  1.00  0.00     0.124 C
HETATM   20  N3  UNL     1      38.055 -17.433  26.750  1.00  0.00    -0.378 N
HETATM   21  C17 UNL     1      39.450 -17.704  27.103  1.00  0.00     0.124 C
HETATM   22  C18 UNL     1      39.771 -19.070  26.475  1.00  0.00     0.032 C
BRANCH  20  23
HETATM   23  C12 UNL     1      37.557 -16.179  27.185  1.00  0.00     0.077 A
HETATM   24  C13 UNL     1      37.683 -15.042  26.393  1.00  0.00     0.077 A
HETATM   25 CL1  UNL     1      38.468 -15.188  24.842  1.00  0.00    -0.080 Cl
HETATM   26  C14 UNL     1      37.194 -13.834  26.838  1.00  0.00     0.113 A
HETATM   27  N4  UNL     1      36.596 -13.752  28.036  1.00  0.00    -0.372 N
HETATM   28  C15 UNL     1      36.459 -14.821  28.816  1.00  0.00     0.113 A
ATOM     29  H4  UNL     1      36.238 -12.851  28.355  1.00  0.00     0.164 HD
HETATM   30  C16 UNL     1      36.940 -16.061  28.402  1.00  0.00     0.077 A
HETATM   31 CL2  UNL     1      36.768 -17.475  29.412  1.00  0.00    -0.080 Cl
ENDBRANCH  20  23
ENDBRANCH  12  17
BRANCH  14  32
HETATM   32  C19 UNL     1      40.205 -21.636  29.190  1.00  0.00     0.113 C
HETATM   33  C20 UNL     1      41.452 -20.827  29.137  1.00  0.00     0.057 C
HETATM   34  C21 UNL     1      42.693 -21.599  28.735  1.00  0.00     0.275 C
HETATM   35  N6  UNL     1      42.922 -22.680  29.631  1.00  0.00     0.101 N
HETATM   36  C28 UNL     1      41.914 -22.799  30.637  1.00  0.00     0.275 C
HETATM   37  C29 UNL     1      40.519 -22.868  30.065  1.00  0.00     0.057 C
BRANCH  35  38
HETATM   38  C22 UNL     1      44.235 -22.742  30.225  1.00  0.00     0.298 C
BRANCH  38  39
HETATM   39  C23 UNL     1      45.309 -22.221  29.346  1.00  0.00     0.048 C
BRANCH  39  40
HETATM   40  C24 UNL     1      46.182 -21.150  29.861  1.00  0.00    -0.020 C
HETATM   41  C25 UNL     1      45.463 -19.992  30.503  1.00  0.00     0.009 C
HETATM   42  C26 UNL     1      47.355 -21.558  30.674  1.00  0.00     0.009 C
ENDBRANCH  39  40
ENDBRANCH  38  39
BRANCH  38  43
HETATM   43  C27 UNL     1      44.505 -24.074  30.815  1.00  0.00     0.169 C
BRANCH  43  44
HETATM   44  O1  UNL     1      44.289 -25.264  30.086  1.00  0.00    -0.346 OA
ATOM     45  H1  UNL     1      43.988 -26.059  30.509  1.00  0.00     0.219 HD
ENDBRANCH  43  44
BRANCH  43  46
HETATM   46  N7  UNL     1      44.953 -24.239  32.017  1.00  0.00    -0.249 N
ATOM     47  H7  UNL     1      44.490 -23.728  32.769  1.00  0.00     0.196 HD
BRANCH  46  48
HETATM   48  O2  UNL     1      45.987 -25.039  32.347  1.00  0.00    -0.288 OA
ATOM     49  H2  UNL     1      46.750 -24.760  32.838  1.00  0.00     0.244 HD
ENDBRANCH  46  48
ENDBRANCH  43  46
ENDBRANCH  38  43
ENDBRANCH  35  38
ENDBRANCH  14  32
ENDBRANCH   9  10
ENDBRANCH   6   9
ENDBRANCH   3   6
TORSDOF 13
ENDMDL