MODEL 4
REMARK VINA RESULT: -7.202103153      5.680      6.959
REMARK  13 active torsions:
REMARK  status: ('A' for Active; 'I' for Inactive)
REMARK    1  A    between atoms: C2_2  and  C3_3
REMARK    2  A    between atoms: C3_3  and  C4_4
REMARK    3  A    between atoms: C4_4  and  C5_5
REMARK    4  A    between atoms: C5_5  and  C6_6
REMARK    5  A    between atoms: C6_6  and  C7_7
REMARK    6  A    between atoms: C7_7  and  C8_8
REMARK    7  A    between atoms: C8_8  and  O2_10
REMARK    8  A    between atoms: O2_10  and  C9_11
REMARK    9  A    between atoms: C11_13  and  C12_14
REMARK   10  A    between atoms: C12_14  and  O3_15
REMARK   11  A    between atoms: C15_19  and  O4_20
REMARK   12  A    between atoms: C20_28  and  C21_29
REMARK   13  A    between atoms: C27_39  and  O7_41
ROOT
HETATM    1  C9  UNL     1      41.642 -21.457  28.453  1.00  0.00     0.180 C
HETATM    2  C10 UNL     1      43.072 -21.097  28.510  1.00  0.00     0.066 C
HETATM    3  C11 UNL     1      43.725 -20.949  27.188  1.00  0.00    -0.052 C
HETATM    4  C13 UNL     1      45.023 -20.658  27.173  1.00  0.00    -0.019 C
HETATM    5  C14 UNL     1      45.724 -20.506  28.497  1.00  0.00     0.060 C
HETATM    6  C15 UNL     1      45.396 -21.848  29.174  1.00  0.00     0.137 C
HETATM    7  C16 UNL     1      43.918 -21.966  29.398  1.00  0.00     0.042 C
HETATM    8  C17 UNL     1      43.684 -21.568  30.862  1.00  0.00     0.026 C
HETATM    9  C18 UNL     1      43.539 -23.387  29.288  1.00  0.00     0.079 A
HETATM   10  O5  UNL     1      44.473 -24.295  29.409  1.00  0.00    -0.305 OA
HETATM   11  C19 UNL     1      44.228 -25.609  29.320  1.00  0.00     0.132 A
HETATM   12  S1  UNL     1      45.186 -27.017  29.428  1.00  0.00    -0.064 SA
HETATM   13  C20 UNL     1      43.973 -28.191  29.183  1.00  0.00     0.046 A
HETATM   14  C22 UNL     1      42.845 -27.443  29.024  1.00  0.00    -0.027 A
HETATM   15  C23 UNL     1      41.507 -28.123  28.784  1.00  0.00     0.050 C
HETATM   16  C24 UNL     1      42.971 -26.100  29.094  1.00  0.00     0.063 A
HETATM   17  C25 UNL     1      41.971 -25.122  28.965  1.00  0.00     0.197 A
HETATM   18  O6  UNL     1      40.764 -25.399  28.755  1.00  0.00    -0.287 OA
HETATM   19  C26 UNL     1      42.258 -23.774  29.063  1.00  0.00     0.060 A
HETATM   20  C27 UNL     1      41.198 -22.759  28.956  1.00  0.00     0.115 C
HETATM   21  C28 UNL     1      40.462 -22.600  30.283  1.00  0.00     0.054 C
ENDROOT
BRANCH   1  22
HETATM   22  O2  UNL     1      40.923 -20.462  29.217  1.00  0.00    -0.312 OA
BRANCH  22  23
HETATM   23  C8  UNL     1      40.209 -19.457  28.616  1.00  0.00     0.259 C
HETATM   24  O1  UNL     1      40.273 -19.346  27.373  1.00  0.00    -0.265 OA
BRANCH  23  25
HETATM   25  C7  UNL     1      39.378 -18.530  29.476  1.00  0.00     0.111 C
BRANCH  25  26
HETATM   26  C6  UNL     1      38.706 -17.506  28.618  1.00  0.00     0.010 C
BRANCH  26  27
HETATM   27  C5  UNL     1      37.393 -17.075  29.223  1.00  0.00     0.000 C
BRANCH  27  28
HETATM   28  C4  UNL     1      37.286 -15.608  29.266  1.00  0.00     0.000 C
BRANCH  28  29
HETATM   29  C3  UNL     1      36.336 -14.989  28.307  1.00  0.00    -0.000 C
BRANCH  29  30
HETATM   30  C2  UNL     1      35.454 -13.954  28.841  1.00  0.00    -0.005 C
HETATM   31  C1  UNL     1      34.188 -14.338  29.502  1.00  0.00     0.005 C
ENDBRANCH  29  30
ENDBRANCH  28  29
ENDBRANCH  27  28
ENDBRANCH  26  27
ENDBRANCH  25  26
ENDBRANCH  23  25
ENDBRANCH  22  23
ENDBRANCH   1  22
BRANCH  20  32
HETATM   32  O7  UNL     1      40.251 -23.313  28.054  1.00  0.00    -0.382 OA
ATOM     33  H7  UNL     1      39.647 -22.636  27.775  1.00  0.00     0.211 HD
ENDBRANCH  20  32
BRANCH   3  34
HETATM   34  C12 UNL     1      43.053 -21.096  25.871  1.00  0.00     0.198 C
BRANCH  34  35
HETATM   35  O3  UNL     1      42.420 -19.922  25.495  1.00  0.00    -0.397 OA
ATOM     36  H3  UNL     1      43.042 -19.211  25.396  1.00  0.00     0.209 HD
ENDBRANCH  34  35
ENDBRANCH   3  34
BRANCH   6  37
HETATM   37  O4  UNL     1      45.816 -22.818  28.267  1.00  0.00    -0.394 OA
ATOM     38  H4  UNL     1      46.508 -23.289  28.716  1.00  0.00     0.210 HD
ENDBRANCH   6  37
BRANCH  13  39
HETATM   39  C21 UNL     1      44.120 -29.696  29.143  1.00  0.00     0.223 C
HETATM   40 CL1  UNL     1      43.250 -30.437  30.482  1.00  0.00    -0.078 Cl
HETATM   41 CL2  UNL     1      45.861 -30.029  29.385  1.00  0.00    -0.078 Cl
HETATM   42 CL3  UNL     1      43.593 -30.247  27.549  1.00  0.00    -0.078 Cl
ENDBRANCH  13  39
TORSDOF 13
ENDMDL