MODEL 2
REMARK VINA RESULT: -8.662219520      3.141      7.054
REMARK  9 active torsions:
REMARK  status: ('A' for Active; 'I' for Inactive)
REMARK    1  A    between atoms: N1_2  and  C3_4
REMARK    2  A    between atoms: C4_7  and  C5_8
REMARK    3  A    between atoms: N4_16  and  C10_18
REMARK    4  A    between atoms: C10_18  and  C11_19
REMARK    5  A    between atoms: C13_24  and  N6_25
REMARK    6  A    between atoms: C16_28  and  C17_29
REMARK    7  A    between atoms: C17_29  and  C18_30
REMARK    8  A    between atoms: C18_30  and  N7_31
REMARK    9  A    between atoms: C21_34  and  O1_35
ROOT
HETATM    1  C5  UNL     1      37.676 -16.505  26.870  1.00  0.00     0.056 A
HETATM    2  C6  UNL     1      37.046 -16.020  28.036  1.00  0.00     0.051 A
HETATM    3 CL1  UNL     1      36.788 -17.124  29.357  1.00  0.00    -0.083 Cl
HETATM    4  C7  UNL     1      36.648 -14.708  28.116  1.00  0.00     0.042 A
HETATM    5  C8  UNL     1      36.872 -13.867  27.042  1.00  0.00     0.091 A
HETATM    6  N3  UNL     1      37.462 -14.328  25.958  1.00  0.00    -0.352 N
ATOM      7  H3  UNL     1      37.617 -13.687  25.181  1.00  0.00     0.166 HD
HETATM    8  C9  UNL     1      37.891 -15.666  25.821  1.00  0.00     0.115 A
HETATM    9  N4  UNL     1      38.446 -15.959  24.772  1.00  0.00    -0.371 N
ATOM     10  H4  UNL     1      38.455 -15.126  24.184  1.00  0.00     0.161 HD
ENDROOT
BRANCH   9  11
HETATM   11  C10 UNL     1      39.057 -16.960  24.079  1.00  0.00     0.171 C
BRANCH  11  12
HETATM   12  C11 UNL     1      39.211 -16.534  22.615  1.00  0.00     0.045 A
HETATM   13  S1  UNL     1      40.401 -15.499  21.961  1.00  0.00    -0.084 SA
HETATM   14  C12 UNL     1      39.872 -15.504  20.342  1.00  0.00     0.140 A
HETATM   15  N5  UNL     1      38.823 -16.290  20.385  1.00  0.00    -0.345 N
HETATM   16  C13 UNL     1      38.453 -16.838  21.528  1.00  0.00     0.118 A
ATOM     17  H5  UNL     1      38.293 -16.480  19.534  1.00  0.00     0.167 HD
BRANCH  16  18
HETATM   18  N6  UNL     1      37.311 -17.736  21.521  1.00  0.00    -0.366 N
HETATM   19  C14 UNL     1      36.863 -18.339  20.243  1.00  0.00     0.125 C
HETATM   20  C15 UNL     1      37.183 -19.820  20.419  1.00  0.00     0.024 C
HETATM   21  C16 UNL     1      36.329 -20.382  21.496  1.00  0.00    -0.010 C
HETATM   22  C24 UNL     1      35.789 -19.415  22.480  1.00  0.00     0.024 C
HETATM   23  C25 UNL     1      36.580 -18.161  22.666  1.00  0.00     0.125 C
BRANCH  21  24
HETATM   24  C17 UNL     1      36.888 -21.600  22.180  1.00  0.00     0.024 C
BRANCH  24  25
HETATM   25  C18 UNL     1      36.777 -22.831  21.375  1.00  0.00     0.117 C
BRANCH  25  26
HETATM   26  N7  UNL     1      36.239 -23.960  22.094  1.00  0.00    -0.412 N
HETATM   27  C19 UNL     1      35.190 -23.616  22.999  1.00  0.00     0.119 C
HETATM   28  C20 UNL     1      34.902 -24.673  24.016  1.00  0.00     0.051 C
HETATM   29  C21 UNL     1      35.147 -26.064  23.470  1.00  0.00     0.121 C
HETATM   30  C22 UNL     1      34.967 -26.000  21.972  1.00  0.00     0.051 C
HETATM   31  C23 UNL     1      36.081 -25.157  21.362  1.00  0.00     0.119 C
BRANCH  29  32
HETATM   32  O1  UNL     1      34.181 -26.963  23.972  1.00  0.00    -0.395 OA
ATOM     33  H1  UNL     1      33.610 -27.257  23.271  1.00  0.00     0.210 HD
ENDBRANCH  29  32
ENDBRANCH  25  26
ENDBRANCH  24  25
ENDBRANCH  21  24
ENDBRANCH  16  18
ENDBRANCH  11  12
ENDBRANCH   9  11
BRANCH   1  34
HETATM   34  C4  UNL     1      38.069 -17.904  26.838  1.00  0.00     0.050 A
HETATM   35  N2  UNL     1      39.225 -18.396  27.294  1.00  0.00    -0.340 N
HETATM   36  C3  UNL     1      39.448 -19.718  27.246  1.00  0.00     0.131 A
ATOM     37  H2  UNL     1      39.933 -17.770  27.677  1.00  0.00     0.167 HD
HETATM   38  C30 UNL     1      38.511 -20.619  26.731  1.00  0.00     0.090 A
HETATM   39  C27 UNL     1      37.300 -20.134  26.249  1.00  0.00     0.037 A
HETATM   40  N8  UNL     1      38.501 -21.951  26.574  1.00  0.00    -0.359 N
HETATM   41  C26 UNL     1      37.102 -18.776  26.313  1.00  0.00     0.047 A
HETATM   42  C28 UNL     1      36.561 -21.213  25.798  1.00  0.00     0.144 A
HETATM   43  F1  UNL     1      35.332 -21.150  25.257  1.00  0.00    -0.204 F
HETATM   44  C29 UNL     1      37.324 -22.340  26.008  1.00  0.00     0.131 A
ATOM     45  H8  UNL     1      39.261 -22.579  26.839  1.00  0.00     0.165 HD
BRANCH  36  46
HETATM   46  N1  UNL     1      40.668 -20.314  27.721  1.00  0.00    -0.374 N
HETATM   47  C1  UNL     1      40.810 -20.772  29.088  1.00  0.00     0.150 C
HETATM   48  C2  UNL     1      41.808 -20.473  26.841  1.00  0.00     0.150 C
ENDBRANCH  36  46
ENDBRANCH   1  34
TORSDOF 9
ENDMDL