MODEL 1
REMARK VINA RESULT: -8.168503888      0.000      0.000
REMARK  13 active torsions:
REMARK  status: ('A' for Active; 'I' for Inactive)
REMARK    1  A    between atoms: O1_2  and  C2_3
REMARK    2  A    between atoms: C5_7  and  C6_8
REMARK    3  A    between atoms: C8_10  and  O2_11
REMARK    4  A    between atoms: C11_15  and  C12_16
REMARK    5  A    between atoms: C12_16  and  O3_17
REMARK    6  A    between atoms: O3_17  and  C13_18
REMARK    7  A    between atoms: C13_18  and  C14_20
REMARK    8  A    between atoms: C14_20  and  C15_21
REMARK    9  A    between atoms: C15_21  and  O5_22
REMARK   10  A    between atoms: C15_21  and  C16_24
REMARK   11  A    between atoms: C16_24  and  C17_25
REMARK   12  A    between atoms: C23_31  and  O6_32
REMARK   13  A    between atoms: C31_41  and  N1_42
ROOT
HETATM    1  C6  UNL     1      40.812 -19.414  27.506  1.00  0.00     0.017 C
HETATM    2  C7  UNL     1      40.616 -20.598  27.986  1.00  0.00    -0.042 C
HETATM    3  C8  UNL     1      39.365 -21.220  28.459  1.00  0.00     0.148 C
HETATM    4  C9  UNL     1      39.783 -22.686  28.807  1.00  0.00     0.042 C
HETATM    5  C10 UNL     1      41.136 -22.346  29.358  1.00  0.00     0.007 C
HETATM    6  C11 UNL     1      41.928 -23.339  30.055  1.00  0.00     0.024 C
HETATM    7  C20 UNL     1      43.364 -22.946  30.099  1.00  0.00    -0.034 C
HETATM    8  C21 UNL     1      44.368 -23.956  30.490  1.00  0.00     0.012 C
HETATM    9  C22 UNL     1      45.200 -23.545  31.722  1.00  0.00     0.032 C
HETATM   10  C23 UNL     1      45.882 -22.235  31.510  1.00  0.00     0.118 C
HETATM   11  C24 UNL     1      44.815 -21.206  31.213  1.00  0.00     0.032 C
HETATM   12  C25 UNL     1      43.457 -21.818  31.149  1.00  0.00     0.012 C
HETATM   13  C26 UNL     1      43.868 -22.285  28.828  1.00  0.00     0.011 C
HETATM   14  C27 UNL     1      43.041 -21.076  28.434  1.00  0.00     0.015 C
HETATM   15  C28 UNL     1      41.683 -21.645  28.157  1.00  0.00    -0.014 C
HETATM   16  C29 UNL     1      41.706 -22.423  26.893  1.00  0.00     0.020 C
ENDROOT
BRANCH   1  17
HETATM   17  C5  UNL     1      39.824 -18.355  27.300  1.00  0.00    -0.032 A
HETATM   18  C4  UNL     1      39.738 -17.834  25.995  1.00  0.00     0.038 A
HETATM   19  C3  UNL     1      38.844 -16.824  25.720  1.00  0.00     0.070 A
HETATM   20  C2  UNL     1      38.044 -16.344  26.740  1.00  0.00     0.123 A
HETATM   21 CL1  UNL     1      38.732 -16.169  24.086  1.00  0.00    -0.081 Cl
HETATM   22  C31 UNL     1      38.099 -16.826  28.018  1.00  0.00     0.138 A
HETATM   23  C30 UNL     1      39.014 -17.853  28.288  1.00  0.00     0.050 A
BRANCH  20  24
HETATM   24  O1  UNL     1      37.147 -15.328  26.450  1.00  0.00    -0.352 OA
HETATM   25  C1  UNL     1      37.312 -13.986  26.845  1.00  0.00     0.210 C
ENDBRANCH  20  24
BRANCH  22  26
HETATM   26  N1  UNL     1      37.291 -16.351  29.074  1.00  0.00    -0.113 N
HETATM   27  O7  UNL     1      37.732 -15.617  29.975  1.00  0.00    -0.532 OA
HETATM   28  O8  UNL     1      35.970 -16.707  29.114  1.00  0.00    -0.532 OA
ENDBRANCH  22  26
ENDBRANCH   1  17
BRANCH   3  29
HETATM   29  O2  UNL     1      38.368 -21.249  27.484  1.00  0.00    -0.391 OA
ATOM     30  H2  UNL     1      37.497 -21.363  27.846  1.00  0.00     0.210 HD
ENDBRANCH   3  29
BRANCH   6  31
HETATM   31  C12 UNL     1      41.686 -24.785  29.695  1.00  0.00     0.184 C
BRANCH  31  32
HETATM   32  O3  UNL     1      42.250 -25.094  28.425  1.00  0.00    -0.321 OA
BRANCH  32  33
HETATM   33  C13 UNL     1      42.157 -26.413  27.991  1.00  0.00     0.261 C
HETATM   34  O4  UNL     1      42.555 -27.338  28.702  1.00  0.00    -0.265 OA
BRANCH  33  35
HETATM   35  C14 UNL     1      41.543 -26.580  26.625  1.00  0.00     0.142 C
BRANCH  35  36
HETATM   36  C15 UNL     1      40.065 -26.587  26.677  1.00  0.00     0.127 C
BRANCH  36  37
HETATM   37  O5  UNL     1      39.769 -26.882  28.080  1.00  0.00    -0.395 OA
ATOM     38  H5  UNL     1      39.314 -26.104  28.382  1.00  0.00     0.210 HD
ENDBRANCH  36  37
BRANCH  36  39
HETATM   39  C16 UNL     1      39.338 -25.333  26.389  1.00  0.00     0.036 C
BRANCH  39  40
HETATM   40  C17 UNL     1      37.931 -25.368  25.943  1.00  0.00    -0.020 C
HETATM   41  C18 UNL     1      37.823 -26.554  24.950  1.00  0.00     0.009 C
HETATM   42  C19 UNL     1      37.341 -24.156  25.342  1.00  0.00     0.009 C
ENDBRANCH  39  40
ENDBRANCH  36  39
ENDBRANCH  35  36
ENDBRANCH  33  35
ENDBRANCH  32  33
ENDBRANCH  31  32
ENDBRANCH   6  31
BRANCH  10  43
HETATM   43  O6  UNL     1      46.602 -21.949  32.666  1.00  0.00    -0.396 OA
ATOM     44  H6  UNL     1      47.473 -21.681  32.399  1.00  0.00     0.210 HD
ENDBRANCH  10  43
TORSDOF 13
ENDMDL