MODEL 2
REMARK VINA RESULT: -8.429641010      1.667      7.417
REMARK  15 active torsions:
REMARK  status: ('A' for Active; 'I' for Inactive)
REMARK    1  A    between atoms: C2_2  and  C3_3
REMARK    2  A    between atoms: C2_2  and  O1_9
REMARK    3  A    between atoms: C4_4  and  C6_6
REMARK    4  A    between atoms: O1_9  and  C9_10
REMARK    5  A    between atoms: C10_11  and  O2_12
REMARK    6  A    between atoms: O2_12  and  C11_13
REMARK    7  A    between atoms: C11_13  and  C12_15
REMARK    8  A    between atoms: C13_16  and  C15_18
REMARK    9  A    between atoms: C17_22  and  O6_23
REMARK   10  A    between atoms: C20_27  and  O7_28
REMARK   11  A    between atoms: C20_27  and  C21_30
REMARK   12  A    between atoms: C21_30  and  O8_31
REMARK   13  A    between atoms: C23_34  and  O9_35
REMARK   14  A    between atoms: O9_35  and  C24_36
REMARK   15  A    between atoms: C24_36  and  C25_38
ROOT
HETATM    1  C9  UNL     1      59.169  56.947 113.334  1.00  0.00     0.165 C
HETATM    2  C10 UNL     1      58.324  56.551 114.521  1.00  0.00     0.164 C
HETATM    3  C16 UNL     1      59.226  56.077 115.666  1.00  0.00     0.067 C
HETATM    4  C17 UNL     1      60.068  57.273 116.080  1.00  0.00     0.125 C
HETATM    5  C18 UNL     1      60.785  57.879 114.899  1.00  0.00     0.026 C
HETATM    6  C19 UNL     1      61.890  56.954 114.513  1.00  0.00     0.048 C
HETATM    7  C20 UNL     1      62.573  57.291 113.228  1.00  0.00     0.082 C
HETATM    8  C22 UNL     1      61.637  57.742 112.135  1.00  0.00     0.073 C
HETATM    9  C23 UNL     1      60.741  58.815 112.666  1.00  0.00     0.141 C
HETATM   10  C28 UNL     1      59.869  58.225 113.748  1.00  0.00     0.054 C
ENDROOT
BRANCH   1  11
HETATM   11  O1  UNL     1      58.367  57.090 112.220  1.00  0.00    -0.344 OA
BRANCH  11  12
HETATM   12  C2  UNL     1      58.109  56.047 111.367  1.00  0.00     0.060 C
HETATM   13  C1  UNL     1      58.883  54.972 111.422  1.00  0.00     0.051 C
BRANCH  12  14
HETATM   14  C3  UNL     1      57.028  56.036 110.389  1.00  0.00     0.038 C
HETATM   15  C4  UNL     1      55.814  55.682 110.710  1.00  0.00    -0.078 C
HETATM   16  C5  UNL     1      55.432  55.272 112.070  1.00  0.00     0.044 C
BRANCH  15  17
HETATM   17  C6  UNL     1      54.739  55.679 109.672  1.00  0.00     0.006 C
HETATM   18  C7  UNL     1      55.305  55.797 108.278  1.00  0.00     0.014 C
HETATM   19  C8  UNL     1      53.738  56.784 109.915  1.00  0.00     0.014 C
ENDBRANCH  15  17
ENDBRANCH  12  14
ENDBRANCH  11  12
ENDBRANCH   1  11
BRANCH   2  20
HETATM   20  O2  UNL     1      57.724  57.750 115.022  1.00  0.00    -0.310 OA
BRANCH  20  21
HETATM   21  C11 UNL     1      56.309  57.898 115.052  1.00  0.00     0.284 C
HETATM   22  O3  UNL     1      55.798  57.426 116.070  1.00  0.00    -0.260 OA
BRANCH  21  23
HETATM   23  C12 UNL     1      55.708  58.556 113.927  1.00  0.00     0.095 C
HETATM   24  C13 UNL     1      54.503  58.519 113.482  1.00  0.00     0.020 C
HETATM   25  C14 UNL     1      54.263  59.381 112.231  1.00  0.00     0.056 C
BRANCH  24  26
HETATM   26  C15 UNL     1      53.390  57.793 113.996  1.00  0.00     0.205 C
HETATM   27  O4  UNL     1      53.294  56.565 114.114  1.00  0.00    -0.644 OA
HETATM   28  O5  UNL     1      52.265  58.559 114.418  1.00  0.00    -0.644 OA
ENDBRANCH  24  26
ENDBRANCH  21  23
ENDBRANCH  20  21
ENDBRANCH   2  20
BRANCH   9  29
HETATM   29  O9  UNL     1      60.066  59.561 111.722  1.00  0.00    -0.315 OA
BRANCH  29  30
HETATM   30  C24 UNL     1      60.472  60.760 111.210  1.00  0.00     0.262 C
HETATM   31  O10 UNL     1      60.473  61.723 112.021  1.00  0.00    -0.265 OA
BRANCH  30  32
HETATM   32  C25 UNL     1      60.891  60.957 109.797  1.00  0.00     0.077 C
HETATM   33  C26 UNL     1      60.698  62.369 109.338  1.00  0.00     0.020 C
HETATM   34  C27 UNL     1      62.379  60.590 109.749  1.00  0.00     0.020 C
ENDBRANCH  30  32
ENDBRANCH  29  30
ENDBRANCH   9  29
BRANCH   4  35
HETATM   35  O6  UNL     1      61.046  56.793 116.952  1.00  0.00    -0.395 OA
ATOM     36  H6  UNL     1      61.862  56.779 116.466  1.00  0.00     0.210 HD
ENDBRANCH   4  35
BRANCH   7  37
HETATM   37  O7  UNL     1      63.207  56.132 112.768  1.00  0.00    -0.388 OA
ATOM     38  H7  UNL     1      63.150  56.129 111.820  1.00  0.00     0.210 HD
ENDBRANCH   7  37
BRANCH   7  39
HETATM   39  C21 UNL     1      63.679  58.300 113.491  1.00  0.00     0.201 C
BRANCH  39  40
HETATM   40  O8  UNL     1      64.698  57.589 114.159  1.00  0.00    -0.398 OA
ATOM     41  H8  UNL     1      65.382  58.223 114.338  1.00  0.00     0.209 HD
ENDBRANCH  39  40
ENDBRANCH   7  39
TORSDOF 15
ENDMDL