MODEL 3
REMARK VINA RESULT: -7.180025363      1.690      2.122
REMARK  14 active torsions:
REMARK  status: ('A' for Active; 'I' for Inactive)
REMARK    1  A    between atoms: O1_2  and  C2_3
REMARK    2  A    between atoms: C2_3  and  C3_5
REMARK    3  A    between atoms: C3_5  and  C4_6
REMARK    4  A    between atoms: C4_6  and  C6_8
REMARK    5  A    between atoms: C6_8  and  O3_9
REMARK    6  A    between atoms: C10_14  and  O4_15
REMARK    7  A    between atoms: O4_15  and  C11_16
REMARK    8  A    between atoms: C11_16  and  C12_18
REMARK    9  A    between atoms: C12_18  and  C13_19
REMARK   10  A    between atoms: C13_19  and  C14_20
REMARK   11  A    between atoms: C14_20  and  C15_21
REMARK   12  A    between atoms: C19_27  and  O7_28
REMARK   13  A    between atoms: C25_35  and  O8_36
REMARK   14  A    between atoms: O8_36  and  C26_37
ROOT
HETATM    1  C6  UNL     1      59.376  57.154 114.301  1.00  0.00     0.089 C
HETATM    2  C7  UNL     1      58.073  56.498 114.303  1.00  0.00     0.047 C
HETATM    3  C8  UNL     1      56.823  57.199 114.571  1.00  0.00     0.014 C
HETATM    4  C9  UNL     1      56.825  58.413 115.416  1.00  0.00     0.012 C
HETATM    5  C10 UNL     1      55.805  56.235 115.224  1.00  0.00     0.136 C
HETATM    6  C16 UNL     1      56.219  56.139 116.671  1.00  0.00     0.039 C
HETATM    7  C17 UNL     1      55.735  54.896 117.371  1.00  0.00     0.013 C
HETATM    8  C18 UNL     1      55.640  53.699 116.447  1.00  0.00     0.012 C
HETATM    9  C19 UNL     1      56.631  54.503 118.522  1.00  0.00     0.122 C
HETATM   10  C20 UNL     1      58.071  54.463 118.198  1.00  0.00     0.036 C
HETATM   11  C21 UNL     1      58.915  55.515 118.876  1.00  0.00     0.029 C
HETATM   12  C22 UNL     1      60.345  55.378 118.517  1.00  0.00    -0.030 C
HETATM   13  C23 UNL     1      60.975  55.999 117.538  1.00  0.00    -0.028 C
HETATM   14  C24 UNL     1      60.399  56.969 116.579  1.00  0.00     0.062 C
HETATM   15  C25 UNL     1      60.428  56.426 115.148  1.00  0.00     0.170 C
ENDROOT
BRANCH   1  16
HETATM   16  C4  UNL     1      59.988  57.235 112.895  1.00  0.00     0.028 C
HETATM   17  C5  UNL     1      59.112  56.595 111.850  1.00  0.00     0.014 C
BRANCH  16  18
HETATM   18  C3  UNL     1      60.024  58.723 112.539  1.00  0.00     0.118 C
BRANCH  18  19
HETATM   19  C2  UNL     1      61.384  59.252 112.397  1.00  0.00     0.258 C
HETATM   20  O2  UNL     1      62.044  59.543 113.420  1.00  0.00    -0.265 OA
BRANCH  19  21
HETATM   21  O1  UNL     1      62.002  59.454 111.166  1.00  0.00    -0.326 OA
HETATM   22  C1  UNL     1      61.390  60.291 110.204  1.00  0.00     0.213 C
ENDBRANCH  19  21
ENDBRANCH  18  19
ENDBRANCH  16  18
ENDBRANCH   1  16
BRANCH   1  23
HETATM   23  O3  UNL     1      59.443  58.466 114.767  1.00  0.00    -0.387 OA
ATOM     24  H3  UNL     1      59.154  58.401 115.669  1.00  0.00     0.210 HD
ENDBRANCH   1  23
BRANCH  15  25
HETATM   25  O8  UNL     1      61.709  56.460 114.621  1.00  0.00    -0.313 OA
BRANCH  25  26
HETATM   26  C26 UNL     1      62.335  55.291 114.232  1.00  0.00     0.255 C
HETATM   27  C27 UNL     1      61.577  53.999 114.230  1.00  0.00     0.126 C
HETATM   28  O9  UNL     1      63.539  55.274 113.873  1.00  0.00    -0.266 OA
ENDBRANCH  25  26
ENDBRANCH  15  25
BRANCH   5  29
HETATM   29  O4  UNL     1      54.566  56.905 115.197  1.00  0.00    -0.316 OA
BRANCH  29  30
HETATM   30  C11 UNL     1      53.840  57.205 114.085  1.00  0.00     0.259 C
HETATM   31  O5  UNL     1      53.228  58.301 114.048  1.00  0.00    -0.265 OA
BRANCH  30  32
HETATM   32  C12 UNL     1      53.817  56.210 112.980  1.00  0.00     0.111 C
BRANCH  32  33
HETATM   33  C13 UNL     1      54.077  56.929 111.676  1.00  0.00     0.019 C
BRANCH  33  34
HETATM   34  C14 UNL     1      55.419  56.457 111.173  1.00  0.00     0.100 C
BRANCH  34  35
HETATM   35  C15 UNL     1      55.222  55.339 110.246  1.00  0.00     0.231 C
HETATM   36  N1  UNL     1      55.082  55.543 108.847  1.00  0.00    -0.062 NA
HETATM   37  O6  UNL     1      55.170  54.159 110.669  1.00  0.00    -0.277 OA
ENDBRANCH  34  35
ENDBRANCH  33  34
ENDBRANCH  32  33
ENDBRANCH  30  32
ENDBRANCH  29  30
ENDBRANCH   5  29
BRANCH   9  38
HETATM   38  O7  UNL     1      56.228  53.269 119.025  1.00  0.00    -0.395 OA
ATOM     39  H7  UNL     1      55.297  53.294 119.214  1.00  0.00     0.210 HD
ENDBRANCH   9  38
TORSDOF 14
ENDMDL