MODEL 3
REMARK VINA RESULT: -7.323657611      1.165      1.873
REMARK  13 active torsions:
REMARK  status: ('A' for Active; 'I' for Inactive)
REMARK    1  A    between atoms: C2_2  and  C3_3
REMARK    2  A    between atoms: C4_5  and  C5_6
REMARK    3  A    between atoms: C5_6  and  C6_7
REMARK    4  A    between atoms: C6_7  and  C7_8
REMARK    5  A    between atoms: C7_8  and  C8_9
REMARK    6  A    between atoms: C8_9  and  C9_10
REMARK    7  A    between atoms: C9_10  and  C10_11
REMARK    8  A    between atoms: C10_11  and  O2_12
REMARK    9  A    between atoms: C14_19  and  O5_20
REMARK   10  A    between atoms: C16_23  and  C17_24
REMARK   11  A    between atoms: C17_24  and  C18_25
REMARK   12  A    between atoms: C25_34  and  O8_35
REMARK   13  A    between atoms: C27_38  and  O9_39
ROOT
HETATM    1  C3  UNL     1      58.426  54.809 113.135  1.00  0.00     0.129 C
HETATM    2  O1  UNL     1      59.075  54.413 114.270  1.00  0.00    -0.379 OA
HETATM    3  C4  UNL     1      58.348  54.745 115.384  1.00  0.00     0.136 C
HETATM    4  C11 UNL     1      57.632  55.995 114.978  1.00  0.00     0.123 C
HETATM    5  C12 UNL     1      56.555  56.325 115.882  1.00  0.00     0.266 C
HETATM    6  O3  UNL     1      56.392  55.607 116.930  1.00  0.00    -0.265 OA
HETATM    7  O4  UNL     1      55.658  57.357 115.740  1.00  0.00    -0.319 OA
HETATM    8  C13 UNL     1      55.782  58.481 114.953  1.00  0.00     0.210 C
HETATM    9  C14 UNL     1      55.079  58.431 113.618  1.00  0.00     0.148 C
HETATM   10  C15 UNL     1      54.371  57.127 113.370  1.00  0.00     0.039 C
HETATM   11  C16 UNL     1      52.874  57.279 113.131  1.00  0.00     0.093 C
HETATM   12  C21 UNL     1      52.595  58.129 111.981  1.00  0.00     0.263 C
HETATM   13  O6  UNL     1      51.810  59.085 112.095  1.00  0.00    -0.265 OA
HETATM   14  O7  UNL     1      53.096  58.044 110.676  1.00  0.00    -0.316 OA
HETATM   15  C22 UNL     1      54.269  57.790 109.976  1.00  0.00     0.130 C
HETATM   16  C23 UNL     1      54.027  58.202 108.516  1.00  0.00     0.040 C
HETATM   17  C24 UNL     1      54.711  56.366 109.950  1.00  0.00     0.064 C
HETATM   18  C25 UNL     1      54.412  55.653 111.283  1.00  0.00     0.127 C
HETATM   19  C26 UNL     1      55.110  56.263 112.431  1.00  0.00     0.051 C
HETATM   20  C27 UNL     1      55.965  55.250 113.222  1.00  0.00     0.132 C
HETATM   21  C28 UNL     1      57.313  55.776 113.562  1.00  0.00     0.060 C
ENDROOT
BRANCH   3  22
HETATM   22  C5  UNL     1      59.342  55.037 116.499  1.00  0.00     0.033 C
BRANCH  22  23
HETATM   23  C6  UNL     1      60.035  56.375 116.231  1.00  0.00     0.002 C
BRANCH  23  24
HETATM   24  C7  UNL     1      61.530  56.169 116.106  1.00  0.00     0.000 C
BRANCH  24  25
HETATM   25  C8  UNL     1      62.048  56.269 114.717  1.00  0.00     0.002 C
BRANCH  25  26
HETATM   26  C9  UNL     1      62.663  55.063 114.121  1.00  0.00     0.026 C
BRANCH  26  27
HETATM   27  C10 UNL     1      62.529  53.788 114.892  1.00  0.00     0.164 C
BRANCH  27  28
HETATM   28  O2  UNL     1      61.527  53.006 114.352  1.00  0.00    -0.401 OA
ATOM     29  H2  UNL     1      61.888  52.413 113.704  1.00  0.00     0.209 HD
ENDBRANCH  27  28
ENDBRANCH  26  27
ENDBRANCH  25  26
ENDBRANCH  24  25
ENDBRANCH  23  24
ENDBRANCH  22  23
ENDBRANCH   3  22
BRANCH   1  30
HETATM   30  C2  UNL     1      59.427  55.477 112.222  1.00  0.00     0.028 C
HETATM   31  C1  UNL     1      60.118  54.415 111.433  1.00  0.00     0.007 C
ENDBRANCH   1  30
BRANCH  20  32
HETATM   32  O9  UNL     1      55.242  54.783 114.335  1.00  0.00    -0.395 OA
ATOM     33  H9  UNL     1      55.476  55.288 115.106  1.00  0.00     0.210 HD
ENDBRANCH  20  32
BRANCH   9  34
HETATM   34  O5  UNL     1      54.328  59.564 113.369  1.00  0.00    -0.393 OA
ATOM     35  H5  UNL     1      53.738  59.778 114.083  1.00  0.00     0.210 HD
ENDBRANCH   9  34
BRANCH  18  36
HETATM   36  O8  UNL     1      54.869  54.331 111.043  1.00  0.00    -0.395 OA
ATOM     37  H8  UNL     1      55.454  54.174 111.774  1.00  0.00     0.210 HD
ENDBRANCH  18  36
BRANCH  11  38
HETATM   38  C17 UNL     1      52.229  57.669 114.429  1.00  0.00     0.019 C
BRANCH  38  39
HETATM   39  C18 UNL     1      51.234  56.746 115.006  1.00  0.00    -0.022 C
HETATM   40  C19 UNL     1      50.233  57.629 115.788  1.00  0.00     0.009 C
HETATM   41  C20 UNL     1      51.798  55.791 116.034  1.00  0.00     0.009 C
ENDBRANCH  38  39
ENDBRANCH  11  38
TORSDOF 13
ENDMDL