MODEL 3
REMARK VINA RESULT: -7.747859330      1.144      1.827
REMARK  16 active torsions:
REMARK  status: ('A' for Active; 'I' for Inactive)
REMARK    1  A    between atoms: C2_2  and  C3_3
REMARK    2  A    between atoms: C3_3  and  C4_4
REMARK    3  A    between atoms: C3_3  and  O8_39
REMARK    4  A    between atoms: C4_4  and  C5_5
REMARK    5  A    between atoms: C5_5  and  C6_6
REMARK    6  A    between atoms: C6_6  and  C7_7
REMARK    7  A    between atoms: C7_7  and  O1_8
REMARK    8  A    between atoms: O1_8  and  C8_9
REMARK    9  A    between atoms: C10_12  and  O3_13
REMARK   10  A    between atoms: C15_19  and  C16_20
REMARK   11  A    between atoms: C16_20  and  C18_22
REMARK   12  A    between atoms: C19_23  and  C21_25
REMARK   13  A    between atoms: C21_25  and  O4_26
REMARK   14  A    between atoms: C24_30  and  O5_31
REMARK   15  A    between atoms: C27_36  and  O7_37
REMARK   16  A    between atoms: O8_39  and  C28_40
ROOT
HETATM    1  C6  UNL     1      55.084  57.350 113.209  1.00  0.00     0.035 C
HETATM    2  C10 UNL     1      55.407  56.475 112.022  1.00  0.00     0.135 C
HETATM    3  C11 UNL     1      56.595  55.602 112.175  1.00  0.00     0.016 C
HETATM    4  C12 UNL     1      56.988  55.190 110.748  1.00  0.00     0.013 C
HETATM    5  C13 UNL     1      57.744  56.435 112.738  1.00  0.00     0.011 C
HETATM    6  C14 UNL     1      58.974  55.610 112.609  1.00  0.00     0.011 C
HETATM    7  C15 UNL     1      60.260  56.378 112.438  1.00  0.00    -0.007 C
HETATM    8  C22 UNL     1      60.140  57.819 112.825  1.00  0.00     0.010 C
HETATM    9  C23 UNL     1      59.749  58.032 114.251  1.00  0.00     0.069 C
HETATM   10  C24 UNL     1      58.289  58.106 114.515  1.00  0.00     0.174 C
HETATM   11  O6  UNL     1      58.089  57.671 115.850  1.00  0.00    -0.353 OA
HETATM   12  C25 UNL     1      58.053  56.367 115.300  1.00  0.00     0.189 C
HETATM   13  C26 UNL     1      57.442  56.988 114.084  1.00  0.00     0.068 C
HETATM   14  C27 UNL     1      55.963  57.122 114.366  1.00  0.00     0.147 C
ENDROOT
BRANCH   1  15
HETATM   15  C5  UNL     1      53.629  57.089 113.560  1.00  0.00     0.020 C
BRANCH  15  16
HETATM   16  C4  UNL     1      53.312  55.727 114.024  1.00  0.00     0.037 C
BRANCH  16  17
HETATM   17  C3  UNL     1      52.888  55.867 115.496  1.00  0.00     0.154 C
BRANCH  17  18
HETATM   18  C2  UNL     1      51.434  55.706 115.651  1.00  0.00    -0.005 C
HETATM   19  C1  UNL     1      50.662  56.766 115.733  1.00  0.00     0.009 C
ENDBRANCH  17  18
BRANCH  17  20
HETATM   20  O8  UNL     1      53.634  55.022 116.332  1.00  0.00    -0.312 OA
BRANCH  20  21
HETATM   21  C28 UNL     1      54.046  55.413 117.596  1.00  0.00     0.255 C
HETATM   22  C29 UNL     1      53.347  55.043 118.852  1.00  0.00     0.126 C
HETATM   23  O9  UNL     1      55.077  56.125 117.689  1.00  0.00    -0.266 OA
ENDBRANCH  20  21
ENDBRANCH  17  20
ENDBRANCH  16  17
ENDBRANCH  15  16
ENDBRANCH   1  15
BRANCH   1  24
HETATM   24  C7  UNL     1      55.038  58.771 112.669  1.00  0.00     0.193 C
BRANCH  24  25
HETATM   25  O1  UNL     1      54.068  59.568 113.319  1.00  0.00    -0.321 OA
BRANCH  25  26
HETATM   26  C8  UNL     1      53.413  60.555 112.629  1.00  0.00     0.254 C
HETATM   27  C9  UNL     1      52.821  60.318 111.265  1.00  0.00     0.126 C
HETATM   28  O2  UNL     1      53.320  61.681 113.181  1.00  0.00    -0.266 OA
ENDBRANCH  25  26
ENDBRANCH  24  25
ENDBRANCH   1  24
BRANCH   2  29
HETATM   29  O3  UNL     1      55.527  57.193 110.834  1.00  0.00    -0.394 OA
ATOM     30  H3  UNL     1      55.015  57.993 110.833  1.00  0.00     0.210 HD
ENDBRANCH   2  29
BRANCH  14  31
HETATM   31  O7  UNL     1      55.748  57.866 115.495  1.00  0.00    -0.394 OA
ATOM     32  H7  UNL     1      56.376  58.546 115.707  1.00  0.00     0.210 HD
ENDBRANCH  14  31
BRANCH  10  33
HETATM   33  O5  UNL     1      57.857  59.413 114.269  1.00  0.00    -0.364 OA
ATOM     34  H5  UNL     1      57.719  59.848 115.101  1.00  0.00     0.213 HD
ENDBRANCH  10  33
BRANCH   7  35
HETATM   35  C16 UNL     1      61.415  55.664 113.141  1.00  0.00     0.008 C
HETATM   36  C17 UNL     1      61.081  54.247 113.406  1.00  0.00     0.014 C
BRANCH  35  37
HETATM   37  C18 UNL     1      62.723  55.865 112.527  1.00  0.00    -0.018 C
HETATM   38  C19 UNL     1      63.687  56.707 112.631  1.00  0.00    -0.064 C
HETATM   39  C20 UNL     1      64.903  56.456 111.711  1.00  0.00     0.045 C
BRANCH  38  40
HETATM   40  C21 UNL     1      63.850  57.891 113.464  1.00  0.00     0.197 C
BRANCH  40  41
HETATM   41  O4  UNL     1      65.070  57.855 114.186  1.00  0.00    -0.397 OA
ATOM     42  H4  UNL     1      65.697  58.482 113.844  1.00  0.00     0.209 HD
ENDBRANCH  40  41
ENDBRANCH  38  40
ENDBRANCH  35  37
ENDBRANCH   7  35
TORSDOF 16
ENDMDL