MODEL 3
REMARK VINA RESULT: -7.461947874      2.383      8.929
REMARK  16 active torsions:
REMARK  status: ('A' for Active; 'I' for Inactive)
REMARK    1  A    between atoms: C2_2  and  O2_4
REMARK    2  A    between atoms: O2_4  and  C3_5
REMARK    3  A    between atoms: C3_5  and  C4_7
REMARK    4  A    between atoms: C4_7  and  C5_8
REMARK    5  A    between atoms: C5_8  and  O4_9
REMARK    6  A    between atoms: C5_8  and  C6_11
REMARK    7  A    between atoms: C6_11  and  C8_13
REMARK    8  A    between atoms: C9_14  and  C10_15
REMARK    9  A    between atoms: C10_15  and  O5_16
REMARK   10  A    between atoms: C10_15  and  C11_18
REMARK   11  A    between atoms: C11_18  and  C12_19
REMARK   12  A    between atoms: C12_19  and  C13_20
REMARK   13  A    between atoms: C17_24  and  O6_25
REMARK   14  A    between atoms: O6_25  and  C18_26
REMARK   15  A    between atoms: C21_30  and  O8_31
REMARK   16  A    between atoms: C26_38  and  O10_39
ROOT
HETATM    1  C13 UNL     1      57.489  56.290 114.213  1.00  0.00     0.014 C
HETATM    2  C14 UNL     1      57.859  56.279 112.784  1.00  0.00    -0.016 C
HETATM    3  C15 UNL     1      58.802  55.110 112.556  1.00  0.00     0.018 C
HETATM    4  C16 UNL     1      58.601  57.505 112.297  1.00  0.00     0.018 C
HETATM    5  C17 UNL     1      56.655  56.028 111.874  1.00  0.00     0.143 C
HETATM    6  C20 UNL     1      55.767  55.053 112.538  1.00  0.00     0.073 C
HETATM    7  C21 UNL     1      55.203  55.516 113.865  1.00  0.00     0.078 C
HETATM    8  C22 UNL     1      53.766  55.908 113.664  1.00  0.00     0.024 C
HETATM    9  C23 UNL     1      52.866  55.498 114.825  1.00  0.00     0.013 C
HETATM   10  C24 UNL     1      53.510  57.307 113.249  1.00  0.00     0.093 C
HETATM   11  C25 UNL     1      54.527  58.271 113.677  1.00  0.00     0.179 C
HETATM   12  O9  UNL     1      54.538  59.369 113.166  1.00  0.00    -0.291 OA
HETATM   13  C26 UNL     1      55.484  57.822 114.727  1.00  0.00     0.100 C
HETATM   14  C27 UNL     1      56.047  56.485 114.604  1.00  0.00     0.044 C
HETATM   15  C28 UNL     1      56.076  55.962 116.084  1.00  0.00     0.026 C
ENDROOT
BRANCH   1  16
HETATM   16  C12 UNL     1      58.458  56.938 115.129  1.00  0.00     0.009 C
BRANCH  16  17
HETATM   17  C11 UNL     1      59.660  56.133 115.540  1.00  0.00     0.036 C
BRANCH  17  18
HETATM   18  C10 UNL     1      60.840  57.035 115.871  1.00  0.00     0.140 C
BRANCH  18  19
HETATM   19  C9  UNL     1      61.030  57.945 114.713  1.00  0.00     0.001 C
HETATM   20  C8  UNL     1      61.936  57.764 113.779  1.00  0.00    -0.021 C
BRANCH  20  21
HETATM   21  C6  UNL     1      62.911  56.644 113.715  1.00  0.00     0.033 C
HETATM   22  C7  UNL     1      62.408  55.742 112.572  1.00  0.00     0.017 C
BRANCH  21  23
HETATM   23  C5  UNL     1      64.216  57.212 113.189  1.00  0.00     0.134 C
BRANCH  23  24
HETATM   24  C4  UNL     1      64.054  58.326 112.211  1.00  0.00     0.143 C
BRANCH  24  25
HETATM   25  C3  UNL     1      65.361  58.607 111.593  1.00  0.00     0.268 C
HETATM   26  O3  UNL     1      65.635  59.795 111.226  1.00  0.00    -0.265 OA
BRANCH  25  27
HETATM   27  O2  UNL     1      66.350  57.655 111.371  1.00  0.00    -0.245 OA
BRANCH  27  28
HETATM   28  C2  UNL     1      67.585  57.710 111.998  1.00  0.00     0.262 C
HETATM   29  C1  UNL     1      68.778  58.358 111.402  1.00  0.00     0.126 C
HETATM   30  O1  UNL     1      67.711  57.187 113.132  1.00  0.00    -0.265 OA
ENDBRANCH  27  28
ENDBRANCH  25  27
ENDBRANCH  24  25
ENDBRANCH  23  24
BRANCH  23  31
HETATM   31  O4  UNL     1      65.006  57.658 114.252  1.00  0.00    -0.394 OA
ATOM     32  H4  UNL     1      65.156  56.933 114.847  1.00  0.00     0.210 HD
ENDBRANCH  23  31
ENDBRANCH  21  23
ENDBRANCH  20  21
ENDBRANCH  18  19
BRANCH  18  33
HETATM   33  O5  UNL     1      60.540  57.807 116.985  1.00  0.00    -0.392 OA
ATOM     34  H5  UNL     1      59.729  57.485 117.360  1.00  0.00     0.210 HD
ENDBRANCH  18  33
ENDBRANCH  17  18
ENDBRANCH  16  17
ENDBRANCH   1  16
BRANCH   5  35
HETATM   35  O6  UNL     1      57.089  55.395 110.653  1.00  0.00    -0.315 OA
BRANCH  35  36
HETATM   36  C18 UNL     1      56.465  55.556 109.455  1.00  0.00     0.255 C
HETATM   37  C19 UNL     1      55.063  56.043 109.418  1.00  0.00     0.126 C
HETATM   38  O7  UNL     1      57.088  55.291 108.395  1.00  0.00    -0.266 OA
ENDBRANCH  35  36
ENDBRANCH   5  35
BRANCH   7  39
HETATM   39  O8  UNL     1      55.084  54.292 114.595  1.00  0.00    -0.388 OA
ATOM     40  H8  UNL     1      55.779  54.367 115.237  1.00  0.00     0.210 HD
ENDBRANCH   7  39
BRANCH  13  41
HETATM   41  O10 UNL     1      56.339  58.870 115.017  1.00  0.00    -0.360 OA
ATOM     42  H10 UNL     1      57.234  58.558 114.936  1.00  0.00     0.217 HD
ENDBRANCH  13  41
TORSDOF 16
ENDMDL