MODEL 2
REMARK VINA RESULT: -9.329114373      1.486      1.767
REMARK  14 active torsions:
REMARK  status: ('A' for Active; 'I' for Inactive)
REMARK    1  A    between atoms: C4_4  and  C5_5
REMARK    2  A    between atoms: C6_6  and  C7_7
REMARK    3  A    between atoms: C9_9  and  C10_10
REMARK    4  A    between atoms: C11_11  and  C12_12
REMARK    5  A    between atoms: C14_14  and  C15_15
REMARK    6  A    between atoms: C18_19  and  C19_20
REMARK    7  A    between atoms: C20_21  and  C21_22
REMARK    8  A    between atoms: C21_22  and  O3_24
REMARK    9  A    between atoms: O3_24  and  C22_25
REMARK   10  A    between atoms: C23_27  and  C25_29
REMARK   11  A    between atoms: C25_29  and  O5_30
REMARK   12  A    between atoms: C26_32  and  O6_33
REMARK   13  A    between atoms: C27_35  and  O7_36
REMARK   14  A    between atoms: C28_38  and  O8_39
ROOT
HETATM    1  C15 UNL     1      59.717  57.496 113.822  1.00  0.00     0.014 C
HETATM    2  C16 UNL     1      58.643  56.774 114.038  1.00  0.00     0.024 C
HETATM    3  C17 UNL     1      57.238  56.911 113.714  1.00  0.00     0.199 C
HETATM    4  O1  UNL     1      56.496  57.618 112.998  1.00  0.00    -0.289 OA
HETATM    5  C18 UNL     1      56.962  55.778 114.647  1.00  0.00     0.175 A
HETATM    6  O9  UNL     1      57.513  54.566 114.260  1.00  0.00    -0.351 OA
HETATM    7  C29 UNL     1      58.421  55.483 114.712  1.00  0.00     0.207 A
ENDROOT
BRANCH   5   8
HETATM    8  C19 UNL     1      56.251  55.980 115.898  1.00  0.00     0.028 C
HETATM    9  C20 UNL     1      54.989  56.153 116.088  1.00  0.00     0.082 C
BRANCH   9  10
HETATM   10  C21 UNL     1      54.016  56.176 115.010  1.00  0.00     0.285 C
HETATM   11  O2  UNL     1      53.772  55.203 114.277  1.00  0.00    -0.260 OA
BRANCH  10  12
HETATM   12  O3  UNL     1      53.285  57.340 114.743  1.00  0.00    -0.284 OA
BRANCH  12  13
HETATM   13  C22 UNL     1      52.436  57.460 113.572  1.00  0.00     0.302 C
HETATM   14  O4  UNL     1      53.140  58.090 112.626  1.00  0.00    -0.343 OA
HETATM   15  C23 UNL     1      52.473  58.807 111.709  1.00  0.00     0.110 C
HETATM   16  C24 UNL     1      51.747  58.053 110.638  1.00  0.00     0.051 C
HETATM   17  C26 UNL     1      51.478  59.783 112.315  1.00  0.00     0.185 C
HETATM   18  C27 UNL     1      50.505  59.071 113.215  1.00  0.00     0.183 C
HETATM   19  C28 UNL     1      51.128  57.998 114.028  1.00  0.00     0.205 C
BRANCH  15  20
HETATM   20  C25 UNL     1      53.518  59.670 110.953  1.00  0.00     0.204 C
BRANCH  20  21
HETATM   21  O5  UNL     1      54.716  59.701 111.624  1.00  0.00    -0.398 OA
ATOM     22  H5  UNL     1      55.261  58.959 111.390  1.00  0.00     0.209 HD
ENDBRANCH  20  21
ENDBRANCH  15  20
BRANCH  17  23
HETATM   23  O6  UNL     1      52.201  60.726 113.046  1.00  0.00    -0.390 OA
ATOM     24  H6  UNL     1      51.907  60.677 113.948  1.00  0.00     0.210 HD
ENDBRANCH  17  23
BRANCH  18  25
HETATM   25  O7  UNL     1      49.760  59.999 113.939  1.00  0.00    -0.390 OA
ATOM     26  H7  UNL     1      49.264  60.550 113.347  1.00  0.00     0.210 HD
ENDBRANCH  18  25
BRANCH  19  27
HETATM   27  O8  UNL     1      51.253  58.526 115.343  1.00  0.00    -0.388 OA
ATOM     28  H8  UNL     1      51.580  59.417 115.305  1.00  0.00     0.210 HD
ENDBRANCH  19  27
ENDBRANCH  12  13
ENDBRANCH  10  12
ENDBRANCH   9  10
ENDBRANCH   5   8
BRANCH   1  29
HETATM   29  C14 UNL     1      59.632  58.745 113.104  1.00  0.00     0.007 C
HETATM   30  C12 UNL     1      60.612  59.202 112.323  1.00  0.00    -0.062 C
HETATM   31  C13 UNL     1      61.862  58.435 112.182  1.00  0.00     0.048 C
BRANCH  30  32
HETATM   32  C11 UNL     1      60.419  60.476 111.640  1.00  0.00     0.007 C
HETATM   33  C10 UNL     1      61.003  60.761 110.468  1.00  0.00     0.001 C
BRANCH  33  34
HETATM   34  C9  UNL     1      60.756  62.039 109.871  1.00  0.00     0.007 C
HETATM   35  C7  UNL     1      60.820  62.338 108.579  1.00  0.00    -0.062 C
HETATM   36  C8  UNL     1      61.198  61.297 107.606  1.00  0.00     0.048 C
BRANCH  35  37
HETATM   37  C6  UNL     1      60.529  63.686 108.205  1.00  0.00     0.007 C
HETATM   38  C5  UNL     1      59.425  64.272 107.920  1.00  0.00     0.001 C
BRANCH  38  39
HETATM   39  C4  UNL     1      58.086  63.752 107.884  1.00  0.00     0.002 C
HETATM   40  C2  UNL     1      57.213  64.236 106.962  1.00  0.00    -0.088 C
HETATM   41  C1  UNL     1      57.671  65.283 106.025  1.00  0.00     0.043 C
HETATM   42  C3  UNL     1      55.820  63.744 106.872  1.00  0.00     0.043 C
ENDBRANCH  38  39
ENDBRANCH  35  37
ENDBRANCH  33  34
ENDBRANCH  30  32
ENDBRANCH   1  29
TORSDOF 14
ENDMDL