MODEL 5
REMARK VINA RESULT: -7.751583764      2.500      7.340
REMARK  14 active torsions:
REMARK  status: ('A' for Active; 'I' for Inactive)
REMARK    1  A    between atoms: C2_2  and  C3_3
REMARK    2  A    between atoms: C4_4  and  O1_5
REMARK    3  A    between atoms: C6_8  and  C7_9
REMARK    4  A    between atoms: C7_9  and  C8_10
REMARK    5  A    between atoms: C13_16  and  C14_17
REMARK    6  A    between atoms: C14_17  and  O3_18
REMARK    7  A    between atoms: O3_18  and  C15_19
REMARK    8  A    between atoms: C16_20  and  C17_21
REMARK    9  A    between atoms: C17_21  and  N1_22
REMARK       I    between atoms: N1_22  and  C18_24
REMARK   10  A    between atoms: C18_24  and  O5_26
REMARK   11  A    between atoms: O5_26  and  C19_27
REMARK   12  A    between atoms: C23_32  and  S1_33
REMARK   13  A    between atoms: C25_35  and  O7_36
REMARK   14  A    between atoms: C26_38  and  O8_39
ROOT
HETATM    1  C15 UNL     1      61.174  57.973 113.573  1.00  0.00     0.183 C
HETATM    2  C16 UNL     1      59.973  57.010 113.663  1.00  0.00     0.172 C
HETATM    3  O6  UNL     1      60.364  55.750 113.985  1.00  0.00    -0.363 OA
HETATM    4  C23 UNL     1      60.814  55.608 115.289  1.00  0.00     0.214 C
HETATM    5  C25 UNL     1      61.457  56.870 115.822  1.00  0.00     0.188 C
HETATM    6  C26 UNL     1      62.164  57.548 114.669  1.00  0.00     0.181 C
ENDROOT
BRANCH   1   7
HETATM    7  O3  UNL     1      61.861  57.875 112.403  1.00  0.00    -0.376 OA
BRANCH   7   8
HETATM    8  C14 UNL     1      62.541  59.008 111.978  1.00  0.00     0.203 C
BRANCH   8   9
HETATM    9  C13 UNL     1      61.830  59.625 110.757  1.00  0.00    -0.050 C
HETATM   10  C3  UNL     1      62.750  60.064 109.711  1.00  0.00    -0.047 C
HETATM   11  C4  UNL     1      62.210  60.694 108.482  1.00  0.00     0.150 C
HETATM   12  C5  UNL     1      62.022  62.145 108.463  1.00  0.00     0.068 C
HETATM   13  C6  UNL     1      60.638  62.681 108.622  1.00  0.00     0.124 C
HETATM   14  O2  UNL     1      60.042  62.174 109.696  1.00  0.00    -0.385 OA
HETATM   15  C11 UNL     1      60.628  61.875 110.844  1.00  0.00     0.172 C
HETATM   16  C12 UNL     1      60.696  60.429 111.228  1.00  0.00     0.063 C
BRANCH  10  17
HETATM   17  C2  UNL     1      64.027  60.760 110.132  1.00  0.00     0.033 C
HETATM   18  C1  UNL     1      65.215  60.089 109.428  1.00  0.00     0.010 C
ENDBRANCH  10  17
BRANCH  11  19
HETATM   19  O1  UNL     1      61.114  59.979 107.959  1.00  0.00    -0.391 OA
ATOM     20  H1  UNL     1      61.117  59.966 107.009  1.00  0.00     0.210 HD
ENDBRANCH  11  19
BRANCH  13  21
HETATM   21  C7  UNL     1      59.847  62.675 107.343  1.00  0.00     0.035 C
BRANCH  21  22
HETATM   22  C8  UNL     1      58.453  63.247 107.535  1.00  0.00    -0.020 C
HETATM   23  C9  UNL     1      58.412  64.739 107.413  1.00  0.00     0.009 C
HETATM   24  C10 UNL     1      57.426  62.570 106.685  1.00  0.00     0.009 C
ENDBRANCH  21  22
ENDBRANCH  13  21
ENDBRANCH   8   9
ENDBRANCH   7   8
ENDBRANCH   1   7
BRANCH   2  25
HETATM   25  C17 UNL     1      59.270  57.119 112.373  1.00  0.00     0.159 C
BRANCH  25  26
HETATM   26  N1  UNL     1      57.906  56.750 112.297  1.00  0.00    -0.334 N
HETATM   27  C18 UNL     1      56.764  57.446 112.690  1.00  0.00     0.361 C
HETATM   28  O4  UNL     1      56.790  58.586 113.212  1.00  0.00    -0.238 OA
ATOM     29  H1  UNL     1      57.731  55.830 111.891  1.00  0.00     0.164 HD
BRANCH  27  30
HETATM   30  O5  UNL     1      55.488  56.900 112.523  1.00  0.00    -0.294 OA
BRANCH  30  31
HETATM   31  C19 UNL     1      54.686  56.478 113.601  1.00  0.00     0.061 C
HETATM   32  C20 UNL     1      55.402  56.339 114.900  1.00  0.00     0.046 C
HETATM   33  C21 UNL     1      53.536  57.495 113.699  1.00  0.00     0.046 C
HETATM   34  C22 UNL     1      54.053  55.131 113.232  1.00  0.00     0.046 C
ENDBRANCH  30  31
ENDBRANCH  27  30
ENDBRANCH  25  26
ENDBRANCH   2  25
BRANCH   6  35
HETATM   35  O8  UNL     1      63.059  56.577 114.171  1.00  0.00    -0.390 OA
ATOM     36  H8  UNL     1      63.904  56.656 114.599  1.00  0.00     0.210 HD
ENDBRANCH   6  35
BRANCH   5  37
HETATM   37  O7  UNL     1      60.604  57.689 116.518  1.00  0.00    -0.389 OA
ATOM     38  H7  UNL     1      59.697  57.404 116.513  1.00  0.00     0.210 HD
ENDBRANCH   5  37
BRANCH   4  39
HETATM   39  S1  UNL     1      59.538  55.110 116.454  1.00  0.00    -0.139 SA
HETATM   40  C24 UNL     1      58.350  53.959 115.765  1.00  0.00     0.092 C
ENDBRANCH   4  39
TORSDOF 14
ENDMDL