MODEL 2
REMARK VINA RESULT: -8.577495925      1.016      1.136
REMARK  13 active torsions:
REMARK  status: ('A' for Active; 'I' for Inactive)
REMARK    1  A    between atoms: C2_2  and  C3_3
REMARK    2  A    between atoms: C3_3  and  C4_4
REMARK    3  A    between atoms: C4_4  and  C5_5
REMARK    4  A    between atoms: C5_5  and  O1_6
REMARK    5  A    between atoms: O1_6  and  C6_7
REMARK    6  A    between atoms: C7_8  and  O2_9
REMARK    7  A    between atoms: C14_18  and  C15_19
REMARK    8  A    between atoms: C15_19  and  O4_20
REMARK    9  A    between atoms: O4_20  and  C16_21
REMARK   10  A    between atoms: C18_24  and  O6_25
REMARK   11  A    between atoms: C20_27  and  O7_28
REMARK   12  A    between atoms: C21_30  and  O8_31
REMARK   13  A    between atoms: C23_34  and  O9_35
ROOT
HETATM    1  C6  UNL     1      60.685  56.470 114.503  1.00  0.00     0.187 C
HETATM    2  C7  UNL     1      61.894  55.539 114.463  1.00  0.00     0.173 C
HETATM    3  C8  UNL     1      61.438  54.355 113.688  1.00  0.00     0.203 C
HETATM    4  O3  UNL     1      60.080  54.351 113.842  1.00  0.00    -0.374 OA
HETATM    5  C9  UNL     1      59.628  55.670 113.885  1.00  0.00     0.095 C
HETATM    6  C10 UNL     1      59.576  56.072 112.399  1.00  0.00     0.045 C
HETATM    7  C11 UNL     1      58.459  55.468 111.669  1.00  0.00     0.037 C
HETATM    8  C12 UNL     1      57.124  56.194 111.852  1.00  0.00    -0.075 C
HETATM    9  C13 UNL     1      56.189  55.915 110.734  1.00  0.00     0.044 C
HETATM   10  C14 UNL     1      56.656  56.920 112.855  1.00  0.00    -0.027 C
HETATM   11  C22 UNL     1      57.559  57.065 114.104  1.00  0.00     0.057 C
HETATM   12  C23 UNL     1      57.042  57.769 115.250  1.00  0.00     0.127 C
HETATM   13  C24 UNL     1      56.557  56.921 116.416  1.00  0.00     0.033 C
HETATM   14  C25 UNL     1      57.605  55.925 116.843  1.00  0.00     0.012 C
HETATM   15  C26 UNL     1      57.856  55.071 115.639  1.00  0.00    -0.040 C
HETATM   16  C27 UNL     1      56.478  54.373 115.458  1.00  0.00     0.015 C
HETATM   17  C28 UNL     1      58.741  53.938 116.061  1.00  0.00     0.015 C
HETATM   18  C29 UNL     1      58.221  55.731 114.383  1.00  0.00     0.042 C
ENDROOT
BRANCH  10  19
HETATM   19  C15 UNL     1      55.403  57.540 112.872  1.00  0.00     0.146 C
BRANCH  19  20
HETATM   20  O4  UNL     1      54.123  57.243 113.040  1.00  0.00    -0.329 OA
BRANCH  20  21
HETATM   21  C16 UNL     1      53.297  58.234 113.503  1.00  0.00     0.296 C
HETATM   22  O5  UNL     1      52.016  58.067 112.799  1.00  0.00    -0.356 OA
HETATM   23  C17 UNL     1      52.277  58.129 111.435  1.00  0.00     0.205 C
HETATM   24  C18 UNL     1      52.764  59.483 111.006  1.00  0.00     0.176 C
HETATM   25  C20 UNL     1      52.967  60.335 112.214  1.00  0.00     0.182 C
HETATM   26  C21 UNL     1      53.728  59.626 113.303  1.00  0.00     0.205 C
BRANCH  24  27
HETATM   27  O6  UNL     1      53.893  59.358 110.218  1.00  0.00    -0.386 OA
HETATM   28  C19 UNL     1      53.822  58.290 109.332  1.00  0.00     0.202 C
ENDBRANCH  24  27
BRANCH  25  29
HETATM   29  O7  UNL     1      51.810  60.880 112.716  1.00  0.00    -0.390 OA
ATOM     30  H7  UNL     1      51.913  61.758 113.062  1.00  0.00     0.210 HD
ENDBRANCH  25  29
BRANCH  26  31
HETATM   31  O8  UNL     1      53.557  60.347 114.490  1.00  0.00    -0.388 OA
ATOM     32  H8  UNL     1      53.061  59.826 115.110  1.00  0.00     0.210 HD
ENDBRANCH  26  31
ENDBRANCH  20  21
ENDBRANCH  19  20
ENDBRANCH  10  19
BRANCH  12  33
HETATM   33  O9  UNL     1      56.169  58.809 115.171  1.00  0.00    -0.395 OA
ATOM     34  H9  UNL     1      56.182  59.461 114.480  1.00  0.00     0.210 HD
ENDBRANCH  12  33
BRANCH   1  35
HETATM   35  O1  UNL     1      60.968  57.667 113.854  1.00  0.00    -0.380 OA
BRANCH  35  36
HETATM   36  C5  UNL     1      62.290  57.958 113.657  1.00  0.00     0.168 C
BRANCH  36  37
HETATM   37  C4  UNL     1      62.410  58.632 112.307  1.00  0.00     0.026 C
BRANCH  37  38
HETATM   38  C3  UNL     1      61.127  59.370 111.951  1.00  0.00     0.002 C
BRANCH  38  39
HETATM   39  C2  UNL     1      61.273  60.085 110.629  1.00  0.00    -0.004 C
HETATM   40  C1  UNL     1      60.581  61.415 110.718  1.00  0.00     0.005 C
ENDBRANCH  38  39
ENDBRANCH  37  38
ENDBRANCH  36  37
ENDBRANCH  35  36
ENDBRANCH   1  35
BRANCH   2  41
HETATM   41  O2  UNL     1      62.378  55.237 115.733  1.00  0.00    -0.391 OA
ATOM     42  H2  UNL     1      63.303  55.020 115.729  1.00  0.00     0.210 HD
ENDBRANCH   2  41
TORSDOF 13
ENDMDL