MODEL 3
REMARK VINA RESULT: -8.330598500      1.653      2.441
REMARK  14 active torsions:
REMARK  status: ('A' for Active; 'I' for Inactive)
REMARK    1  A    between atoms: C4_6  and  C5_7
REMARK    2  A    between atoms: C5_7  and  C6_8
REMARK    3  A    between atoms: C6_8  and  O3_9
REMARK    4  A    between atoms: C6_8  and  C7_11
REMARK    5  A    between atoms: C11_16  and  O5_17
REMARK    6  A    between atoms: C13_19  and  O6_20
REMARK    7  A    between atoms: C14_22  and  O7_23
REMARK    8  A    between atoms: C15_25  and  C16_26
REMARK    9  A    between atoms: C16_26  and  O8_27
REMARK   10  A    between atoms: C17_29  and  C18_30
REMARK   11  A    between atoms: C19_31  and  C21_33
REMARK   12  A    between atoms: C23_35  and  C24_36
REMARK   13  A    between atoms: C24_36  and  C25_37
REMARK   14  A    between atoms: C25_37  and  C26_38
ROOT
HETATM    1  C1  UNL     1      60.490  54.612 112.039  1.00  0.00     0.034 C
HETATM    2  C2  UNL     1      60.209  55.805 112.512  1.00  0.00     0.076 C
HETATM    3  C3  UNL     1      58.973  56.388 111.918  1.00  0.00     0.296 C
HETATM    4  O1  UNL     1      58.505  55.896 110.887  1.00  0.00    -0.259 OA
HETATM    5  O2  UNL     1      58.231  57.500 112.422  1.00  0.00    -0.311 OA
HETATM    6  C4  UNL     1      58.460  58.005 113.798  1.00  0.00     0.141 C
HETATM    7  C15 UNL     1      59.811  58.311 113.874  1.00  0.00     0.054 C
HETATM    8  C17 UNL     1      61.183  57.919 113.830  1.00  0.00     0.092 C
HETATM    9  C29 UNL     1      61.080  56.409 113.506  1.00  0.00     0.172 C
HETATM   10  O9  UNL     1      61.793  55.671 114.145  1.00  0.00    -0.291 OA
ENDROOT
BRANCH   6  11
HETATM   11  C5  UNL     1      57.800  56.987 114.749  1.00  0.00     0.067 C
BRANCH  11  12
HETATM   12  C6  UNL     1      56.595  57.661 115.330  1.00  0.00     0.152 C
BRANCH  12  13
HETATM   13  O3  UNL     1      56.704  59.022 115.454  1.00  0.00    -0.393 OA
ATOM     14  H3  UNL     1      55.945  59.510 115.155  1.00  0.00     0.210 HD
ENDBRANCH  12  13
BRANCH  12  15
HETATM   15  C7  UNL     1      55.333  57.309 114.541  1.00  0.00     0.182 C
HETATM   16  O4  UNL     1      55.719  56.329 113.628  1.00  0.00    -0.368 OA
HETATM   17  C8  UNL     1      54.738  56.049 112.696  1.00  0.00     0.083 C
HETATM   18  C9  UNL     1      53.500  55.455 113.309  1.00  0.00     0.048 C
HETATM   19  C10 UNL     1      55.332  55.041 111.717  1.00  0.00     0.048 C
HETATM   20  C11 UNL     1      54.333  57.253 111.879  1.00  0.00     0.185 C
HETATM   21  C13 UNL     1      53.763  58.284 112.852  1.00  0.00     0.181 C
HETATM   22  C14 UNL     1      54.861  58.563 113.870  1.00  0.00     0.181 C
BRANCH  20  23
HETATM   23  O5  UNL     1      53.395  56.862 110.945  1.00  0.00    -0.385 OA
HETATM   24  C12 UNL     1      53.732  57.381 109.682  1.00  0.00     0.202 C
ENDBRANCH  20  23
BRANCH  21  25
HETATM   25  O6  UNL     1      53.430  59.467 112.235  1.00  0.00    -0.390 OA
ATOM     26  H6  UNL     1      52.815  59.984 112.742  1.00  0.00     0.210 HD
ENDBRANCH  21  25
BRANCH  22  27
HETATM   27  O7  UNL     1      55.913  59.263 113.284  1.00  0.00    -0.390 OA
ATOM     28  H7  UNL     1      56.699  58.732 113.222  1.00  0.00     0.210 HD
ENDBRANCH  22  27
ENDBRANCH  12  15
ENDBRANCH  11  12
ENDBRANCH   6  11
BRANCH   7  29
HETATM   29  C16 UNL     1      59.865  59.623 113.303  1.00  0.00     0.172 C
BRANCH  29  30
HETATM   30  O8  UNL     1      58.620  60.363 113.265  1.00  0.00    -0.400 OA
ATOM     31  H8  UNL     1      57.972  60.137 113.922  1.00  0.00     0.209 HD
ENDBRANCH  29  30
ENDBRANCH   7  29
BRANCH   8  32
HETATM   32  C18 UNL     1      61.973  58.472 112.699  1.00  0.00    -0.007 C
HETATM   33  C19 UNL     1      63.233  58.504 112.567  1.00  0.00    -0.059 C
HETATM   34  C20 UNL     1      64.177  57.973 113.565  1.00  0.00     0.048 C
BRANCH  33  35
HETATM   35  C21 UNL     1      63.808  59.098 111.346  1.00  0.00    -0.056 C
HETATM   36  C22 UNL     1      65.213  58.819 111.035  1.00  0.00     0.049 C
HETATM   37  C23 UNL     1      63.071  59.857 110.585  1.00  0.00     0.007 C
BRANCH  37  38
HETATM   38  C24 UNL     1      63.399  60.543 109.354  1.00  0.00     0.001 C
BRANCH  38  39
HETATM   39  C25 UNL     1      62.515  61.491 108.747  1.00  0.00     0.002 C
BRANCH  39  40
HETATM   40  C26 UNL     1      61.663  61.385 107.786  1.00  0.00    -0.088 C
HETATM   41  C27 UNL     1      61.924  60.723 106.500  1.00  0.00     0.043 C
HETATM   42  C28 UNL     1      60.251  61.976 107.938  1.00  0.00     0.043 C
ENDBRANCH  39  40
ENDBRANCH  38  39
ENDBRANCH  37  38
ENDBRANCH  33  35
ENDBRANCH   8  32
TORSDOF 14
ENDMDL