MODEL 5
REMARK VINA RESULT: -7.712358621      5.032      8.478
REMARK  14 active torsions:
REMARK  status: ('A' for Active; 'I' for Inactive)
REMARK    1  A    between atoms: C2_2  and  C3_3
REMARK    2  A    between atoms: C3_3  and  C4_4
REMARK    3  A    between atoms: C4_4  and  C5_5
REMARK    4  A    between atoms: C5_5  and  C6_6
REMARK    5  A    between atoms: C11_11  and  O1_12
REMARK    6  A    between atoms: C13_18  and  O3_19
REMARK    7  A    between atoms: C13_18  and  C14_21
REMARK    8  A    between atoms: C14_21  and  C15_22
REMARK    9  A    between atoms: C15_22  and  O5_24
REMARK   10  A    between atoms: O5_24  and  C16_25
REMARK   11  A    between atoms: C18_27  and  O6_28
REMARK   12  A    between atoms: O6_28  and  C19_29
REMARK   13  A    between atoms: C23_33  and  O7_34
REMARK   14  A    between atoms: C26_39  and  O9_41
ROOT
HETATM    1  C5  UNL     1      52.233  59.032 111.539  1.00  0.00    -0.003 C
HETATM    2  C8  UNL     1      52.297  59.495 112.981  1.00  0.00     0.040 C
HETATM    3  C9  UNL     1      51.592  58.791 114.026  1.00  0.00    -0.022 C
HETATM    4  C10 UNL     1      51.727  57.425 114.443  1.00  0.00     0.052 C
HETATM    5  C11 UNL     1      52.992  56.728 114.511  1.00  0.00     0.142 C
HETATM    6  N1  UNL     1      54.293  57.068 114.159  1.00  0.00    -0.305 N
ATOM      7  H1  UNL     1      54.982  56.861 114.881  1.00  0.00     0.171 HD
HETATM    8  C12 UNL     1      54.839  57.641 113.003  1.00  0.00     0.261 C
HETATM    9  O2  UNL     1      55.885  58.350 113.165  1.00  0.00    -0.270 OA
HETATM   10  C13 UNL     1      54.289  57.482 111.615  1.00  0.00     0.178 C
HETATM   11  C26 UNL     1      53.596  58.677 111.103  1.00  0.00     0.102 C
HETATM   12  C27 UNL     1      53.919  58.844 109.633  1.00  0.00     0.050 C
ENDROOT
BRANCH  10  13
HETATM   13  O3  UNL     1      55.503  57.438 110.854  1.00  0.00    -0.377 OA
ATOM     14  H3  UNL     1      55.650  58.366 110.708  1.00  0.00     0.211 HD
ENDBRANCH  10  13
BRANCH  10  15
HETATM   15  C14 UNL     1      53.740  56.131 111.361  1.00  0.00     0.162 C
BRANCH  15  16
HETATM   16  C15 UNL     1      54.821  55.089 111.546  1.00  0.00     0.264 C
HETATM   17  O4  UNL     1      55.117  54.303 110.601  1.00  0.00    -0.265 OA
BRANCH  16  18
HETATM   18  O5  UNL     1      55.526  54.941 112.730  1.00  0.00    -0.289 OA
BRANCH  18  19
HETATM   19  C16 UNL     1      56.925  54.716 112.753  1.00  0.00     0.272 C
HETATM   20  C17 UNL     1      57.389  54.821 114.172  1.00  0.00     0.096 C
HETATM   21  C18 UNL     1      58.555  55.777 114.328  1.00  0.00     0.158 C
HETATM   22  C23 UNL     1      59.546  55.446 113.211  1.00  0.00     0.176 C
HETATM   23  C24 UNL     1      58.880  55.623 111.898  1.00  0.00     0.151 C
HETATM   24  C25 UNL     1      59.338  54.486 110.985  1.00  0.00     0.042 C
HETATM   25  O8  UNL     1      57.501  55.660 111.918  1.00  0.00    -0.353 OA
BRANCH  21  26
HETATM   26  O6  UNL     1      59.215  55.616 115.517  1.00  0.00    -0.373 OA
BRANCH  26  27
HETATM   27  C19 UNL     1      59.026  56.660 116.411  1.00  0.00     0.050 C
HETATM   28  C20 UNL     1      60.331  57.289 116.849  1.00  0.00     0.045 C
HETATM   29  C21 UNL     1      58.104  57.716 115.864  1.00  0.00     0.045 C
HETATM   30  C22 UNL     1      58.378  56.076 117.652  1.00  0.00     0.045 C
ENDBRANCH  26  27
ENDBRANCH  21  26
BRANCH  22  31
HETATM   31  O7  UNL     1      60.085  54.174 113.392  1.00  0.00    -0.390 OA
ATOM     32  H7  UNL     1      61.034  54.204 113.358  1.00  0.00     0.210 HD
ENDBRANCH  22  31
ENDBRANCH  18  19
ENDBRANCH  16  18
ENDBRANCH  15  16
ENDBRANCH  10  15
BRANCH  11  33
HETATM   33  O9  UNL     1      54.390  59.748 111.659  1.00  0.00    -0.386 OA
ATOM     34  H9  UNL     1      55.210  59.312 111.861  1.00  0.00     0.210 HD
ENDBRANCH  11  33
BRANCH   1  35
HETATM   35  C4  UNL     1      51.092  58.164 111.236  1.00  0.00     0.013 C
BRANCH  35  36
HETATM   36  C3  UNL     1      49.990  58.680 110.368  1.00  0.00     0.001 C
BRANCH  36  37
HETATM   37  C2  UNL     1      50.070  57.853 109.060  1.00  0.00    -0.005 C
HETATM   38  C1  UNL     1      49.962  58.820 107.914  1.00  0.00     0.005 C
ENDBRANCH  36  37
ENDBRANCH  35  36
ENDBRANCH   1  35
BRANCH   1  39
HETATM   39  C6  UNL     1      51.920  60.336 110.755  1.00  0.00     0.008 C
HETATM   40  C7  UNL     1      51.892  61.555 111.610  1.00  0.00     0.006 C
ENDBRANCH   1  39
BRANCH   5  41
HETATM   41  O1  UNL     1      52.868  55.529 115.014  1.00  0.00    -0.346 OA
ATOM     42  H1  UNL     1      53.662  55.237 115.446  1.00  0.00     0.219 HD
ENDBRANCH   5  41
TORSDOF 14
ENDMDL