MODEL 2
REMARK VINA RESULT: -5.053384333      4.901      6.538
REMARK  3 active torsions:
REMARK  status: ('A' for Active; 'I' for Inactive)
REMARK    1  A    between atoms: C2_2  and  C3_3
REMARK    2  A    between atoms: C3_3  and  C4_4
REMARK    3  A    between atoms: C5_5  and  O1_6
ROOT
HETATM    1  C4  UNL     1       3.285 -16.143  -5.637  1.00  0.00     0.038 C
HETATM    2  C5  UNL     1       2.540 -14.876  -5.847  1.00  0.00     0.156 C
HETATM    3  C6  UNL     1       1.446 -14.860  -6.837  1.00  0.00     0.191 A
HETATM    4  O2  UNL     1       0.152 -14.459  -6.170  1.00  0.00    -0.362 OA
HETATM    5  C7  UNL     1       0.318 -15.705  -6.714  1.00  0.00     0.215 A
HETATM    6  S1  UNL     1       0.708 -17.142  -5.695  1.00  0.00    -0.125 SA
HETATM    7  C8  UNL     1       2.505 -17.402  -5.649  1.00  0.00     0.010 C
HETATM    8  C9  UNL     1       2.842 -18.273  -6.841  1.00  0.00     0.027 C
HETATM    9  C10 UNL     1       2.744 -18.261  -4.402  1.00  0.00     0.027 C
ENDROOT
BRANCH   1  10
HETATM   10  C3  UNL     1       4.111 -15.982  -4.363  1.00  0.00     0.035 C
BRANCH  10  11
HETATM   11  C2  UNL     1       5.562 -15.893  -4.637  1.00  0.00    -0.036 C
HETATM   12  C1  UNL     1       6.353 -16.868  -4.253  1.00  0.00     0.007 C
ENDBRANCH  10  11
ENDBRANCH   1  10
BRANCH   2  13
HETATM   13  O1  UNL     1       3.496 -13.923  -6.292  1.00  0.00    -0.392 OA
ATOM     14  H1  UNL     1       3.174 -13.075  -6.012  1.00  0.00     0.210 HD
ENDBRANCH   2  13
TORSDOF 3
ENDMDL