MODEL 5
REMARK VINA RESULT: -5.687660338      2.093      4.934
REMARK  5 active torsions:
REMARK  status: ('A' for Active; 'I' for Inactive)
REMARK    1  A    between atoms: N1_2  and  C2_4
REMARK    2  A    between atoms: C2_4  and  C3_6
REMARK    3  A    between atoms: C7_10  and  N2_11
REMARK    4  A    between atoms: N2_11  and  N3_13
REMARK    5  A    between atoms: N3_13  and  N4_14
ROOT
HETATM    1  C3  UNL     1       3.549 -16.465  -5.728  1.00  0.00     0.249 C
HETATM    2  C4  UNL     1       3.273 -15.057  -5.339  1.00  0.00     0.040 C
HETATM    3  C5  UNL     1       4.587 -14.304  -5.337  1.00  0.00     0.006 C
HETATM    4  C6  UNL     1       5.560 -15.008  -4.455  1.00  0.00     0.057 C
HETATM    5  C7  UNL     1       5.077 -16.300  -3.878  1.00  0.00     0.313 C
HETATM    6  N5  UNL     1       4.419 -17.163  -4.821  1.00  0.00    -0.042 N
ATOM      7  H51 UNL     1       5.100 -17.723  -5.334  1.00  0.00     0.280 HD
ATOM      8  H52 UNL     1       3.915 -17.907  -4.339  1.00  0.00     0.280 HD
ENDROOT
BRANCH   5   9
HETATM    9  N2  UNL     1       6.257 -17.000  -3.355  1.00  0.00    -0.221 N
ATOM     10  H2  UNL     1       6.412 -17.052  -2.348  1.00  0.00     0.199 HD
BRANCH   9  11
HETATM   11  N3  UNL     1       7.050 -17.519  -4.114  1.00  0.00    -0.247 NA
BRANCH  11  12
HETATM   12  N4  UNL     1       7.728 -17.931  -5.036  1.00  0.00    -0.261 N
ATOM     13  H42 UNL     1       8.558 -17.553  -4.578  1.00  0.00     0.193 HD
ATOM     14  H41 UNL     1       8.132 -18.340  -5.878  1.00  0.00     0.193 HD
ENDBRANCH  11  12
ENDBRANCH   9  11
ENDBRANCH   5   9
BRANCH   1  15
HETATM   15  C2  UNL     1       2.275 -17.173  -5.963  1.00  0.00     0.104 C
HETATM   16  S1  UNL     1       2.035 -18.606  -5.230  1.00  0.00    -0.063 SA
BRANCH  15  17
HETATM   17  N1  UNL     1       1.271 -16.642  -6.799  1.00  0.00    -0.387 N
HETATM   18  C1  UNL     1      -0.115 -16.741  -6.438  1.00  0.00     0.147 C
ATOM     19  H1  UNL     1       1.533 -16.181  -7.671  1.00  0.00     0.159 HD
ENDBRANCH  15  17
ENDBRANCH   1  15
TORSDOF 5
ENDMDL