MODEL 1
REMARK VINA RESULT: -6.480231891      0.000      0.000
REMARK  2 active torsions:
REMARK  status: ('A' for Active; 'I' for Inactive)
REMARK    1  A    between atoms: C2_2  and  N1_4
REMARK    2  A    between atoms: C6_7  and  C7_8
ROOT
HETATM    1  C7  UNL     1       2.436 -16.057  -5.825  1.00  0.00     0.217 C
HETATM    2  C8  UNL     1       2.575 -17.540  -5.967  1.00  0.00     0.265 C
HETATM    3  N2  UNL     1       1.276 -18.117  -6.198  1.00  0.00    -0.072 N
ATOM      4  H21 UNL     1       1.159 -18.980  -5.666  1.00  0.00     0.277 HD
ATOM      5  H22 UNL     1       1.207 -18.495  -7.143  1.00  0.00     0.277 HD
HETATM    6  C9  UNL     1       0.196 -17.195  -5.931  1.00  0.00     0.259 C
HETATM    7  C10 UNL     1       0.300 -15.929  -6.743  1.00  0.00     0.260 C
HETATM    8  N3  UNL     1       1.706 -15.554  -6.950  1.00  0.00    -0.067 N
ATOM      9  H31 UNL     1       2.079 -15.870  -7.845  1.00  0.00     0.277 HD
ATOM     10  H32 UNL     1       1.838 -14.554  -7.101  1.00  0.00     0.277 HD
ENDROOT
BRANCH   1  11
HETATM   11  C6  UNL     1       3.735 -15.330  -5.670  1.00  0.00     0.048 C
HETATM   12  C5  UNL     1       4.615 -15.863  -4.595  1.00  0.00     0.038 C
HETATM   13  C4  UNL     1       5.596 -14.693  -4.423  1.00  0.00     0.273 C
HETATM   14  N1  UNL     1       4.909 -13.529  -4.852  1.00  0.00     0.092 N
HETATM   15  C11 UNL     1       3.590 -13.891  -5.322  1.00  0.00     0.279 C
BRANCH  14  16
HETATM   16  C2  UNL     1       5.593 -12.740  -5.837  1.00  0.00     0.215 C
HETATM   17  C1  UNL     1       6.704 -13.439  -6.534  1.00  0.00     0.042 C
HETATM   18  C3  UNL     1       6.130 -11.476  -5.212  1.00  0.00     0.042 C
ENDBRANCH  14  16
ENDBRANCH   1  11
TORSDOF 2
ENDMDL