MODEL 2
REMARK VINA RESULT: -4.945421002      2.689      4.192
REMARK  3 active torsions:
REMARK  status: ('A' for Active; 'I' for Inactive)
REMARK    1  A    between atoms: C2_2  and  N1_4
REMARK    2  A    between atoms: N1_4  and  C5_6
REMARK    3  A    between atoms: C10_14  and  O1_16
ROOT
HETATM    1  C5  UNL     1       4.794 -11.102  -4.468  1.00  0.00     0.115 C
HETATM    2  C6  UNL     1       3.406 -10.457  -4.299  1.00  0.00     0.061 C
HETATM    3  C7  UNL     1       3.655  -9.061  -3.796  1.00  0.00     0.196 A
HETATM    4  N2  UNL     1       3.215  -7.986  -4.666  1.00  0.00    -0.070 N
ATOM      5  H21 UNL     1       2.577  -7.285  -4.290  1.00  0.00     0.277 HD
ATOM      6  H22 UNL     1       2.572  -8.207  -5.426  1.00  0.00     0.277 HD
HETATM    7  C8  UNL     1       4.561  -7.586  -4.995  1.00  0.00     0.242 A
HETATM    8  C9  UNL     1       5.063  -8.759  -4.187  1.00  0.00     0.078 A
HETATM    9  C10 UNL     1       5.546  -9.937  -5.031  1.00  0.00     0.081 C
HETATM   10  C11 UNL     1       7.052 -10.026  -4.739  1.00  0.00     0.048 C
ENDROOT
BRANCH   1  11
HETATM   11  N1  UNL     1       4.641 -12.222  -5.280  1.00  0.00    -0.406 N
HETATM   12  C4  UNL     1       3.257 -12.524  -5.549  1.00  0.00     0.144 C
BRANCH  11  13
HETATM   13  C2  UNL     1       5.348 -13.411  -5.069  1.00  0.00     0.071 C
HETATM   14  C1  UNL     1       4.481 -14.662  -5.105  1.00  0.00     0.031 C
HETATM   15  C3  UNL     1       6.379 -13.571  -6.162  1.00  0.00     0.031 C
ENDBRANCH  11  13
ENDBRANCH   1  11
BRANCH   9  16
HETATM   16  O1  UNL     1       5.266  -9.630  -6.338  1.00  0.00    -0.388 OA
ATOM     17  H1  UNL     1       5.458  -8.737  -6.599  1.00  0.00     0.210 HD
ENDBRANCH   9  16
TORSDOF 3
ENDMDL