MODEL 3
REMARK VINA RESULT: -5.613858886      2.671      5.688
REMARK  4 active torsions:
REMARK  status: ('A' for Active; 'I' for Inactive)
REMARK    1  A    between atoms: C2_2  and  N2_6
REMARK    2  A    between atoms: N2_6  and  C5_8
REMARK    3  A    between atoms: C5_8  and  N3_10
REMARK    4  A    between atoms: N3_10  and  C6_12
ROOT
HETATM    1  C1  UNL     1       6.781  -8.046  -4.917  1.00  0.00     0.055 C
HETATM    2  C2  UNL     1       6.757  -9.519  -4.581  1.00  0.00     0.114 C
HETATM    3  C3  UNL     1       6.459  -9.653  -3.109  1.00  0.00     0.055 C
HETATM    4  C4  UNL     1       8.100 -10.036  -4.845  1.00  0.00     0.090 C
HETATM    5  N1  UNL     1       9.146 -10.459  -5.056  1.00  0.00    -0.195 NA
ENDROOT
BRANCH   2   6
HETATM    6  N2  UNL     1       5.763 -10.191  -5.354  1.00  0.00    -0.346 N
ATOM      7  H2  UNL     1       5.669  -9.958  -6.343  1.00  0.00     0.163 HD
BRANCH   6   8
HETATM    8  C5  UNL     1       4.884 -11.193  -4.784  1.00  0.00     0.170 C
HETATM    9  S1  UNL     1       3.327 -10.725  -4.668  1.00  0.00    -0.041 SA
BRANCH   8  10
HETATM   10  N3  UNL     1       5.392 -12.438  -4.383  1.00  0.00    -0.345 N
ATOM     11  H3  UNL     1       5.762 -12.476  -3.434  1.00  0.00     0.163 HD
BRANCH  10  12
HETATM   12  C6  UNL     1       5.463 -13.661  -5.119  1.00  0.00     0.121 A
HETATM   13  C7  UNL     1       6.318 -13.627  -6.346  1.00  0.00     0.091 C
HETATM   14  N4  UNL     1       6.988 -13.601  -7.288  1.00  0.00    -0.195 NA
HETATM   15  C8  UNL     1       4.274 -14.532  -5.214  1.00  0.00     0.050 A
HETATM   16  C9  UNL     1       5.497 -14.966  -4.437  1.00  0.00     0.050 A
ENDBRANCH  10  12
ENDBRANCH   8  10
ENDBRANCH   6   8
ENDBRANCH   2   6
TORSDOF 4
ENDMDL