MODEL 2
REMARK VINA RESULT: -5.795837284      0.206      1.921
REMARK  4 active torsions:
REMARK  status: ('A' for Active; 'I' for Inactive)
REMARK    1  A    between atoms: N1_2  and  C2_3
REMARK    2  A    between atoms: N1_2  and  C3_8
REMARK    3  A    between atoms: C2_3  and  O1_4
REMARK    4  A    between atoms: O1_4  and  N2_5
ROOT
HETATM    1  C3  UNL     1       4.907 -12.778  -4.930  1.00  0.00     0.030 C
HETATM    2  C4  UNL     1       5.911 -12.022  -5.797  1.00  0.00     0.035 C
HETATM    3  C5  UNL     1       5.929 -10.569  -5.441  1.00  0.00    -0.012 C
HETATM    4  C6  UNL     1       4.598  -9.935  -5.815  1.00  0.00     0.009 C
HETATM    5  C7  UNL     1       3.529 -10.674  -5.057  1.00  0.00    -0.012 C
HETATM    6  C8  UNL     1       3.664 -10.539  -3.554  1.00  0.00     0.009 C
HETATM    7  C9  UNL     1       5.021 -11.041  -3.168  1.00  0.00    -0.012 C
HETATM    8  C10 UNL     1       6.111 -10.309  -3.954  1.00  0.00     0.009 C
HETATM    9  C11 UNL     1       5.231 -12.500  -3.486  1.00  0.00     0.035 C
HETATM   10  C12 UNL     1       3.553 -12.161  -5.337  1.00  0.00     0.035 C
ENDROOT
BRANCH   1  11
HETATM   11  N1  UNL     1       4.818 -14.144  -5.224  1.00  0.00    -0.386 N
HETATM   12  C1  UNL     1       3.504 -14.642  -5.542  1.00  0.00     0.146 C
BRANCH  11  13
HETATM   13  C2  UNL     1       5.490 -15.096  -4.411  1.00  0.00     0.321 C
BRANCH  13  14
HETATM   14  O1  UNL     1       6.561 -15.588  -5.152  1.00  0.00    -0.268 OA
BRANCH  14  15
HETATM   15  N2  UNL     1       6.936 -16.827  -4.868  1.00  0.00    -0.309 N
ATOM     16  H22 UNL     1       7.165 -17.105  -3.914  1.00  0.00     0.184 HD
ATOM     17  H21 UNL     1       6.975 -17.469  -5.659  1.00  0.00     0.184 HD
ENDBRANCH  14  15
ENDBRANCH  13  14
ENDBRANCH  11  13
ENDBRANCH   1  11
TORSDOF 4
ENDMDL