MODEL 2
REMARK VINA RESULT: -5.093233701      2.928      4.544
REMARK  4 active torsions:
REMARK  status: ('A' for Active; 'I' for Inactive)
REMARK    1  A    between atoms: C2_2  and  C4_4
REMARK    2  A    between atoms: C4_4  and  N1_5
REMARK    3  A    between atoms: N2_10  and  C6_11
REMARK    4  A    between atoms: C11_16  and  O1_17
ROOT
HETATM    1  C4  UNL     1       5.266 -14.344  -5.279  1.00  0.00     0.179 C
HETATM    2  C5  UNL     1       4.116 -15.120  -5.879  1.00  0.00     0.314 C
HETATM    3  N2  UNL     1       3.946 -16.241  -4.994  1.00  0.00     0.098 N
HETATM    4  C10 UNL     1       5.325 -16.634  -4.766  1.00  0.00     0.307 C
HETATM    5  C11 UNL     1       5.914 -15.311  -4.294  1.00  0.00     0.184 C
ENDROOT
BRANCH   1   6
HETATM    6  C2  UNL     1       4.798 -13.089  -4.587  1.00  0.00     0.018 C
HETATM    7  C1  UNL     1       3.544 -12.616  -5.290  1.00  0.00     0.012 C
HETATM    8  C3  UNL     1       5.812 -11.989  -4.622  1.00  0.00     0.012 C
ENDBRANCH   1   6
BRANCH   1   9
HETATM    9  N1  UNL     1       6.259 -14.002  -6.257  1.00  0.00    -0.066 N
ATOM     10  H13 UNL     1       6.335 -14.704  -6.992  1.00  0.00     0.275 HD
ATOM     11  H12 UNL     1       5.974 -13.214  -6.838  1.00  0.00     0.275 HD
ATOM     12  H11 UNL     1       7.150 -13.835  -5.788  1.00  0.00     0.275 HD
ENDBRANCH   1   9
BRANCH   5  13
HETATM   13  O1  UNL     1       5.442 -15.118  -2.997  1.00  0.00    -0.391 OA
ATOM     14  H1  UNL     1       4.684 -15.662  -2.815  1.00  0.00     0.210 HD
ENDBRANCH   5  13
BRANCH   3  15
HETATM   15  C6  UNL     1       3.259 -17.353  -5.586  1.00  0.00     0.223 C
HETATM   16  C7  UNL     1       1.818 -17.102  -5.973  1.00  0.00     0.036 C
HETATM   17  C8  UNL     1       1.535 -18.533  -5.523  1.00  0.00     0.004 C
HETATM   18  C9  UNL     1       2.744 -18.377  -4.596  1.00  0.00     0.036 C
ENDBRANCH   3  15
TORSDOF 4
ENDMDL