MODEL 4
REMARK VINA RESULT: -4.722249149      2.256      3.763
REMARK  4 active torsions:
REMARK  status: ('A' for Active; 'I' for Inactive)
REMARK    1  A    between atoms: N1_6  and  C6_7
REMARK    2  A    between atoms: C6_7  and  C7_8
REMARK    3  A    between atoms: C7_8  and  O1_9
REMARK    4  A    between atoms: N2_14  and  O2_15
ROOT
HETATM    1  C1  UNL     1       7.130 -17.340  -4.612  1.00  0.00     0.040 C
HETATM    2  C2  UNL     1       5.793 -16.850  -4.066  1.00  0.00     0.051 C
HETATM    3  C3  UNL     1       5.596 -17.600  -2.752  1.00  0.00     0.040 C
HETATM    4  C4  UNL     1       4.696 -17.272  -4.998  1.00  0.00     0.052 C
HETATM    5  C5  UNL     1       3.464 -16.384  -4.861  1.00  0.00     0.122 C
HETATM    6  N1  UNL     1       3.750 -15.003  -5.032  1.00  0.00    -0.385 N
HETATM    7  C8  UNL     1       5.089 -14.611  -4.697  1.00  0.00     0.117 C
HETATM    8  C9  UNL     1       4.981 -13.265  -3.981  1.00  0.00     0.064 C
HETATM    9  C10 UNL     1       5.990 -14.410  -5.880  1.00  0.00     0.064 C
HETATM   10  N2  UNL     1       5.759 -15.467  -3.778  1.00  0.00    -0.259 N
ENDROOT
BRANCH   6  11
HETATM   11  C6  UNL     1       3.219 -14.370  -6.186  1.00  0.00     0.145 C
BRANCH  11  12
HETATM   12  C7  UNL     1       1.797 -14.689  -6.531  1.00  0.00     0.183 C
BRANCH  12  13
HETATM   13  O1  UNL     1       0.930 -13.628  -6.526  1.00  0.00    -0.399 OA
ATOM     14  H1  UNL     1       0.205 -13.683  -7.139  1.00  0.00     0.209 HD
ENDBRANCH  12  13
ENDBRANCH  11  12
ENDBRANCH   6  11
BRANCH  10  15
HETATM   15  O2  UNL     1       5.678 -15.125  -2.497  1.00  0.00    -0.289 OA
ATOM     16  H2  UNL     1       6.496 -14.931  -2.054  1.00  0.00     0.244 HD
ENDBRANCH  10  15
TORSDOF 4
ENDMDL