MODEL 2
REMARK VINA RESULT: -5.299589490      1.668      2.182
REMARK  4 active torsions:
REMARK  status: ('A' for Active; 'I' for Inactive)
REMARK    1  A    between atoms: C5_5  and  C6_6
REMARK    2  A    between atoms: C6_6  and  N1_7
REMARK    3  A    between atoms: C6_6  and  C8_13
REMARK    4  A    between atoms: C8_13  and  N3_14
ROOT
HETATM    1  C6  UNL     1       3.981  -9.185  -3.438  1.00  0.00     0.264 C
HETATM    2  C7  UNL     1       3.448  -8.093  -4.210  1.00  0.00     0.102 C
HETATM    3  N2  UNL     1       3.014  -7.209  -4.811  1.00  0.00    -0.194 NA
ENDROOT
BRANCH   1   4
HETATM    4  C5  UNL     1       4.265 -10.411  -4.186  1.00  0.00     0.274 C
HETATM    5  C4  UNL     1       3.383 -10.818  -5.298  1.00  0.00     0.040 C
HETATM    6  C3  UNL     1       3.427 -12.361  -5.370  1.00  0.00     0.008 C
HETATM    7  C2  UNL     1       4.874 -12.757  -5.479  1.00  0.00     0.010 C
HETATM    8  C1  UNL     1       5.261 -13.797  -4.424  1.00  0.00     0.011 C
HETATM    9  C10 UNL     1       5.835 -11.641  -5.520  1.00  0.00     0.276 C
HETATM   10  N4  UNL     1       5.635 -10.555  -4.632  1.00  0.00     0.092 N
HETATM   11  C9  UNL     1       6.153  -9.373  -5.277  1.00  0.00     0.310 C
ENDBRANCH   1   4
BRANCH   1  12
HETATM   12  N1  UNL     1       5.240  -8.806  -2.743  1.00  0.00    -0.053 N
ATOM     13  H13 UNL     1       5.106  -8.090  -2.030  1.00  0.00     0.276 HD
ATOM     14  H12 UNL     1       5.594  -9.537  -2.125  1.00  0.00     0.276 HD
ATOM     15  H11 UNL     1       5.905  -8.534  -3.468  1.00  0.00     0.276 HD
ENDBRANCH   1  12
BRANCH   1  16
HETATM   16  C8  UNL     1       3.040  -9.441  -2.280  1.00  0.00     0.286 C
BRANCH  16  17
HETATM   17  N3  UNL     1       2.212  -8.344  -1.891  1.00  0.00    -0.076 N
ATOM     18  H33 UNL     1       2.503  -7.500  -2.383  1.00  0.00     0.274 HD
ATOM     19  H32 UNL     1       1.274  -8.466  -2.272  1.00  0.00     0.274 HD
ATOM     20  H31 UNL     1       2.156  -8.158  -0.889  1.00  0.00     0.274 HD
ENDBRANCH  16  17
ENDBRANCH   1  16
TORSDOF 4
ENDMDL