MODEL 3
REMARK VINA RESULT: -5.844024429      1.433      1.932
REMARK  6 active torsions:
REMARK  status: ('A' for Active; 'I' for Inactive)
REMARK    1  A    between atoms: O1_2  and  C2_3
REMARK    2  A    between atoms: C3_4  and  O2_5
REMARK    3  A    between atoms: C6_9  and  C7_10
REMARK    4  A    between atoms: C8_11  and  C9_12
REMARK    5  A    between atoms: C9_12  and  C12_15
REMARK    6  A    between atoms: C12_15  and  O3_16
ROOT
HETATM    1  C2  UNL     1       5.911 -11.964  -5.580  1.00  0.00     0.165 C
HETATM    2  C3  UNL     1       5.129 -10.755  -5.977  1.00  0.00     0.148 C
HETATM    3  C4  UNL     1       3.747 -10.878  -5.397  1.00  0.00     0.036 C
HETATM    4  C5  UNL     1       3.663 -12.350  -5.048  1.00  0.00     0.022 C
HETATM    5  C6  UNL     1       5.064 -12.586  -4.492  1.00  0.00     0.096 C
ENDROOT
BRANCH   5   6
HETATM    6  C7  UNL     1       5.282 -14.004  -4.336  1.00  0.00    -0.098 C
HETATM    7  C8  UNL     1       5.468 -15.177  -4.187  1.00  0.00    -0.095 C
BRANCH   7   8
HETATM    8  C9  UNL     1       5.693 -16.611  -3.978  1.00  0.00     0.037 C
HETATM    9  C10 UNL     1       6.965 -17.090  -4.625  1.00  0.00     0.031 C
HETATM   10  C11 UNL     1       4.528 -17.352  -4.564  1.00  0.00     0.031 C
BRANCH   8  11
HETATM   11  C12 UNL     1       5.749 -16.873  -2.492  1.00  0.00     0.185 C
BRANCH  11  12
HETATM   12  O3  UNL     1       5.391 -18.195  -2.229  1.00  0.00    -0.399 OA
ATOM     13  H3  UNL     1       4.446 -18.267  -2.163  1.00  0.00     0.209 HD
ENDBRANCH  11  12
ENDBRANCH   8  11
ENDBRANCH   7   8
ENDBRANCH   5   6
BRANCH   1  14
HETATM   14  O1  UNL     1       6.008 -12.832  -6.657  1.00  0.00    -0.387 OA
HETATM   15  C1  UNL     1       7.144 -12.477  -7.380  1.00  0.00     0.202 C
ENDBRANCH   1  14
BRANCH   2  16
HETATM   16  O2  UNL     1       5.804  -9.629  -5.511  1.00  0.00    -0.393 OA
ATOM     17  H2  UNL     1       5.309  -8.860  -5.769  1.00  0.00     0.210 HD
ENDBRANCH   2  16
TORSDOF 6
ENDMDL