MODEL 5
REMARK VINA RESULT: -6.856918667      1.115      1.185
REMARK  5 active torsions:
REMARK  status: ('A' for Active; 'I' for Inactive)
REMARK    1  A    between atoms: C6_12  and  C7_13
REMARK    2  A    between atoms: C7_13  and  C8_14
REMARK    3  A    between atoms: C10_18  and  N4_19
REMARK    4  A    between atoms: N4_19  and  C13_22
REMARK    5  A    between atoms: C13_22  and  C14_23
ROOT
HETATM    1  C1  UNL     1       8.798  17.663  51.483  1.00  0.00     0.019 C
HETATM    2  C2  UNL     1       8.336  18.776  51.307  1.00  0.00    -0.059 C
HETATM    3  C3  UNL     1       7.813  20.105  51.140  1.00  0.00     0.102 A
HETATM    4  N1  UNL     1       8.694  21.006  50.673  1.00  0.00    -0.301 N
ATOM      5  H1  UNL     1       9.628  20.714  50.384  1.00  0.00     0.171 HD
HETATM    6  C4  UNL     1       8.330  22.289  50.594  1.00  0.00     0.328 A
HETATM    7  O1  UNL     1       9.176  23.114  50.150  1.00  0.00    -0.247 OA
HETATM    8  N2  UNL     1       7.105  22.655  50.975  1.00  0.00    -0.275 N
ATOM      9  H2  UNL     1       6.846  23.639  50.906  1.00  0.00     0.173 HD
HETATM   10  C5  UNL     1       6.189  21.775  51.450  1.00  0.00     0.258 A
HETATM   11  O2  UNL     1       5.098  22.281  51.770  1.00  0.00    -0.267 OA
HETATM   12  C6  UNL     1       6.510  20.454  51.549  1.00  0.00     0.050 A
ENDROOT
BRANCH  12  13
HETATM   13  C7  UNL     1       5.587  19.423  52.002  1.00  0.00     0.088 C
BRANCH  13  14
HETATM   14  C8  UNL     1       4.444  19.021  51.169  1.00  0.00    -0.029 A
HETATM   15  C9  UNL     1       3.209  19.621  51.241  1.00  0.00     0.097 A
HETATM   16  N3  UNL     1       2.392  18.983  50.388  1.00  0.00    -0.345 N
HETATM   17  C10 UNL     1       3.056  17.987  49.758  1.00  0.00     0.213 A
ATOM     18  H3  UNL     1       1.410  19.216  50.237  1.00  0.00     0.166 HD
HETATM   19  C15 UNL     1       4.350  17.980  50.224  1.00  0.00    -0.002 A
HETATM   20  C16 UNL     1       5.458  17.123  49.852  1.00  0.00     0.052 C
BRANCH  17  21
HETATM   21  N4  UNL     1       2.438  17.160  48.822  1.00  0.00    -0.029 N
HETATM   22  C11 UNL     1       3.175  16.737  47.680  1.00  0.00     0.281 C
HETATM   23  C12 UNL     1       1.979  15.917  49.567  1.00  0.00     0.281 C
BRANCH  21  24
HETATM   24  C13 UNL     1       1.199  17.716  48.376  1.00  0.00     0.255 C
BRANCH  24  25
HETATM   25  C14 UNL     1       1.015  17.852  46.903  1.00  0.00     0.113 C
HETATM   26 BR1  UNL     1       1.118  19.652  46.220  1.00  0.00    -0.095 Br
ENDBRANCH  24  25
ENDBRANCH  21  24
ENDBRANCH  17  21
ENDBRANCH  13  14
ENDBRANCH  12  13
TORSDOF 5
ENDMDL