MODEL 1
REMARK VINA RESULT: -6.655013194      0.000      0.000
REMARK  5 active torsions:
REMARK  status: ('A' for Active; 'I' for Inactive)
REMARK    1  A    between atoms: N1_2  and  C2_3
REMARK    2  A    between atoms: C2_3  and  C3_4
REMARK    3  A    between atoms: C7_13  and  C8_14
REMARK    4  A    between atoms: C8_14  and  C9_15
REMARK    5  A    between atoms: C9_15  and  N3_16
REMARK       I    between atoms: N3_16  and  C10_18
ROOT
HETATM    1  C3  UNL     1       6.303  18.533  50.883  1.00  0.00     0.056 C
HETATM    2 BR1  UNL     1       5.833  16.762  50.257  1.00  0.00    -0.083 Br
HETATM    3  C4  UNL     1       6.227  18.508  52.376  1.00  0.00     0.081 C
HETATM    4  C5  UNL     1       7.274  17.468  52.691  1.00  0.00     0.022 C
HETATM    5  N2  UNL     1       7.337  16.749  53.754  1.00  0.00    -0.401 N
ATOM      6  H21 UNL     1       8.045  16.047  53.967  1.00  0.00     0.156 HD
ATOM      7  H22 UNL     1       6.690  16.774  54.542  1.00  0.00     0.156 HD
HETATM    8  C6  UNL     1       8.196  17.434  51.567  1.00  0.00     0.037 C
HETATM    9  S1  UNL     1       9.392  16.397  51.246  1.00  0.00    -0.082 SA
HETATM   10  C7  UNL     1       7.819  18.609  50.689  1.00  0.00     0.054 C
ENDROOT
BRANCH  10  11
HETATM   11  C8  UNL     1       8.429  19.863  51.244  1.00  0.00     0.031 C
BRANCH  11  12
HETATM   12  C9  UNL     1       9.227  20.592  50.152  1.00  0.00     0.123 C
BRANCH  12  13
HETATM   13  N3  UNL     1       8.873  21.994  50.094  1.00  0.00    -0.365 N
HETATM   14  C10 UNL     1       9.249  22.804  48.987  1.00  0.00     0.181 C
HETATM   15  N4  UNL     1      10.228  22.411  48.255  1.00  0.00    -0.374 N
HETATM   16  N5  UNL     1       8.550  24.009  48.716  1.00  0.00    -0.064 NA
ATOM     17  H42 UNL     1      10.729  21.545  48.449  1.00  0.00     0.158 HD
ATOM     18  H41 UNL     1      10.497  22.992  47.461  1.00  0.00     0.158 HD
ATOM     19  H3  UNL     1       8.345  22.409  50.861  1.00  0.00     0.162 HD
ENDBRANCH  12  13
ENDBRANCH  11  12
ENDBRANCH  10  11
BRANCH   1  20
HETATM   20  C2  UNL     1       5.653  19.630  50.177  1.00  0.00     0.259 C
BRANCH  20  21
HETATM   21  N1  UNL     1       4.278  19.878  50.353  1.00  0.00    -0.069 N
HETATM   22  C1  UNL     1       3.943  21.275  50.545  1.00  0.00     0.272 C
HETATM   23  C11 UNL     1       3.591  19.474  49.110  1.00  0.00     0.237 C
HETATM   24  C12 UNL     1       2.125  19.438  49.477  1.00  0.00     0.029 C
HETATM   25  C13 UNL     1       2.112  19.528  50.988  1.00  0.00     0.029 C
HETATM   26  C14 UNL     1       3.559  19.094  51.302  1.00  0.00     0.237 C
ENDBRANCH  20  21
ENDBRANCH   1  20
TORSDOF 5
ENDMDL