MODEL 3
REMARK VINA RESULT: -6.672053471      5.434      7.270
REMARK  6 active torsions:
REMARK  status: ('A' for Active; 'I' for Inactive)
REMARK    1  A    between atoms: C9_12  and  C10_13
REMARK    2  A    between atoms: C10_13  and  N2_14
REMARK    3  A    between atoms: N2_14  and  C11_15
REMARK    4  A    between atoms: N2_14  and  C13_17
REMARK    5  A    between atoms: C13_17  and  C14_18
REMARK    6  A    between atoms: C14_18  and  O1_19
ROOT
HETATM    1  C1  UNL     1      10.365  22.198  47.525  1.00  0.00     0.043 C
HETATM    2  C2  UNL     1       9.628  22.166  48.616  1.00  0.00     0.024 A
HETATM    3  C3  UNL     1       9.182  23.374  49.275  1.00  0.00     0.029 A
HETATM    4  C4  UNL     1       8.444  23.302  50.365  1.00  0.00     0.017 A
HETATM    5  C5  UNL     1       8.047  22.019  50.949  1.00  0.00     0.009 A
HETATM    6  C6  UNL     1       7.282  22.037  52.093  1.00  0.00     0.032 A
HETATM    7  C7  UNL     1       6.929  20.819  52.627  1.00  0.00     0.028 A
HETATM    8  C8  UNL     1       6.178  20.541  53.780  1.00  0.00     0.093 A
HETATM    9 BR1  UNL     1       5.410  21.848  54.955  1.00  0.00    -0.030 Br
HETATM   10  N1  UNL     1       6.139  19.212  53.859  1.00  0.00    -0.347 N
ATOM     11  H1  UNL     1       5.661  18.697  54.598  1.00  0.00     0.167 HD
HETATM   12  C9  UNL     1       6.806  18.630  52.846  1.00  0.00     0.076 A
HETATM   13  C15 UNL     1       7.341  19.655  52.014  1.00  0.00     0.077 A
HETATM   14  N3  UNL     1       8.091  19.659  50.892  1.00  0.00    -0.334 N
HETATM   15  C16 UNL     1       8.508  18.451  50.247  1.00  0.00     0.158 C
HETATM   16  C17 UNL     1       8.466  20.852  50.329  1.00  0.00     0.118 A
HETATM   17  N4  UNL     1       9.263  20.877  49.154  1.00  0.00    -0.342 N
ATOM     18  H4  UNL     1       9.567  20.013  48.704  1.00  0.00     0.167 HD
ENDROOT
BRANCH  12  19
HETATM   19  C10 UNL     1       7.043  17.230  52.554  1.00  0.00     0.121 C
BRANCH  19  20
HETATM   20  N2  UNL     1       5.942  16.412  52.084  1.00  0.00    -0.366 N
BRANCH  20  21
HETATM   21  C11 UNL     1       6.061  15.078  52.531  1.00  0.00     0.123 C
HETATM   22  C12 UNL     1       6.209  15.163  54.068  1.00  0.00     0.027 C
ENDBRANCH  20  21
BRANCH  20  23
HETATM   23  C13 UNL     1       5.426  16.730  50.839  1.00  0.00     0.089 C
BRANCH  23  24
HETATM   24  C14 UNL     1       5.658  15.742  49.730  1.00  0.00     0.208 C
BRANCH  24  25
HETATM   25  O1  UNL     1       6.595  16.061  48.788  1.00  0.00    -0.396 OA
ATOM     26  H1  UNL     1       6.284  16.294  47.921  1.00  0.00     0.209 HD
ENDBRANCH  24  25
ENDBRANCH  23  24
ENDBRANCH  20  23
ENDBRANCH  19  20
ENDBRANCH  12  19
TORSDOF 6
ENDMDL