MODEL 2
REMARK VINA RESULT: -7.655919577      1.383      1.745
REMARK  8 active torsions:
REMARK  status: ('A' for Active; 'I' for Inactive)
REMARK    1  A    between atoms: C3_3  and  O1_4
REMARK    2  A    between atoms: O1_4  and  C4_5
REMARK    3  A    between atoms: C5_6  and  C6_7
REMARK    4  A    between atoms: C6_7  and  C7_8
REMARK    5  A    between atoms: C10_13  and  C11_14
REMARK    6  A    between atoms: C11_14  and  C12_15
REMARK    7  A    between atoms: C15_21  and  N3_22
REMARK    8  A    between atoms: N3_22  and  C16_24
ROOT
HETATM    1  C1  UNL     1       3.863  15.535  50.624  1.00  0.00     0.099 C
HETATM    2  C2  UNL     1       4.829  15.839  51.305  1.00  0.00    -0.161 C
HETATM    3  C3  UNL     1       5.996  16.180  52.128  1.00  0.00     0.255 C
ENDROOT
BRANCH   3   4
HETATM    4  O1  UNL     1       6.060  17.585  52.243  1.00  0.00    -0.333 OA
BRANCH   4   5
HETATM    5  C4  UNL     1       6.831  18.402  51.435  1.00  0.00     0.166 A
HETATM    6  C5  UNL     1       6.205  19.277  50.572  1.00  0.00     0.090 A
HETATM    7  N2  UNL     1       6.995  20.052  49.804  1.00  0.00    -0.189 N
HETATM    8  C15 UNL     1       8.337  20.011  49.842  1.00  0.00     0.685 A
ATOM      9  H2  UNL     1       6.551  20.705  49.160  1.00  0.00     0.184 HD
HETATM   10  N4  UNL     1       8.946  19.157  50.683  1.00  0.00    -0.153 N
HETATM   11  C19 UNL     1       8.218  18.347  51.485  1.00  0.00     0.295 A
ATOM     12  H4  UNL     1       9.966  19.119  50.717  1.00  0.00     0.187 HD
HETATM   13  O2  UNL     1       8.808  17.555  52.265  1.00  0.00    -0.264 OA
BRANCH   6  14
HETATM   14  C6  UNL     1       4.749  19.349  50.504  1.00  0.00     0.064 C
BRANCH  14  15
HETATM   15  C7  UNL     1       4.077  19.016  49.410  1.00  0.00     0.057 A
HETATM   16  N1  UNL     1       4.505  18.355  48.333  1.00  0.00    -0.355 N
HETATM   17  C8  UNL     1       3.527  18.208  47.428  1.00  0.00     0.031 A
ATOM     18  H1  UNL     1       5.456  18.005  48.213  1.00  0.00     0.166 HD
HETATM   19  C9  UNL     1       3.626  17.600  46.255  1.00  0.00     0.043 C
HETATM   20  C10 UNL     1       2.391  18.804  47.936  1.00  0.00    -0.008 A
HETATM   21  C14 UNL     1       2.751  19.302  49.171  1.00  0.00     0.069 A
HETATM   22 CL1  UNL     1       1.678  20.169  50.268  1.00  0.00    -0.081 Cl
BRANCH  20  23
HETATM   23  C11 UNL     1       1.057  18.903  47.310  1.00  0.00     0.042 C
BRANCH  23  24
HETATM   24  C12 UNL     1       0.969  20.097  46.361  1.00  0.00     0.000 C
HETATM   25  C13 UNL     1       0.751  19.534  44.978  1.00  0.00     0.005 C
ENDBRANCH  23  24
ENDBRANCH  20  23
ENDBRANCH  14  15
ENDBRANCH   6  14
BRANCH   8  26
HETATM   26  N3  UNL     1       9.031  20.781  49.081  1.00  0.00    -0.196 N
ATOM     27  H3  UNL     1       9.520  20.344  48.300  1.00  0.00     0.184 HD
BRANCH  26  28
HETATM   28  C16 UNL     1       9.173  22.164  49.232  1.00  0.00     0.013 C
HETATM   29  C17 UNL     1       9.767  22.874  48.312  1.00  0.00     0.038 C
HETATM   30  C18 UNL     1       8.651  22.840  50.437  1.00  0.00     0.068 C
ENDBRANCH  26  28
ENDBRANCH   8  26
ENDBRANCH   4   5
ENDBRANCH   3   4
TORSDOF 8
ENDMDL