MODEL 3
REMARK VINA RESULT: -7.223425224      5.112      6.655
REMARK  7 active torsions:
REMARK  status: ('A' for Active; 'I' for Inactive)
REMARK    1  A    between atoms: C2_2  and  C4_4
REMARK    2  A    between atoms: C4_4  and  N1_6
REMARK    3  A    between atoms: N1_6  and  C8_9
REMARK    4  A    between atoms: C8_9  and  C9_10
REMARK    5  A    between atoms: C9_10  and  N2_11
REMARK    6  A    between atoms: C12_14  and  C13_15
REMARK    7  A    between atoms: C14_18  and  N4_19
ROOT
HETATM    1  N2  UNL     1       7.648  19.988  51.578  1.00  0.00    -0.349 N
HETATM    2  C10 UNL     1       8.845  19.784  51.033  1.00  0.00     0.092 A
HETATM    3  C11 UNL     1       9.338  20.679  50.117  1.00  0.00     0.032 A
HETATM    4  C12 UNL     1       8.607  21.810  49.740  1.00  0.00     0.014 A
HETATM    5  C15 UNL     1       7.388  21.995  50.310  1.00  0.00     0.053 A
HETATM    6  C16 UNL     1       6.918  21.062  51.239  1.00  0.00     0.082 A
HETATM    7 BR1  UNL     1       5.191  21.440  51.964  1.00  0.00    -0.031 Br
ENDROOT
BRANCH   4   8
HETATM    8  C13 UNL     1       9.150  22.747  48.766  1.00  0.00     0.146 A
HETATM    9  N3  UNL     1       8.647  23.939  48.436  1.00  0.00    -0.174 N
HETATM   10  C14 UNL     1       9.473  24.464  47.492  1.00  0.00     0.692 A
ATOM     11  H3  UNL     1       7.807  24.373  48.818  1.00  0.00     0.186 HD
HETATM   12  N5  UNL     1      10.473  23.600  47.246  1.00  0.00    -0.131 N
HETATM   13  N6  UNL     1      10.258  22.553  48.036  1.00  0.00    -0.270 N
ATOM     14  H5  UNL     1      11.241  23.723  46.586  1.00  0.00     0.205 HD
ATOM     15  H6  UNL     1      10.851  21.723  48.081  1.00  0.00     0.189 HD
BRANCH  10  16
HETATM   16  N4  UNL     1       9.311  25.613  46.929  1.00  0.00    -0.233 N
ATOM     17  H42 UNL     1      10.024  26.335  46.830  1.00  0.00     0.174 HD
ATOM     18  H41 UNL     1       8.440  25.938  46.510  1.00  0.00     0.174 HD
ENDBRANCH  10  16
ENDBRANCH   4   8
BRANCH   1  19
HETATM   19  C9  UNL     1       7.120  19.061  52.537  1.00  0.00     0.157 C
BRANCH  19  20
HETATM   20  C8  UNL     1       7.865  17.777  52.628  1.00  0.00     0.257 C
BRANCH  20  21
HETATM   21  N1  UNL     1       6.956  16.687  52.357  1.00  0.00    -0.066 N
HETATM   22  C6  UNL     1       5.734  17.326  51.835  1.00  0.00     0.272 C
HETATM   23  C7  UNL     1       6.567  16.042  53.568  1.00  0.00     0.272 C
BRANCH  21  24
HETATM   24  C4  UNL     1       7.435  15.801  51.329  1.00  0.00     0.213 C
HETATM   25  C5  UNL     1       7.383  16.507  50.000  1.00  0.00     0.045 C
BRANCH  24  26
HETATM   26  C2  UNL     1       8.739  15.195  51.598  1.00  0.00    -0.063 C
HETATM   27  C1  UNL     1       9.841  15.909  51.459  1.00  0.00     0.016 C
HETATM   28  C3  UNL     1       8.909  13.785  52.035  1.00  0.00     0.044 C
ENDBRANCH  24  26
ENDBRANCH  21  24
ENDBRANCH  20  21
ENDBRANCH  19  20
ENDBRANCH   1  19
TORSDOF 7
ENDMDL