MODEL 4
REMARK VINA RESULT: -7.175207563      2.038      3.132
REMARK  6 active torsions:
REMARK  status: ('A' for Active; 'I' for Inactive)
REMARK    1  A    between atoms: N1_2  and  C2_3
REMARK    2  A    between atoms: C2_3  and  C3_4
REMARK    3  A    between atoms: C4_5  and  C5_6
REMARK    4  A    between atoms: C4_5  and  C6_9
REMARK       I    between atoms: C6_9  and  N2_11
REMARK    5  A    between atoms: N2_11  and  C7_13
REMARK    6  A    between atoms: C13_19  and  C14_20
ROOT
HETATM    1  C6  UNL     1       4.029  18.356  49.202  1.00  0.00     0.258 C
HETATM    2  O3  UNL     1       3.366  17.943  50.233  1.00  0.00    -0.267 OA
HETATM    3  N2  UNL     1       5.039  19.260  49.457  1.00  0.00    -0.351 N
ATOM      4  H2  UNL     1       5.593  19.617  48.678  1.00  0.00     0.163 HD
ENDROOT
BRANCH   1   5
HETATM    5  C4  UNL     1       3.584  17.781  47.923  1.00  0.00     0.106 C
HETATM    6  C3  UNL     1       2.881  18.585  47.138  1.00  0.00     0.025 C
BRANCH   6   7
HETATM    7  C2  UNL     1       2.299  18.344  45.832  1.00  0.00     0.265 C
BRANCH   7   8
HETATM    8  N1  UNL     1       0.913  18.832  45.745  1.00  0.00    -0.068 N
HETATM    9  C1  UNL     1       0.775  19.812  44.686  1.00  0.00     0.272 C
HETATM   10  C15 UNL     1      -0.009  17.739  45.427  1.00  0.00     0.237 C
HETATM   11  C16 UNL     1      -0.375  17.009  46.700  1.00  0.00     0.028 C
HETATM   12  C17 UNL     1      -1.385  17.858  47.443  1.00  0.00     0.003 C
HETATM   13  C18 UNL     1      -0.923  19.303  47.289  1.00  0.00     0.028 C
HETATM   14  C19 UNL     1       0.565  19.360  47.033  1.00  0.00     0.237 C
ENDBRANCH   7   8
ENDBRANCH   6   7
BRANCH   5  15
HETATM   15  C5  UNL     1       3.915  16.410  47.575  1.00  0.00     0.214 C
HETATM   16  O1  UNL     1       4.862  16.064  46.811  1.00  0.00    -0.644 OA
HETATM   17  O2  UNL     1       3.192  15.311  48.072  1.00  0.00    -0.644 OA
ENDBRANCH   5  15
ENDBRANCH   1   5
BRANCH   3  18
HETATM   18  C7  UNL     1       5.343  19.727  50.827  1.00  0.00     0.097 C
HETATM   19  C8  UNL     1       4.680  21.044  51.017  1.00  0.00     0.026 C
HETATM   20  C9  UNL     1       4.172  21.068  52.465  1.00  0.00     0.002 C
HETATM   21  C10 UNL     1       5.394  21.186  53.347  1.00  0.00     0.000 C
HETATM   22  C11 UNL     1       6.031  19.841  53.466  1.00  0.00     0.001 C
HETATM   23  C12 UNL     1       7.166  19.577  52.536  1.00  0.00     0.015 C
HETATM   24  C13 UNL     1       6.809  19.688  51.073  1.00  0.00     0.097 C
BRANCH  24  25
HETATM   25  C14 UNL     1       7.585  20.759  50.405  1.00  0.00     0.237 C
HETATM   26  N3  UNL     1       8.030  21.952  51.025  1.00  0.00    -0.062 NA
HETATM   27  O4  UNL     1       7.879  20.609  49.191  1.00  0.00    -0.276 OA
ENDBRANCH  24  25
ENDBRANCH   3  18
TORSDOF 6
ENDMDL