MODEL 1
REMARK VINA RESULT: -7.253009912      0.000      0.000
REMARK  7 active torsions:
REMARK  status: ('A' for Active; 'I' for Inactive)
REMARK       I    between atoms: C2_2  and  N1_4
REMARK    1  A    between atoms: N1_4  and  C4_6
REMARK    2  A    between atoms: C10_12  and  C11_13
REMARK    3  A    between atoms: C11_13  and  N2_14
REMARK    4  A    between atoms: N2_14  and  C12_16
REMARK    5  A    between atoms: C12_16  and  C13_17
REMARK    6  A    between atoms: C16_21  and  C17_22
REMARK    7  A    between atoms: C17_22  and  N3_23
ROOT
HETATM    1  C4  UNL     1       5.221  19.200  51.227  1.00  0.00     0.036 C
HETATM    2  C5  UNL     1       5.481  18.084  50.235  1.00  0.00     0.037 C
HETATM    3  C6  UNL     1       6.382  17.116  50.916  1.00  0.00     0.004 A
HETATM    4  C7  UNL     1       7.731  17.835  51.266  1.00  0.00     0.006 A
HETATM    5  C8  UNL     1       7.901  18.866  50.292  1.00  0.00     0.005 A
HETATM    6  C9  UNL     1       8.553  20.204  50.759  1.00  0.00     0.007 A
HETATM    7  C10 UNL     1       8.164  21.268  49.769  1.00  0.00     0.018 A
HETATM    8  C14 UNL     1       7.223  20.104  50.188  1.00  0.00    -0.024 A
HETATM    9  C15 UNL     1       5.979  20.452  50.836  1.00  0.00     0.042 C
HETATM   10  C16 UNL     1       6.693  17.687  52.207  1.00  0.00    -0.006 A
HETATM   11  C18 UNL     1       5.780  18.796  52.548  1.00  0.00     0.043 C
ENDROOT
BRANCH   7  12
HETATM   12  C11 UNL     1       7.836  22.653  50.169  1.00  0.00     0.119 C
BRANCH  12  13
HETATM   13  N2  UNL     1       8.590  23.586  49.395  1.00  0.00    -0.420 N
ATOM     14  H2  UNL     1       8.302  24.560  49.302  1.00  0.00     0.153 HD
BRANCH  13  15
HETATM   15  C12 UNL     1       9.761  23.092  48.761  1.00  0.00     0.124 C
BRANCH  15  16
HETATM   16  C13 UNL     1       9.934  23.464  47.326  1.00  0.00     0.104 C
HETATM   17 BR1  UNL     1       9.326  25.315  47.153  1.00  0.00    -0.095 Br
ENDBRANCH  15  16
ENDBRANCH  13  15
ENDBRANCH  12  13
ENDBRANCH   7  12
BRANCH   1  18
HETATM   18  N1  UNL     1       3.801  19.467  51.339  1.00  0.00    -0.347 N
HETATM   19  C2  UNL     1       3.328  20.610  52.012  1.00  0.00     0.216 C
HETATM   20  C1  UNL     1       1.881  20.868  52.111  1.00  0.00     0.117 C
HETATM   21  O1  UNL     1       4.125  21.423  52.535  1.00  0.00    -0.274 OA
HETATM   22  C3  UNL     1       2.851  18.543  50.746  1.00  0.00     0.153 C
ENDBRANCH   1  18
BRANCH  10  23
HETATM   23  C17 UNL     1       6.885  16.687  53.349  1.00  0.00     0.240 C
BRANCH  23  24
HETATM   24  N3  UNL     1       8.298  16.575  53.563  1.00  0.00    -0.079 N
ATOM     25  H33 UNL     1       8.835  16.541  52.696  1.00  0.00     0.274 HD
ATOM     26  H32 UNL     1       8.717  17.425  53.940  1.00  0.00     0.274 HD
ATOM     27  H31 UNL     1       8.439  15.759  54.157  1.00  0.00     0.274 HD
ENDBRANCH  23  24
ENDBRANCH  10  23
TORSDOF 7
ENDMDL