MODEL 2
REMARK VINA RESULT: -7.647869731      1.556      1.868
REMARK  5 active torsions:
REMARK  status: ('A' for Active; 'I' for Inactive)
REMARK       I    between atoms: N1_2  and  C2_4
REMARK    1  A    between atoms: C2_4  and  C3_6
REMARK    2  A    between atoms: C3_6  and  C4_7
REMARK    3  A    between atoms: C3_6  and  N3_11
REMARK    4  A    between atoms: C4_7  and  C5_8
REMARK       I    between atoms: N3_11  and  C6_13
REMARK    5  A    between atoms: C6_13  and  C7_15
ROOT
HETATM    1  N3  UNL     1       5.682  20.392  50.843  1.00  0.00    -0.347 N
ATOM      2  H3  UNL     1       6.281  19.574  50.732  1.00  0.00     0.163 HD
HETATM    3  C6  UNL     1       4.322  20.263  50.512  1.00  0.00     0.227 C
HETATM    4  O3  UNL     1       3.510  21.218  50.619  1.00  0.00    -0.273 OA
ENDROOT
BRANCH   3   5
HETATM    5  C7  UNL     1       3.793  18.960  50.012  1.00  0.00     0.043 C
HETATM    6  C8  UNL     1       4.817  17.896  50.277  1.00  0.00     0.024 C
HETATM    7  C9  UNL     1       4.297  16.554  49.766  1.00  0.00    -0.012 C
HETATM    8  C10 UNL     1       3.069  16.235  50.576  1.00  0.00     0.009 C
HETATM    9  C14 UNL     1       4.018  16.709  48.299  1.00  0.00     0.025 C
HETATM   10  C11 UNL     1       2.015  17.285  50.323  1.00  0.00    -0.012 C
HETATM   11  C12 UNL     1       1.708  17.267  48.844  1.00  0.00     0.025 C
HETATM   12  C16 UNL     1       2.477  18.646  50.737  1.00  0.00     0.024 C
HETATM   13  C13 UNL     1       2.919  17.723  48.082  1.00  0.00     0.020 C
HETATM   14 BR1  UNL     1       2.534  17.758  46.183  1.00  0.00    -0.085 Br
HETATM   15  C15 UNL     1       3.415  19.063  48.539  1.00  0.00     0.040 C
ENDBRANCH   3   5
BRANCH   1  16
HETATM   16  C3  UNL     1       6.297  21.640  51.343  1.00  0.00     0.184 C
BRANCH  16  17
HETATM   17  C2  UNL     1       7.284  22.060  50.344  1.00  0.00     0.240 C
HETATM   18  N1  UNL     1       7.682  23.404  50.226  1.00  0.00    -0.364 N
HETATM   19  C1  UNL     1       8.672  23.737  49.213  1.00  0.00     0.149 C
ATOM     20  H1  UNL     1       7.289  24.124  50.833  1.00  0.00     0.161 HD
HETATM   21  O1  UNL     1       7.762  21.155  49.585  1.00  0.00    -0.271 OA
ENDBRANCH  16  17
BRANCH  16  22
HETATM   22  C4  UNL     1       6.938  21.356  52.657  1.00  0.00     0.134 C
BRANCH  22  23
HETATM   23  C5  UNL     1       6.186  21.803  53.817  1.00  0.00     0.233 C
HETATM   24  N2  UNL     1       4.762  21.546  53.922  1.00  0.00    -0.062 NA
HETATM   25  O2  UNL     1       6.651  22.418  54.795  1.00  0.00    -0.277 OA
ENDBRANCH  22  23
ENDBRANCH  16  22
ENDBRANCH   1  16
TORSDOF 5
ENDMDL