MODEL 1
REMARK VINA RESULT: -6.931388509      0.000      0.000
REMARK  6 active torsions:
REMARK  status: ('A' for Active; 'I' for Inactive)
REMARK    1  A    between atoms: C2_2  and  C3_3
REMARK    2  A    between atoms: C3_3  and  C4_4
REMARK    3  A    between atoms: C5_5  and  C6_6
REMARK    4  A    between atoms: C6_6  and  N1_7
REMARK       I    between atoms: N1_7  and  C7_9
REMARK    5  A    between atoms: C7_9  and  C8_11
REMARK    6  A    between atoms: C10_13  and  O2_14
ROOT
HETATM    1  C8  UNL     1       4.346  18.120  50.800  1.00  0.00     0.104 C
HETATM    2  C9  UNL     1       5.821  17.964  51.044  1.00  0.00     0.036 C
HETATM    3  C10 UNL     1       6.161  17.993  52.514  1.00  0.00     0.146 C
HETATM    4  C11 UNL     1       6.868  19.284  52.781  1.00  0.00     0.114 C
HETATM    5  C12 UNL     1       7.556  19.582  51.466  1.00  0.00     0.033 C
HETATM    6  C13 UNL     1       6.444  19.236  50.485  1.00  0.00     0.009 C
HETATM    7  C14 UNL     1       5.389  20.294  50.569  1.00  0.00     0.102 C
HETATM    8  C15 UNL     1       5.540  21.091  51.814  1.00  0.00     0.224 C
HETATM    9  O3  UNL     1       5.321  22.344  51.870  1.00  0.00    -0.273 OA
HETATM   10  N2  UNL     1       5.953  20.408  53.000  1.00  0.00    -0.354 N
ATOM     11  H2  UNL     1       5.634  20.683  53.930  1.00  0.00     0.163 HD
HETATM   12  C16 UNL     1       4.066  19.579  50.629  1.00  0.00     0.039 C
HETATM   13  C17 UNL     1       3.239  19.897  49.389  1.00  0.00     0.029 C
HETATM   14 BR1  UNL     1       3.067  20.212  52.186  1.00  0.00    -0.084 Br
ENDROOT
BRANCH   1  15
HETATM   15  C7  UNL     1       3.860  17.376  49.638  1.00  0.00     0.224 C
HETATM   16  N1  UNL     1       4.594  17.147  48.457  1.00  0.00    -0.357 N
ATOM     17  H1  UNL     1       5.542  17.515  48.376  1.00  0.00     0.162 HD
HETATM   18  O1  UNL     1       2.671  16.902  49.717  1.00  0.00    -0.273 OA
BRANCH  16  19
HETATM   19  C6  UNL     1       4.025  16.399  47.359  1.00  0.00     0.149 C
BRANCH  19  20
HETATM   20  C5  UNL     1       3.897  17.178  46.128  1.00  0.00    -0.011 C
HETATM   21  C4  UNL     1       2.909  17.967  45.788  1.00  0.00    -0.029 C
BRANCH  21  22
HETATM   22  C3  UNL     1       1.687  18.269  46.549  1.00  0.00     0.026 C
BRANCH  22  23
HETATM   23  C2  UNL     1       1.119  19.632  46.216  1.00  0.00    -0.001 C
HETATM   24  C1  UNL     1       0.731  19.762  44.783  1.00  0.00     0.005 C
ENDBRANCH  22  23
ENDBRANCH  21  22
ENDBRANCH  19  20
ENDBRANCH  16  19
ENDBRANCH   1  15
BRANCH   3  25
HETATM   25  O2  UNL     1       7.092  16.960  52.769  1.00  0.00    -0.393 OA
ATOM     26  H2  UNL     1       7.046  16.743  53.692  1.00  0.00     0.210 HD
ENDBRANCH   3  25
TORSDOF 6
ENDMDL