MODEL 1
REMARK VINA RESULT: -6.607457544      0.000      0.000
REMARK  4 active torsions:
REMARK  status: ('A' for Active; 'I' for Inactive)
REMARK    1  A    between atoms: C4_5  and  C5_6
REMARK    2  A    between atoms: C5_6  and  O2_7
REMARK    3  A    between atoms: C6_10  and  N1_11
REMARK    4  A    between atoms: C10_17  and  O4_18
ROOT
HETATM    1  C1  UNL     1      -8.315 -44.402 -81.149  1.00  0.00     0.015 C
HETATM    2  C2  UNL     1      -8.034 -43.412 -80.546  1.00  0.00    -0.082 C
HETATM    3  C3  UNL     1      -7.716 -42.203 -79.812  1.00  0.00     0.235 C
HETATM    4  O1  UNL     1      -6.509 -42.329 -79.087  1.00  0.00    -0.339 OA
HETATM    5  C4  UNL     1      -6.259 -41.109 -78.477  1.00  0.00     0.287 C
HETATM    6  O3  UNL     1      -7.201 -40.837 -77.473  1.00  0.00    -0.330 OA
HETATM    7  C6  UNL     1      -8.422 -40.651 -78.111  1.00  0.00     0.278 C
HETATM    8  C10 UNL     1      -8.794 -41.964 -78.763  1.00  0.00     0.209 C
ENDROOT
BRANCH   8   9
HETATM    9  O4  UNL     1     -10.057 -41.938 -79.322  1.00  0.00    -0.388 OA
ATOM     10  H4  UNL     1     -10.324 -42.796 -79.631  1.00  0.00     0.210 HD
ENDBRANCH   8   9
BRANCH   5  11
HETATM   11  C5  UNL     1      -4.852 -41.115 -77.887  1.00  0.00     0.224 C
BRANCH  11  12
HETATM   12  O2  UNL     1      -3.988 -40.397 -78.696  1.00  0.00    -0.396 OA
ATOM     13  H2  UNL     1      -3.256 -40.068 -78.188  1.00  0.00     0.209 HD
ENDBRANCH  11  12
ENDBRANCH   5  11
BRANCH   7  14
HETATM   14  N1  UNL     1      -9.419 -40.149 -77.227  1.00  0.00    -0.272 N
HETATM   15  C7  UNL     1      -9.398 -38.917 -76.690  1.00  0.00     0.114 A
HETATM   16  C8  UNL     1     -10.532 -38.808 -75.889  1.00  0.00     0.037 A
HETATM   17  C9  UNL     1     -11.204 -40.005 -75.978  1.00  0.00     0.108 A
HETATM   18  N2  UNL     1     -10.484 -40.790 -76.806  1.00  0.00    -0.308 N
ATOM     19  H2  UNL     1     -10.731 -41.744 -77.066  1.00  0.00     0.186 HD
ENDBRANCH   7  14
TORSDOF 4
ENDMDL