MODEL 3
REMARK VINA RESULT: -5.687210839      0.996      1.154
REMARK  4 active torsions:
REMARK  status: ('A' for Active; 'I' for Inactive)
REMARK    1  A    between atoms: O1_1  and  C1_3
REMARK    2  A    between atoms: C1_3  and  C2_4
REMARK    3  A    between atoms: C2_4  and  O2_5
REMARK    4  A    between atoms: C2_4  and  C3_7
ROOT
HETATM    1  C3  UNL     1      -9.803 -40.390 -77.359  1.00  0.00     0.295 C
HETATM    2  O3  UNL     1      -8.655 -41.174 -77.409  1.00  0.00    -0.352 OA
HETATM    3  C4  UNL     1      -8.123 -40.982 -78.683  1.00  0.00     0.252 C
HETATM    4  C5  UNL     1      -9.423 -40.901 -79.462  1.00  0.00     0.241 C
HETATM    5  O4  UNL     1      -9.235 -40.447 -80.750  1.00  0.00    -0.345 OA
HETATM    6  C6  UNL     1      -9.613 -41.345 -81.716  1.00  0.00     0.173 C
HETATM    7  C7  UNL     1      -8.750 -42.576 -81.781  1.00  0.00     0.037 C
HETATM    8  C8  UNL     1      -9.028 -43.520 -80.615  1.00  0.00     0.081 C
HETATM    9  S1  UNL     1     -10.125 -42.577 -79.488  1.00  0.00    -0.100 SA
HETATM   10  O5  UNL     1     -10.140 -40.041 -78.653  1.00  0.00    -0.311 OA
ENDROOT
BRANCH   1  11
HETATM   11  C2  UNL     1      -9.468 -39.183 -76.509  1.00  0.00     0.197 C
BRANCH  11  12
HETATM   12  C1  UNL     1     -10.541 -38.944 -75.446  1.00  0.00     0.200 C
BRANCH  12  13
HETATM   13  O1  UNL     1     -10.118 -39.559 -74.281  1.00  0.00    -0.398 OA
ATOM     14  H1  UNL     1     -10.171 -40.499 -74.417  1.00  0.00     0.209 HD
ENDBRANCH  12  13
ENDBRANCH  11  12
BRANCH  11  15
HETATM   15  O2  UNL     1      -9.348 -38.035 -77.260  1.00  0.00    -0.389 OA
ATOM     16  H2  UNL     1      -8.754 -37.447 -76.808  1.00  0.00     0.210 HD
ENDBRANCH  11  15
ENDBRANCH   1  11
TORSDOF 4
ENDMDL