MODEL 5
REMARK VINA RESULT: -6.152024243      1.929      4.219
REMARK  3 active torsions:
REMARK  status: ('A' for Active; 'I' for Inactive)
REMARK    1  A    between atoms: C5_6  and  O2_7
REMARK    2  A    between atoms: C6_11  and  C8_13
REMARK    3  A    between atoms: C8_13  and  O5_14
ROOT
HETATM    1  C1  UNL     1     -10.459 -44.188 -78.011  1.00  0.00     0.078 C
HETATM    2  C2  UNL     1      -9.278 -43.356 -78.429  1.00  0.00     0.158 C
HETATM    3  C3  UNL     1      -8.062 -44.207 -78.542  1.00  0.00     0.078 C
HETATM    4  O1  UNL     1      -9.629 -42.738 -79.645  1.00  0.00    -0.343 OA
HETATM    5  C4  UNL     1     -10.471 -41.688 -79.256  1.00  0.00     0.215 C
HETATM    6  C5  UNL     1     -10.019 -40.461 -80.008  1.00  0.00     0.326 C
HETATM    7  O3  UNL     1     -10.243 -39.284 -79.343  1.00  0.00    -0.204 OA
HETATM    8  O4  UNL     1     -10.949 -39.382 -78.262  1.00  0.00    -0.222 OA
HETATM    9  C6  UNL     1     -10.241 -40.141 -77.314  1.00  0.00     0.142 C
HETATM   10  C7  UNL     1     -10.947 -39.980 -75.963  1.00  0.00     0.054 C
HETATM   11  C9  UNL     1     -10.247 -41.551 -77.765  1.00  0.00     0.198 C
HETATM   12  O6  UNL     1      -9.087 -42.249 -77.569  1.00  0.00    -0.345 OA
ENDROOT
BRANCH   9  13
HETATM   13  C8  UNL     1      -8.884 -39.523 -77.180  1.00  0.00     0.207 C
BRANCH  13  14
HETATM   14  O5  UNL     1      -8.930 -38.150 -76.992  1.00  0.00    -0.398 OA
ATOM     15  H5  UNL     1      -9.208 -37.902 -76.118  1.00  0.00     0.209 HD
ENDBRANCH  13  14
ENDBRANCH   9  13
BRANCH   6  16
HETATM   16  O2  UNL     1     -10.594 -40.444 -81.277  1.00  0.00    -0.366 OA
ATOM     17  H2  UNL     1     -10.094 -40.994 -81.867  1.00  0.00     0.212 HD
ENDBRANCH   6  16
TORSDOF 3
ENDMDL