MODEL 1
REMARK VINA RESULT: -6.544018100      0.000      0.000
REMARK  4 active torsions:
REMARK  status: ('A' for Active; 'I' for Inactive)
REMARK    1  A    between atoms: O1_3  and  C2_4
REMARK    2  A    between atoms: C3_6  and  O3_7
REMARK    3  A    between atoms: C8_14  and  C9_15
REMARK    4  A    between atoms: C9_15  and  O4_16
ROOT
HETATM    1  N1  UNL     1      -4.706 -41.108 -77.827  1.00  0.00    -0.164 NA
HETATM    2  C1  UNL     1      -5.836 -41.302 -77.743  1.00  0.00     0.231 C
HETATM    3  O1  UNL     1      -7.156 -41.551 -77.651  1.00  0.00    -0.250 OA
ENDROOT
BRANCH   3   4
HETATM    4  C2  UNL     1      -8.091 -40.507 -77.845  1.00  0.00     0.288 C
HETATM    5  O2  UNL     1      -8.616 -40.194 -76.598  1.00  0.00    -0.330 OA
HETATM    6  C3  UNL     1      -9.624 -39.238 -76.674  1.00  0.00     0.265 C
HETATM    7  C4  UNL     1     -10.802 -39.771 -77.406  1.00  0.00     0.056 C
HETATM    8  C5  UNL     1     -11.387 -40.911 -76.622  1.00  0.00     0.021 C
HETATM    9  C7  UNL     1     -10.420 -40.292 -78.765  1.00  0.00     0.067 C
HETATM   10  C6  UNL     1     -12.584 -41.424 -77.430  1.00  0.00     0.075 C
HETATM   11  S1  UNL     1     -11.854 -41.387 -79.116  1.00  0.00    -0.163 SA
HETATM   12  C8  UNL     1      -9.140 -41.046 -78.793  1.00  0.00     0.080 C
BRANCH   6  13
HETATM   13  O3  UNL     1      -9.195 -38.076 -77.303  1.00  0.00    -0.371 OA
ATOM     14  H3  UNL     1      -9.315 -38.116 -78.245  1.00  0.00     0.212 HD
ENDBRANCH   6  13
BRANCH  12  15
HETATM   15  C9  UNL     1      -8.550 -40.899 -80.202  1.00  0.00     0.174 C
BRANCH  15  16
HETATM   16  O4  UNL     1      -7.919 -42.138 -80.458  1.00  0.00    -0.400 OA
ATOM     17  H4  UNL     1      -7.186 -41.923 -81.022  1.00  0.00     0.209 HD
ENDBRANCH  15  16
ENDBRANCH  12  15
ENDBRANCH   3   4
TORSDOF 4
ENDMDL