MODEL 5
REMARK VINA RESULT: -5.533173769      1.814      2.153
REMARK  5 active torsions:
REMARK  status: ('A' for Active; 'I' for Inactive)
REMARK    1  A    between atoms: N1_2  and  O1_3
REMARK    2  A    between atoms: N1_2  and  C2_5
REMARK    3  A    between atoms: C2_5  and  C3_6
REMARK    4  A    between atoms: C3_6  and  O2_7
REMARK    5  A    between atoms: C6_11  and  O3_12
ROOT
HETATM    1  C2  UNL     1      -9.203 -40.775 -77.949  1.00  0.00     0.160 C
HETATM    2  C4  UNL     1      -9.301 -41.010 -79.470  1.00  0.00     0.069 C
HETATM    3  C5  UNL     1      -9.243 -42.471 -79.441  1.00  0.00     0.053 C
HETATM    4  C6  UNL     1      -8.849 -43.314 -80.528  1.00  0.00     0.125 C
HETATM    5  C7  UNL     1      -8.276 -44.542 -79.804  1.00  0.00     0.035 C
HETATM    6  C8  UNL     1      -8.129 -44.121 -78.331  1.00  0.00     0.041 C
HETATM    7  C9  UNL     1      -8.055 -42.644 -78.473  1.00  0.00     0.066 C
HETATM    8  C10 UNL     1      -6.746 -42.288 -79.108  1.00  0.00     0.046 C
HETATM    9  O4  UNL     1      -8.442 -41.855 -77.458  1.00  0.00    -0.350 OA
ENDROOT
BRANCH   1  10
HETATM   10  N1  UNL     1     -10.541 -41.003 -77.452  1.00  0.00    -0.167 NA
HETATM   11  C1  UNL     1     -11.560 -40.481 -78.306  1.00  0.00     0.147 C
BRANCH  10  12
HETATM   12  O1  UNL     1     -10.686 -40.621 -76.166  1.00  0.00    -0.310 OA
ATOM     13  H1  UNL     1     -10.947 -41.334 -75.595  1.00  0.00     0.237 HD
ENDBRANCH  10  12
ENDBRANCH   1  10
BRANCH   1  14
HETATM   14  C3  UNL     1      -8.633 -39.451 -77.613  1.00  0.00     0.221 C
BRANCH  14  15
HETATM   15  O2  UNL     1      -8.026 -39.396 -76.371  1.00  0.00    -0.396 OA
ATOM     16  H2  UNL     1      -7.174 -38.975 -76.374  1.00  0.00     0.209 HD
ENDBRANCH  14  15
ENDBRANCH   1  14
BRANCH   4  17
HETATM   17  O3  UNL     1      -8.005 -42.827 -81.488  1.00  0.00    -0.395 OA
ATOM     18  H3  UNL     1      -7.560 -43.431 -82.070  1.00  0.00     0.210 HD
ENDBRANCH   4  17
TORSDOF 5
ENDMDL