MODEL 5
REMARK VINA RESULT: -6.180798382      1.867      4.004
REMARK  4 active torsions:
REMARK  status: ('A' for Active; 'I' for Inactive)
REMARK    1  A    between atoms: C3_3  and  O1_4
REMARK    2  A    between atoms: O1_4  and  C4_5
REMARK    3  A    between atoms: C9_12  and  O3_13
REMARK    4  A    between atoms: C10_15  and  O4_16
ROOT
HETATM    1  C1  UNL     1     -11.018 -39.357 -75.006  1.00  0.00     0.099 C
HETATM    2  C2  UNL     1     -10.199 -39.412 -75.916  1.00  0.00    -0.162 C
HETATM    3  C3  UNL     1      -9.230 -39.457 -77.012  1.00  0.00     0.247 C
ENDROOT
BRANCH   3   4
HETATM    4  O1  UNL     1      -8.687 -40.736 -77.030  1.00  0.00    -0.369 OA
BRANCH   4   5
HETATM    5  C4  UNL     1      -8.464 -41.218 -78.294  1.00  0.00     0.196 C
HETATM    6  C5  UNL     1      -9.582 -40.904 -79.260  1.00  0.00     0.259 C
HETATM    7  C6  UNL     1      -9.076 -40.915 -80.653  1.00  0.00     0.094 C
HETATM    8  O2  UNL     1     -10.642 -41.764 -79.186  1.00  0.00    -0.361 OA
HETATM    9  N1  UNL     1      -8.672 -40.933 -81.735  1.00  0.00    -0.194 NA
HETATM   10  C7  UNL     1     -10.591 -42.681 -78.167  1.00  0.00     0.150 C
HETATM   11  C8  UNL     1     -11.861 -43.537 -78.274  1.00  0.00     0.042 C
HETATM   12  C9  UNL     1      -9.375 -43.549 -78.345  1.00  0.00     0.178 C
HETATM   13  C10 UNL     1      -8.147 -42.678 -78.231  1.00  0.00     0.181 C
BRANCH  12  14
HETATM   14  O3  UNL     1      -9.348 -44.594 -77.405  1.00  0.00    -0.390 OA
ATOM     15  H3  UNL     1      -9.641 -45.412 -77.788  1.00  0.00     0.210 HD
ENDBRANCH  12  14
BRANCH  13  16
HETATM   16  O4  UNL     1      -7.232 -43.066 -79.217  1.00  0.00    -0.390 OA
ATOM     17  H4  UNL     1      -7.219 -44.008 -79.347  1.00  0.00     0.210 HD
ENDBRANCH  13  16
ENDBRANCH   4   5
ENDBRANCH   3   4
TORSDOF 4
ENDMDL