MODEL 1
REMARK VINA RESULT: -6.610386228      0.000      0.000
REMARK  6 active torsions:
REMARK  status: ('A' for Active; 'I' for Inactive)
REMARK    1  A    between atoms: N1_1  and  N2_4
REMARK    2  A    between atoms: N2_4  and  N3_5
REMARK    3  A    between atoms: N3_5  and  C1_7
REMARK    4  A    between atoms: C2_8  and  O1_9
REMARK    5  A    between atoms: C3_11  and  C4_12
REMARK    6  A    between atoms: C4_12  and  O2_13
ROOT
HETATM    1  C1  UNL     1      -7.303 -41.255 -78.420  1.00  0.00     0.238 C
HETATM    2  C2  UNL     1      -7.846 -39.969 -77.804  1.00  0.00     0.182 C
HETATM    3  C3  UNL     1      -9.346 -40.209 -78.024  1.00  0.00     0.182 C
HETATM    4  O3  UNL     1      -9.459 -41.520 -77.566  1.00  0.00    -0.321 OA
HETATM    5  C5  UNL     1      -8.468 -42.200 -78.271  1.00  0.00     0.309 C
HETATM    6  O4  UNL     1      -9.015 -42.559 -79.497  1.00  0.00    -0.329 OA
HETATM    7  C6  UNL     1      -9.468 -43.885 -79.319  1.00  0.00     0.200 C
HETATM    8  C7  UNL     1      -8.333 -44.427 -78.447  1.00  0.00     0.200 C
HETATM    9  O5  UNL     1      -8.059 -43.352 -77.636  1.00  0.00    -0.329 OA
ENDROOT
BRANCH   1  10
HETATM   10  N3  UNL     1      -6.108 -41.710 -77.782  1.00  0.00    -0.237 N
ATOM     11  H3  UNL     1      -6.099 -42.555 -77.212  1.00  0.00     0.197 HD
BRANCH  10  12
HETATM   12  N2  UNL     1      -5.075 -41.028 -77.953  1.00  0.00    -0.248 NA
BRANCH  12  13
HETATM   13  N1  UNL     1      -4.020 -40.611 -78.430  1.00  0.00    -0.261 N
ATOM     14  H12 UNL     1      -3.824 -41.439 -78.993  1.00  0.00     0.193 HD
ATOM     15  H11 UNL     1      -3.226 -40.004 -78.636  1.00  0.00     0.193 HD
ENDBRANCH  12  13
ENDBRANCH  10  12
ENDBRANCH   1  10
BRANCH   2  16
HETATM   16  O1  UNL     1      -7.529 -40.009 -76.458  1.00  0.00    -0.390 OA
ATOM     17  H1  UNL     1      -7.098 -40.841 -76.304  1.00  0.00     0.210 HD
ENDBRANCH   2  16
BRANCH   3  18
HETATM   18  C4  UNL     1     -10.172 -39.251 -77.209  1.00  0.00     0.199 C
BRANCH  18  19
HETATM   19  O2  UNL     1      -9.471 -38.049 -77.141  1.00  0.00    -0.398 OA
ATOM     20  H2  UNL     1      -8.909 -38.005 -77.907  1.00  0.00     0.209 HD
ENDBRANCH  18  19
ENDBRANCH   3  18
TORSDOF 6
ENDMDL