MODEL 4
REMARK VINA RESULT: -6.009983042      1.842      5.374
REMARK  4 active torsions:
REMARK  status: ('A' for Active; 'I' for Inactive)
REMARK    1  A    between atoms: C2_3  and  C3_4
REMARK    2  A    between atoms: C4_5  and  O1_6
REMARK    3  A    between atoms: C6_10  and  N2_11
REMARK    4  A    between atoms: C10_17  and  O3_18
ROOT
HETATM    1  N1  UNL     1     -10.203 -39.422 -74.425  1.00  0.00    -0.197 NA
HETATM    2  C1  UNL     1     -10.527 -39.475 -75.526  1.00  0.00     0.059 C
HETATM    3  C2  UNL     1     -10.958 -39.546 -76.902  1.00  0.00     0.133 C
ENDROOT
BRANCH   3   4
HETATM    4  C3  UNL     1      -9.800 -39.892 -77.832  1.00  0.00     0.062 C
HETATM    5  C4  UNL     1      -8.536 -39.648 -77.020  1.00  0.00     0.149 C
HETATM    6  C5  UNL     1      -7.304 -40.126 -77.703  1.00  0.00     0.202 C
HETATM    7  O2  UNL     1      -7.643 -40.939 -78.777  1.00  0.00    -0.360 OA
HETATM    8  C6  UNL     1      -8.515 -41.920 -78.272  1.00  0.00     0.272 C
HETATM    9  C10 UNL     1      -9.887 -41.348 -78.272  1.00  0.00     0.176 C
BRANCH   5  10
HETATM   10  O1  UNL     1      -8.441 -38.283 -76.793  1.00  0.00    -0.393 OA
ATOM     11  H1  UNL     1      -7.520 -38.049 -76.828  1.00  0.00     0.210 HD
ENDBRANCH   5  10
BRANCH   8  12
HETATM   12  N2  UNL     1      -8.368 -43.081 -79.138  1.00  0.00    -0.272 N
HETATM   13  C7  UNL     1      -7.387 -43.271 -80.063  1.00  0.00     0.114 A
HETATM   14  C8  UNL     1      -7.591 -44.483 -80.675  1.00  0.00     0.037 A
HETATM   15  C9  UNL     1      -8.716 -45.013 -80.094  1.00  0.00     0.108 A
HETATM   16  N3  UNL     1      -9.141 -44.148 -79.189  1.00  0.00    -0.308 N
ATOM     17  H3  UNL     1      -9.964 -44.288 -78.604  1.00  0.00     0.186 HD
ENDBRANCH   8  12
BRANCH   9  18
HETATM   18  O3  UNL     1     -10.762 -42.040 -77.436  1.00  0.00    -0.391 OA
ATOM     19  H3  UNL     1     -11.448 -42.444 -77.954  1.00  0.00     0.210 HD
ENDBRANCH   9  18
ENDBRANCH   3   4
TORSDOF 4
ENDMDL