MODEL 5
REMARK VINA RESULT: -5.545947799      1.993      3.099
REMARK  4 active torsions:
REMARK  status: ('A' for Active; 'I' for Inactive)
REMARK    1  A    between atoms: S1_2  and  C2_3
REMARK    2  A    between atoms: C6_9  and  O3_10
REMARK    3  A    between atoms: C6_9  and  C7_12
REMARK    4  A    between atoms: C7_12  and  O4_13
ROOT
HETATM    1  C2  UNL     1      -7.932 -41.787 -79.237  1.00  0.00     0.213 C
HETATM    2  C3  UNL     1      -7.577 -41.905 -80.691  1.00  0.00     0.092 C
HETATM    3  O1  UNL     1      -8.830 -42.806 -78.939  1.00  0.00    -0.336 OA
HETATM    4  C4  UNL     1      -9.829 -42.274 -78.154  1.00  0.00     0.184 C
HETATM    5  C5  UNL     1     -11.014 -41.767 -78.948  1.00  0.00     0.206 C
HETATM    6  O2  UNL     1     -11.473 -40.638 -78.304  1.00  0.00    -0.348 OA
HETATM    7  C6  UNL     1     -10.460 -40.127 -77.520  1.00  0.00     0.213 C
HETATM    8  C8  UNL     1      -9.221 -40.933 -77.754  1.00  0.00     0.221 C
HETATM    9  O5  UNL     1      -8.595 -40.583 -78.946  1.00  0.00    -0.333 OA
ENDROOT
BRANCH   7  10
HETATM   10  O3  UNL     1     -10.798 -40.246 -76.165  1.00  0.00    -0.362 OA
ATOM     11  H3  UNL     1     -10.488 -39.485 -75.686  1.00  0.00     0.213 HD
ENDBRANCH   7  10
BRANCH   7  12
HETATM   12  C7  UNL     1     -10.200 -38.655 -77.771  1.00  0.00     0.235 C
BRANCH  12  13
HETATM   13  O4  UNL     1      -9.080 -38.288 -77.030  1.00  0.00    -0.395 OA
ATOM     14  H4  UNL     1      -8.323 -38.710 -77.419  1.00  0.00     0.209 HD
ENDBRANCH  12  13
ENDBRANCH   7  12
BRANCH   1  15
HETATM   15  S1  UNL     1      -6.477 -41.815 -78.156  1.00  0.00    -0.107 SA
HETATM   16  C1  UNL     1      -5.317 -40.531 -78.647  1.00  0.00     0.095 C
ENDBRANCH   1  15
TORSDOF 4
ENDMDL