MODEL 1
REMARK VINA RESULT: -5.398530951      0.000      0.000
REMARK  4 active torsions:
REMARK  status: ('A' for Active; 'I' for Inactive)
REMARK    1  A    between atoms: O1_2  and  C2_3
REMARK    2  A    between atoms: C3_4  and  S1_5
REMARK    3  A    between atoms: C7_11  and  O4_12
REMARK    4  A    between atoms: C8_14  and  O5_15
ROOT
HETATM    1  C2  UNL     1     -10.289 -40.530 -78.832  1.00  0.00     0.193 C
HETATM    2  C3  UNL     1     -11.222 -41.117 -77.802  1.00  0.00     0.217 C
HETATM    3  O2  UNL     1     -11.440 -40.098 -76.865  1.00  0.00    -0.343 OA
HETATM    4  C5  UNL     1     -10.565 -40.162 -75.805  1.00  0.00     0.260 C
HETATM    5  C6  UNL     1     -11.270 -39.511 -74.612  1.00  0.00     0.071 C
HETATM    6  O3  UNL     1      -9.366 -39.529 -75.966  1.00  0.00    -0.329 OA
HETATM    7  C7  UNL     1      -8.996 -39.217 -77.247  1.00  0.00     0.291 C
HETATM    8  C8  UNL     1      -8.929 -40.392 -78.173  1.00  0.00     0.205 C
ENDROOT
BRANCH   1   9
HETATM    9  O1  UNL     1     -10.191 -41.249 -79.995  1.00  0.00    -0.385 OA
HETATM   10  C1  UNL     1      -9.721 -40.407 -81.000  1.00  0.00     0.202 C
ENDBRANCH   1   9
BRANCH   2  11
HETATM   11  S1  UNL     1     -12.794 -41.469 -78.604  1.00  0.00    -0.139 SA
HETATM   12  C4  UNL     1     -13.230 -43.210 -78.581  1.00  0.00     0.092 C
ENDBRANCH   2  11
BRANCH   8  13
HETATM   13  O5  UNL     1      -8.561 -41.552 -77.530  1.00  0.00    -0.388 OA
ATOM     14  H5  UNL     1      -7.887 -41.390 -76.881  1.00  0.00     0.210 HD
ENDBRANCH   8  13
BRANCH   7  15
HETATM   15  O4  UNL     1      -9.734 -38.191 -77.827  1.00  0.00    -0.368 OA
ATOM     16  H4  UNL     1      -9.234 -37.408 -78.022  1.00  0.00     0.212 HD
ENDBRANCH   7  15
TORSDOF 4
ENDMDL