MODEL 1
REMARK VINA RESULT: -6.190997938      0.000      0.000
REMARK  11 active torsions:
REMARK  status: ('A' for Active; 'I' for Inactive)
REMARK       I    between atoms: C2_2  and  N1_4
REMARK    1  A    between atoms: N1_4  and  C3_6
REMARK    2  A    between atoms: C3_6  and  C4_7
REMARK    3  A    between atoms: C3_6  and  C20_34
REMARK       I    between atoms: C4_7  and  N2_9
REMARK    4  A    between atoms: N2_9  and  C5_11
REMARK    5  A    between atoms: C5_11  and  C6_12
REMARK    6  A    between atoms: C5_11  and  C16_30
REMARK       I    between atoms: C6_12  and  N3_14
REMARK    7  A    between atoms: N3_14  and  C7_16
REMARK    8  A    between atoms: C7_16  and  C8_17
REMARK    9  A    between atoms: C7_16  and  S1_26
REMARK   10  A    between atoms: C8_17  and  C9_18
REMARK   11  A    between atoms: C9_18  and  O4_19
ROOT
HETATM    1  C5  UNL     1      -4.071  23.609  11.103  1.00  0.00     0.184 C
ENDROOT
BRANCH   1   2
HETATM    2  N2  UNL     1      -4.585  22.839  10.042  1.00  0.00    -0.345 N
HETATM    3  C4  UNL     1      -5.663  21.990   9.857  1.00  0.00     0.241 C
HETATM    4  O2  UNL     1      -6.458  21.760  10.782  1.00  0.00    -0.271 OA
ATOM      5  H2  UNL     1      -4.022  22.930   9.196  1.00  0.00     0.163 HD
BRANCH   3   6
HETATM    6  C3  UNL     1      -5.963  21.302   8.583  1.00  0.00     0.179 C
BRANCH   6   7
HETATM    7  N1  UNL     1      -7.389  21.329   8.289  1.00  0.00    -0.348 N
HETATM    8  C2  UNL     1      -7.907  22.095   7.214  1.00  0.00     0.214 C
HETATM    9  C1  UNL     1      -9.359  22.138   6.880  1.00  0.00     0.117 C
HETATM   10  O1  UNL     1      -7.081  22.766   6.514  1.00  0.00    -0.274 OA
ATOM     11  H1  UNL     1      -8.029  20.786   8.869  1.00  0.00     0.163 HD
ENDBRANCH   6   7
BRANCH   6  12
HETATM   12  C20 UNL     1      -5.547  19.875   8.476  1.00  0.00     0.009 C
HETATM   13  C21 UNL     1      -4.351  19.478   9.277  1.00  0.00     0.012 C
HETATM   14  C22 UNL     1      -5.511  19.285   7.101  1.00  0.00     0.012 C
ENDBRANCH   6  12
ENDBRANCH   3   6
ENDBRANCH   1   2
BRANCH   1  15
HETATM   15  C6  UNL     1      -2.569  23.609  10.995  1.00  0.00     0.242 C
HETATM   16  O3  UNL     1      -1.965  24.107   9.989  1.00  0.00    -0.271 OA
HETATM   17  N3  UNL     1      -1.709  23.065  11.972  1.00  0.00    -0.341 N
ATOM     18  H3  UNL     1      -2.117  22.632  12.801  1.00  0.00     0.163 HD
BRANCH  17  19
HETATM   19  C7  UNL     1      -0.230  23.098  11.836  1.00  0.00     0.209 C
BRANCH  19  20
HETATM   20  C8  UNL     1       0.100  21.759  11.287  1.00  0.00     0.078 C
BRANCH  20  21
HETATM   21  C9  UNL     1       0.542  21.583   9.898  1.00  0.00     0.060 C
HETATM   22  C10 UNL     1       1.699  20.690   9.706  1.00  0.00     0.038 C
HETATM   23  C11 UNL     1       1.389  19.436   8.871  1.00  0.00     0.003 C
HETATM   24  C12 UNL     1       0.260  18.629   9.442  1.00  0.00     0.000 C
HETATM   25  C13 UNL     1      -0.917  19.540   9.682  1.00  0.00     0.003 C
HETATM   26  C14 UNL     1      -0.636  20.878   9.117  1.00  0.00     0.038 C
BRANCH  21  27
HETATM   27  O4  UNL     1       0.591  22.806   9.188  1.00  0.00    -0.390 OA
ATOM     28  H4  UNL     1       0.624  22.677   8.248  1.00  0.00     0.210 HD
ENDBRANCH  21  27
ENDBRANCH  20  21
ENDBRANCH  19  20
BRANCH  19  29
HETATM   29  S1  UNL     1       0.432  23.633  13.343  1.00  0.00     0.162 S
HETATM   30  C15 UNL     1      -0.491  24.820  14.238  1.00  0.00     0.163 C
HETATM   31  O5  UNL     1       1.914  23.999  13.234  1.00  0.00    -0.226 OA
HETATM   32  O6  UNL     1       0.476  22.383  14.260  1.00  0.00    -0.226 OA
ENDBRANCH  19  29
ENDBRANCH  17  19
ENDBRANCH   1  15
BRANCH   1  33
HETATM   33  C16 UNL     1      -4.618  24.975  11.293  1.00  0.00    -0.022 C
HETATM   34  C17 UNL     1      -5.073  25.751  10.125  1.00  0.00     0.017 C
HETATM   35  C18 UNL     1      -5.915  24.848  12.161  1.00  0.00     0.017 C
HETATM   36  C19 UNL     1      -3.748  25.841  12.153  1.00  0.00     0.017 C
ENDBRANCH   1  33
TORSDOF 11
ENDMDL