MODEL 1
REMARK VINA RESULT: -6.534923698      0.000      0.000
REMARK  11 active torsions:
REMARK  status: ('A' for Active; 'I' for Inactive)
REMARK    1  A    between atoms: C2_2  and  C3_3
REMARK    2  A    between atoms: C3_3  and  C4_4
REMARK    3  A    between atoms: C7_7  and  N1_8
REMARK    4  A    between atoms: C7_7  and  C15_31
REMARK    5  A    between atoms: N1_8  and  C8_10
REMARK    6  A    between atoms: C8_10  and  O1_11
REMARK    7  A    between atoms: C11_17  and  C12_18
REMARK    8  A    between atoms: C12_18  and  C13_19
REMARK    9  A    between atoms: C13_19  and  N3_20
REMARK   10  A    between atoms: N3_20  and  S1_22
REMARK   11  A    between atoms: S1_22  and  N4_23
ROOT
HETATM    1  C8  UNL     1       0.572  19.690  10.352  1.00  0.00     0.170 C
HETATM    2  C9  UNL     1      -0.706  19.467   9.725  1.00  0.00     0.155 C
HETATM    3  N2  UNL     1      -0.709  18.151   9.064  1.00  0.00    -0.379 N
ATOM      4  H2  UNL     1       0.049  17.476   9.156  1.00  0.00     0.160 HD
HETATM    5  C10 UNL     1      -1.873  17.919   8.286  1.00  0.00     0.152 C
HETATM    6  C11 UNL     1      -3.072  18.690   8.862  1.00  0.00     0.151 C
HETATM    7  O4  UNL     1      -2.764  20.071   8.604  1.00  0.00    -0.309 OA
HETATM    8  C14 UNL     1      -1.468  20.485   9.049  1.00  0.00     0.314 C
HETATM    9  O5  UNL     1      -1.176  21.674   8.805  1.00  0.00    -0.257 OA
ENDROOT
BRANCH   1  10
HETATM   10  N1  UNL     1       1.798  20.089   9.792  1.00  0.00    -0.359 N
ATOM     11  H1  UNL     1       2.315  19.405   9.238  1.00  0.00     0.162 HD
BRANCH  10  12
HETATM   12  C7  UNL     1       2.374  21.407   9.953  1.00  0.00     0.036 C
HETATM   13  C6  UNL     1       3.878  21.204  10.241  1.00  0.00     0.032 C
HETATM   14  C5  UNL     1       4.790  21.711   9.183  1.00  0.00     0.007 C
HETATM   15  C4  UNL     1       4.502  23.160   8.834  1.00  0.00    -0.011 C
HETATM   16  C21 UNL     1       3.094  23.286   8.382  1.00  0.00    -0.012 C
HETATM   17  C20 UNL     1       2.259  22.062   8.596  1.00  0.00     0.036 C
HETATM   18  C22 UNL     1       3.169  23.465   6.852  1.00  0.00     0.010 C
BRANCH  15  19
HETATM   19  C3  UNL     1       4.922  24.025   9.985  1.00  0.00     0.004 C
BRANCH  19  20
HETATM   20  C2  UNL     1       4.090  25.222  10.243  1.00  0.00    -0.004 C
HETATM   21  C1  UNL     1       3.893  25.620  11.659  1.00  0.00     0.005 C
ENDBRANCH  19  20
ENDBRANCH  15  19
BRANCH  12  22
HETATM   22  C15 UNL     1       1.695  22.103  11.043  1.00  0.00     0.014 C
HETATM   23  C16 UNL     1       2.489  22.338  12.332  1.00  0.00     0.007 C
HETATM   24  C17 UNL     1       1.316  22.731  13.241  1.00  0.00     0.000 C
HETATM   25  C18 UNL     1       0.278  23.381  12.311  1.00  0.00     0.000 C
HETATM   26  C19 UNL     1       0.940  23.345  10.913  1.00  0.00     0.007 C
ENDBRANCH  12  22
ENDBRANCH  10  12
ENDBRANCH   1  10
BRANCH   1  27
HETATM   27  O1  UNL     1       0.564  19.445  11.661  1.00  0.00    -0.344 OA
ATOM     28  H1  UNL     1       0.120  18.655  11.944  1.00  0.00     0.219 HD
ENDBRANCH   1  27
BRANCH   6  29
HETATM   29  C12 UNL     1      -4.322  18.329   8.158  1.00  0.00     0.054 C
BRANCH  29  30
HETATM   30  C13 UNL     1      -5.131  19.492   7.660  1.00  0.00     0.136 C
BRANCH  30  31
HETATM   31  N3  UNL     1      -6.060  19.945   8.662  1.00  0.00    -0.303 N
ATOM     32  H3  UNL     1      -6.220  19.504   9.568  1.00  0.00     0.173 HD
BRANCH  31  33
HETATM   33  S1  UNL     1      -6.862  21.366   8.070  1.00  0.00     0.312 S
HETATM   34  O2  UNL     1      -6.832  21.375   6.594  1.00  0.00    -0.183 OA
HETATM   35  O3  UNL     1      -6.256  22.589   8.682  1.00  0.00    -0.183 OA
BRANCH  33  36
HETATM   36  N4  UNL     1      -8.513  21.269   8.662  1.00  0.00    -0.312 N
ATOM     37  H42 UNL     1      -9.280  21.896   8.418  1.00  0.00     0.170 HD
ATOM     38  H41 UNL     1      -8.538  20.466   9.291  1.00  0.00     0.170 HD
ENDBRANCH  33  36
ENDBRANCH  31  33
ENDBRANCH  30  31
ENDBRANCH  29  30
ENDBRANCH   6  29
TORSDOF 11
ENDMDL