MODEL 1
REMARK VINA RESULT: -7.347532644      0.000      0.000
REMARK  10 active torsions:
REMARK  status: ('A' for Active; 'I' for Inactive)
REMARK    1  A    between atoms: C2_2  and  O1_3
REMARK    2  A    between atoms: O1_3  and  N1_4
REMARK    3  A    between atoms: C3_6  and  C5_8
REMARK       I    between atoms: C5_8  and  N2_10
REMARK    4  A    between atoms: N2_10  and  C6_12
REMARK    5  A    between atoms: C6_12  and  C7_13
REMARK    6  A    between atoms: C6_12  and  C17_33
REMARK       I    between atoms: C7_13  and  N3_15
REMARK    7  A    between atoms: C12_20  and  C13_21
REMARK    8  A    between atoms: C13_21  and  O4_22
REMARK    9  A    between atoms: C13_21  and  N4_24
REMARK       I    between atoms: N4_24  and  C14_26
REMARK   10  A    between atoms: C14_26  and  C15_28
REMARK       I    between atoms: C15_28  and  N5_30
ROOT
HETATM    1  C7  UNL     1      -0.776  22.284  10.384  1.00  0.00     0.243 C
HETATM    2  O3  UNL     1      -1.448  22.977   9.541  1.00  0.00    -0.271 OA
HETATM    3  N3  UNL     1      -0.721  22.745  11.710  1.00  0.00    -0.341 N
HETATM    4  C8  UNL     1      -0.048  22.103  12.814  1.00  0.00     0.126 C
HETATM    5  C9  UNL     1       1.040  22.979  13.424  1.00  0.00     0.020 C
HETATM    6  C10 UNL     1       0.438  24.302  13.753  1.00  0.00     0.004 C
HETATM    7  C11 UNL     1      -1.021  24.397  13.457  1.00  0.00     0.030 C
HETATM    8  C12 UNL     1      -1.412  24.006  12.077  1.00  0.00     0.136 C
ENDROOT
BRANCH   1   9
HETATM    9  C6  UNL     1      -0.115  21.069   9.936  1.00  0.00     0.181 C
BRANCH   9  10
HETATM   10  N2  UNL     1      -1.036  20.213   9.172  1.00  0.00    -0.342 N
HETATM   11  C5  UNL     1      -1.090  18.830   9.317  1.00  0.00     0.266 C
HETATM   12  O2  UNL     1      -0.327  18.258  10.134  1.00  0.00    -0.266 OA
ATOM     13  H2  UNL     1      -1.666  20.655   8.502  1.00  0.00     0.163 HD
BRANCH  11  14
HETATM   14  C3  UNL     1      -2.015  18.036   8.537  1.00  0.00     0.095 C
HETATM   15  N1  UNL     1      -1.648  17.000   7.861  1.00  0.00    -0.266 N
ATOM     16  H1  UNL     1      -0.660  16.748   7.895  1.00  0.00     0.194 HD
HETATM   17  C4  UNL     1      -3.443  18.431   8.511  1.00  0.00     0.076 C
BRANCH  15  18
HETATM   18  O1  UNL     1      -2.456  16.220   7.112  1.00  0.00    -0.281 OA
BRANCH  18  19
HETATM   19  C2  UNL     1      -2.558  16.161   5.725  1.00  0.00     0.196 C
HETATM   20  C1  UNL     1      -3.989  16.503   5.333  1.00  0.00     0.036 C
ENDBRANCH  18  19
ENDBRANCH  15  18
ENDBRANCH  11  14
ENDBRANCH   9  10
BRANCH   9  21
HETATM   21  C17 UNL     1       1.021  21.385   8.985  1.00  0.00     0.018 C
HETATM   22  C18 UNL     1       1.553  22.794   9.298  1.00  0.00     0.007 C
HETATM   23  C19 UNL     1       2.601  23.068   8.240  1.00  0.00     0.000 C
HETATM   24  C20 UNL     1       3.782  22.195   8.516  1.00  0.00     0.000 C
HETATM   25  C21 UNL     1       3.470  20.979   9.335  1.00  0.00     0.000 C
HETATM   26  C22 UNL     1       2.122  20.383   9.021  1.00  0.00     0.007 C
ENDBRANCH   9  21
ENDBRANCH   1   9
BRANCH   8  27
HETATM   27  C13 UNL     1      -2.920  23.718  12.115  1.00  0.00     0.243 C
BRANCH  27  28
HETATM   28  O4  UNL     1      -3.444  24.182  13.321  1.00  0.00    -0.375 OA
ATOM     29  H4  UNL     1      -3.394  23.490  13.970  1.00  0.00     0.212 HD
ENDBRANCH  27  28
BRANCH  27  30
HETATM   30  N4  UNL     1      -3.530  24.458  11.033  1.00  0.00    -0.325 N
HETATM   31  C14 UNL     1      -4.823  24.071  10.559  1.00  0.00     0.311 C
HETATM   32  O5  UNL     1      -5.423  23.099  11.076  1.00  0.00    -0.262 OA
ATOM     33  H4  UNL     1      -3.042  25.249  10.612  1.00  0.00     0.165 HD
BRANCH  31  34
HETATM   34  C15 UNL     1      -5.455  24.793   9.476  1.00  0.00     0.309 C
HETATM   35  O6  UNL     1      -5.131  25.970   9.175  1.00  0.00    -0.262 OA
HETATM   36  N5  UNL     1      -6.472  24.167   8.718  1.00  0.00    -0.357 N
HETATM   37  C16 UNL     1      -7.147  24.840   7.614  1.00  0.00     0.149 C
ATOM     38  H5  UNL     1      -6.743  23.212   8.952  1.00  0.00     0.162 HD
ENDBRANCH  31  34
ENDBRANCH  27  30
ENDBRANCH   8  27
TORSDOF 10
ENDMDL