MODEL 3
REMARK VINA RESULT: -6.713536468      2.916      5.056
REMARK  12 active torsions:
REMARK  status: ('A' for Active; 'I' for Inactive)
REMARK    1  A    between atoms: O1_2  and  C2_3
REMARK    2  A    between atoms: C2_3  and  C3_5
REMARK       I    between atoms: C3_5  and  N1_7
REMARK    3  A    between atoms: N1_7  and  C4_9
REMARK    4  A    between atoms: C4_9  and  C5_10
REMARK    5  A    between atoms: C4_9  and  C19_33
REMARK       I    between atoms: C5_10  and  N2_12
REMARK    6  A    between atoms: N2_12  and  C6_14
REMARK    7  A    between atoms: C6_14  and  C7_15
REMARK    8  A    between atoms: C6_14  and  C16_30
REMARK       I    between atoms: C7_15  and  N3_17
REMARK    9  A    between atoms: N3_17  and  C8_19
REMARK   10  A    between atoms: C8_19  and  C9_20
REMARK   11  A    between atoms: C8_19  and  C13_25
REMARK   12  A    between atoms: C13_25  and  O7_28
ROOT
HETATM    1  C5  UNL     1      -4.426  22.643  10.111  1.00  0.00     0.241 C
HETATM    2  O4  UNL     1      -4.613  23.736   9.448  1.00  0.00    -0.271 OA
HETATM    3  N2  UNL     1      -3.493  22.711  11.147  1.00  0.00    -0.346 N
ATOM      4  H2  UNL     1      -3.289  21.892  11.718  1.00  0.00     0.163 HD
ENDROOT
BRANCH   3   5
HETATM    5  C6  UNL     1      -2.812  23.993  11.398  1.00  0.00     0.180 C
BRANCH   5   6
HETATM    6  C7  UNL     1      -1.369  23.789  11.287  1.00  0.00     0.241 C
HETATM    7  O5  UNL     1      -0.677  24.723  10.763  1.00  0.00    -0.271 OA
HETATM    8  N3  UNL     1      -0.677  22.600  11.740  1.00  0.00    -0.349 N
ATOM      9  H3  UNL     1      -1.216  21.843  12.160  1.00  0.00     0.163 HD
BRANCH   8  10
HETATM   10  C8  UNL     1       0.745  22.457  11.614  1.00  0.00     0.146 C
BRANCH  10  11
HETATM   11  C9  UNL     1       1.169  21.186  10.982  1.00  0.00     0.147 C
HETATM   12  C10 UNL     1       0.285  20.008  11.201  1.00  0.00     0.036 C
HETATM   13  C11 UNL     1       0.530  19.175   9.967  1.00  0.00     0.029 C
HETATM   14  C12 UNL     1       0.775  20.272   8.948  1.00  0.00     0.168 C
HETATM   15  O6  UNL     1       1.188  21.399   9.601  1.00  0.00    -0.384 OA
ENDBRANCH  10  11
BRANCH  10  16
HETATM   16  C13 UNL     1       1.417  22.823  12.913  1.00  0.00     0.073 C
HETATM   17  C14 UNL     1       1.995  24.200  12.936  1.00  0.00     0.047 C
HETATM   18  C15 UNL     1       0.602  22.573  14.128  1.00  0.00     0.047 C
BRANCH  16  19
HETATM   19  O7  UNL     1       2.530  21.935  13.013  1.00  0.00    -0.388 OA
ATOM     20  H7  UNL     1       2.313  21.352  13.730  1.00  0.00     0.210 HD
ENDBRANCH  16  19
ENDBRANCH  10  16
ENDBRANCH   8  10
ENDBRANCH   5   6
BRANCH   5  21
HETATM   21  C16 UNL     1      -3.265  24.391  12.804  1.00  0.00     0.009 C
HETATM   22  C17 UNL     1      -4.517  25.194  12.810  1.00  0.00     0.012 C
HETATM   23  C18 UNL     1      -2.165  25.126  13.538  1.00  0.00     0.012 C
ENDBRANCH   5  21
ENDBRANCH   3   5
BRANCH   1  24
HETATM   24  C4  UNL     1      -5.233  21.496   9.673  1.00  0.00     0.181 C
BRANCH  24  25
HETATM   25  N1  UNL     1      -5.903  21.824   8.491  1.00  0.00    -0.339 N
HETATM   26  C3  UNL     1      -7.168  21.758   7.912  1.00  0.00     0.317 C
HETATM   27  O3  UNL     1      -8.218  21.278   8.384  1.00  0.00    -0.262 OA
ATOM     28  H1  UNL     1      -5.250  22.253   7.836  1.00  0.00     0.163 HD
BRANCH  26  29
HETATM   29  C2  UNL     1      -7.357  22.329   6.541  1.00  0.00     0.351 C
HETATM   30  O2  UNL     1      -7.877  21.612   5.679  1.00  0.00    -0.254 OA
BRANCH  29  31
HETATM   31  O1  UNL     1      -6.955  23.606   6.287  1.00  0.00    -0.319 OA
HETATM   32  C1  UNL     1      -7.513  24.639   7.122  1.00  0.00     0.213 C
ENDBRANCH  29  31
ENDBRANCH  26  29
ENDBRANCH  24  25
BRANCH  24  33
HETATM   33  C19 UNL     1      -4.453  20.188   9.730  1.00  0.00     0.018 C
HETATM   34  C20 UNL     1      -3.060  20.230   9.229  1.00  0.00     0.007 C
HETATM   35  C21 UNL     1      -2.748  19.127   8.203  1.00  0.00     0.000 C
HETATM   36  C22 UNL     1      -3.875  19.050   7.192  1.00  0.00     0.000 C
HETATM   37  C23 UNL     1      -5.151  18.604   7.863  1.00  0.00     0.000 C
HETATM   38  C24 UNL     1      -5.214  18.987   9.305  1.00  0.00     0.007 C
ENDBRANCH  24  33
ENDBRANCH   1  24
TORSDOF 12
ENDMDL