MODEL 2
REMARK VINA RESULT: -6.597728892      0.931      1.174
REMARK  11 active torsions:
REMARK  status: ('A' for Active; 'I' for Inactive)
REMARK    1  A    between atoms: O1_2  and  C2_3
REMARK    2  A    between atoms: C2_3  and  C3_5
REMARK    3  A    between atoms: C3_5  and  N1_6
REMARK    4  A    between atoms: C3_5  and  C21_35
REMARK       I    between atoms: N1_6  and  C4_8
REMARK    5  A    between atoms: C4_8  and  C5_10
REMARK    6  A    between atoms: C5_10  and  N2_12
REMARK       I    between atoms: N2_12  and  C7_14
REMARK    7  A    between atoms: C7_14  and  C8_16
REMARK    8  A    between atoms: C8_16  and  N3_18
REMARK       I    between atoms: N3_18  and  C10_20
REMARK       I    between atoms: C10_20  and  N4_22
REMARK    9  A    between atoms: N4_22  and  C11_24
REMARK   10  A    between atoms: C14_27  and  O6_28
REMARK   11  A    between atoms: O6_28  and  C15_29
ROOT
HETATM    1  C8  UNL     1      -2.868  18.513   8.538  1.00  0.00     0.174 C
HETATM    2  C9  UNL     1      -2.997  17.750   7.243  1.00  0.00     0.042 C
ENDROOT
BRANCH   1   3
HETATM    3  C7  UNL     1      -4.216  18.938   8.970  1.00  0.00     0.240 C
HETATM    4  N2  UNL     1      -4.529  20.306   9.002  1.00  0.00    -0.346 N
ATOM      5  H2  UNL     1      -3.805  20.970   8.727  1.00  0.00     0.163 HD
HETATM    6  O4  UNL     1      -5.074  18.101   9.303  1.00  0.00    -0.271 OA
BRANCH   4   7
HETATM    7  C5  UNL     1      -5.836  20.840   9.405  1.00  0.00     0.172 C
HETATM    8  C6  UNL     1      -5.546  21.984  10.376  1.00  0.00     0.042 C
BRANCH   7   9
HETATM    9  C4  UNL     1      -6.508  21.332   8.195  1.00  0.00     0.240 C
HETATM   10  N1  UNL     1      -7.355  22.447   8.255  1.00  0.00    -0.345 N
ATOM     11  H1  UNL     1      -7.486  22.893   9.164  1.00  0.00     0.163 HD
HETATM   12  O3  UNL     1      -6.319  20.751   7.108  1.00  0.00    -0.271 OA
BRANCH  10  13
HETATM   13  C3  UNL     1      -8.057  23.012   7.126  1.00  0.00     0.187 C
BRANCH  13  14
HETATM   14  C2  UNL     1      -9.288  22.254   6.783  1.00  0.00     0.281 C
HETATM   15  O2  UNL     1      -9.689  21.303   7.501  1.00  0.00    -0.263 OA
BRANCH  14  16
HETATM   16  O1  UNL     1     -10.056  22.551   5.667  1.00  0.00    -0.325 OA
HETATM   17  C1  UNL     1     -10.760  21.606   4.903  1.00  0.00     0.213 C
ENDBRANCH  14  16
ENDBRANCH  13  14
BRANCH  13  18
HETATM   18  C21 UNL     1      -8.222  24.488   7.145  1.00  0.00     0.010 C
HETATM   19  C22 UNL     1      -6.969  25.271   7.327  1.00  0.00     0.012 C
HETATM   20  C23 UNL     1      -9.230  24.839   8.235  1.00  0.00     0.012 C
ENDBRANCH  13  18
ENDBRANCH  10  13
ENDBRANCH   7   9
ENDBRANCH   4   7
ENDBRANCH   1   3
BRANCH   1  21
HETATM   21  N3  UNL     1      -1.929  19.609   8.441  1.00  0.00    -0.330 N
HETATM   22  C10 UNL     1      -0.734  19.527   9.231  1.00  0.00     0.317 C
HETATM   23  O5  UNL     1      -0.520  18.533   9.990  1.00  0.00    -0.247 OA
HETATM   24  N4  UNL     1       0.222  20.573   9.162  1.00  0.00    -0.339 N
ATOM     25  H4  UNL     1       0.059  21.371   8.547  1.00  0.00     0.164 HD
ATOM     26  H3  UNL     1      -2.109  20.410   7.836  1.00  0.00     0.165 HD
BRANCH  24  27
HETATM   27  C11 UNL     1       1.417  20.514   9.951  1.00  0.00     0.086 C
HETATM   28  C12 UNL     1       1.489  21.635  10.952  1.00  0.00     0.028 C
HETATM   29  C13 UNL     1       1.976  22.886  10.248  1.00  0.00     0.034 C
HETATM   30  C14 UNL     1       3.400  22.749   9.773  1.00  0.00     0.122 C
HETATM   31  C19 UNL     1       3.771  21.294   9.616  1.00  0.00     0.034 C
HETATM   32  C20 UNL     1       2.632  20.479   9.048  1.00  0.00     0.028 C
BRANCH  30  33
HETATM   33  O6  UNL     1       3.499  23.323   8.522  1.00  0.00    -0.376 OA
BRANCH  33  34
HETATM   34  C15 UNL     1       4.517  24.227   8.371  1.00  0.00     0.050 C
HETATM   35  C16 UNL     1       5.136  24.684   9.671  1.00  0.00     0.045 C
HETATM   36  C17 UNL     1       3.928  25.464   7.697  1.00  0.00     0.045 C
HETATM   37  C18 UNL     1       5.607  23.729   7.431  1.00  0.00     0.045 C
ENDBRANCH  33  34
ENDBRANCH  30  33
ENDBRANCH  24  27
ENDBRANCH   1  21
TORSDOF 11
ENDMDL