MODEL 5
REMARK VINA RESULT: -8.082816608      1.907      8.270
REMARK  9 active torsions:
REMARK  status: ('A' for Active; 'I' for Inactive)
REMARK    1  A    between atoms: C2_2  and  N1_3
REMARK    2  A    between atoms: C2_2  and  C10_13
REMARK       I    between atoms: N1_3  and  C3_5
REMARK    3  A    between atoms: C3_5  and  C4_7
REMARK       I    between atoms: C10_13  and  N2_15
REMARK    4  A    between atoms: N2_15  and  C11_17
REMARK    5  A    between atoms: C11_17  and  C12_18
REMARK    6  A    between atoms: C11_17  and  C21_32
REMARK       I    between atoms: C12_18  and  N3_20
REMARK    7  A    between atoms: N3_20  and  C13_22
REMARK    8  A    between atoms: C13_22  and  C14_23
REMARK    9  A    between atoms: C19_28  and  C20_29
ROOT
HETATM    1  C11 UNL     1      -3.867  18.802   7.205  1.00  0.00     0.207 C
ENDROOT
BRANCH   1   2
HETATM    2  N2  UNL     1      -2.680  18.380   7.935  1.00  0.00    -0.344 N
HETATM    3  C10 UNL     1      -1.765  19.254   8.527  1.00  0.00     0.240 C
HETATM    4  O2  UNL     1      -1.979  20.490   8.436  1.00  0.00    -0.271 OA
ATOM      5  H2  UNL     1      -2.505  17.379   8.021  1.00  0.00     0.163 HD
BRANCH   3   6
HETATM    6  C2  UNL     1      -0.552  18.818   9.264  1.00  0.00     0.172 C
HETATM    7  C1  UNL     1      -0.441  17.342   9.443  1.00  0.00     0.042 C
BRANCH   6   8
HETATM    8  N1  UNL     1      -0.490  19.457  10.555  1.00  0.00    -0.348 N
HETATM    9  C3  UNL     1       0.484  20.414  10.878  1.00  0.00     0.222 C
HETATM   10  O1  UNL     1       1.331  20.722   9.980  1.00  0.00    -0.273 OA
ATOM     11  H1  UNL     1      -1.182  19.204  11.261  1.00  0.00     0.163 HD
BRANCH   9  12
HETATM   12  C4  UNL     1       0.591  21.083  12.180  1.00  0.00     0.078 C
HETATM   13  C5  UNL     1      -0.227  22.324  12.296  1.00  0.00     0.014 C
HETATM   14  C6  UNL     1      -0.270  22.942  13.650  1.00  0.00     0.001 C
HETATM   15  C7  UNL     1      -0.433  21.953  14.773  1.00  0.00     0.000 C
HETATM   16  C8  UNL     1       0.494  20.771  14.647  1.00  0.00     0.001 C
HETATM   17  C9  UNL     1       0.311  20.098  13.288  1.00  0.00     0.014 C
ENDBRANCH   9  12
ENDBRANCH   6   8
ENDBRANCH   3   6
ENDBRANCH   1   2
BRANCH   1  18
HETATM   18  C12 UNL     1      -4.888  19.332   8.177  1.00  0.00     0.243 C
HETATM   19  O3  UNL     1      -4.955  18.804   9.299  1.00  0.00    -0.271 OA
HETATM   20  N3  UNL     1      -5.751  20.398   7.848  1.00  0.00    -0.359 N
ATOM     21  H3  UNL     1      -5.667  20.800   6.915  1.00  0.00     0.162 HD
BRANCH  20  22
HETATM   22  C13 UNL     1      -6.730  20.956   8.717  1.00  0.00     0.128 C
BRANCH  22  23
HETATM   23  C14 UNL     1      -6.902  22.435   8.686  1.00  0.00     0.018 C
HETATM   24  C15 UNL     1      -7.819  23.002   9.718  1.00  0.00     0.007 C
HETATM   25  C16 UNL     1      -8.126  24.433   9.363  1.00  0.00     0.000 C
HETATM   26  C17 UNL     1      -7.069  25.070   8.485  1.00  0.00     0.001 C
HETATM   27  C18 UNL     1      -7.081  24.381   7.150  1.00  0.00     0.016 C
HETATM   28  C19 UNL     1      -7.266  22.885   7.278  1.00  0.00     0.092 C
BRANCH  28  29
HETATM   29  C20 UNL     1      -8.623  22.512   6.869  1.00  0.00     0.177 C
HETATM   30  O4  UNL     1      -9.151  21.381   6.987  1.00  0.00    -0.648 OA
HETATM   31  O5  UNL     1      -9.418  23.494   6.295  1.00  0.00    -0.648 OA
ENDBRANCH  28  29
ENDBRANCH  22  23
ENDBRANCH  20  22
ENDBRANCH   1  18
BRANCH   1  32
HETATM   32  C21 UNL     1      -4.403  17.608   6.513  1.00  0.00     0.179 C
HETATM   33  C22 UNL     1      -3.326  16.750   5.882  1.00  0.00     0.205 C
HETATM   34  O6  UNL     1      -4.079  15.951   5.022  1.00  0.00    -0.364 OA
HETATM   35  C23 UNL     1      -5.321  16.544   4.869  1.00  0.00     0.338 C
HETATM   36  O7  UNL     1      -5.255  17.812   5.465  1.00  0.00    -0.357 OA
ENDBRANCH   1  32
TORSDOF 9
ENDMDL