MODEL 3
REMARK VINA RESULT: -6.126663487      4.761      8.024
REMARK  9 active torsions:
REMARK  status: ('A' for Active; 'I' for Inactive)
REMARK    1  A    between atoms: N1_2  and  C2_4
REMARK    2  A    between atoms: C2_4  and  C3_5
REMARK    3  A    between atoms: C2_4  and  C22_35
REMARK       I    between atoms: C3_5  and  N2_7
REMARK    4  A    between atoms: N2_7  and  C4_9
REMARK    5  A    between atoms: C9_14  and  N3_15
REMARK       I    between atoms: N3_15  and  C10_17
REMARK    6  A    between atoms: C10_17  and  C11_19
REMARK    7  A    between atoms: C11_19  and  N4_20
REMARK    8  A    between atoms: C11_19  and  C19_32
REMARK       I    between atoms: N4_20  and  C12_22
REMARK    9  A    between atoms: C12_22  and  C13_24
ROOT
HETATM    1  N3  UNL     1       3.243  21.006  10.469  1.00  0.00    -0.353 N
ATOM      2  H3  UNL     1       3.131  21.077  11.480  1.00  0.00     0.163 HD
HETATM    3  C10 UNL     1       2.157  20.613   9.676  1.00  0.00     0.241 C
HETATM    4  O2  UNL     1       2.312  20.530   8.425  1.00  0.00    -0.271 OA
ENDROOT
BRANCH   1   5
HETATM    5  C9  UNL     1       4.512  21.311   9.871  1.00  0.00     0.107 C
HETATM    6  C4  UNL     1       4.779  22.761   9.650  1.00  0.00     0.107 C
HETATM    7  C5  UNL     1       5.992  22.885   8.763  1.00  0.00     0.027 C
HETATM    8  C6  UNL     1       7.005  21.797   9.008  1.00  0.00     0.002 C
HETATM    9  C7  UNL     1       6.947  21.236  10.394  1.00  0.00     0.002 C
HETATM   10  C8  UNL     1       5.576  20.829  10.849  1.00  0.00     0.027 C
BRANCH   6  11
HETATM   11  N2  UNL     1       3.694  23.486   9.011  1.00  0.00    -0.353 N
HETATM   12  C3  UNL     1       2.612  24.030   9.705  1.00  0.00     0.240 C
HETATM   13  O1  UNL     1       2.628  23.851  10.976  1.00  0.00    -0.271 OA
ATOM     14  H2  UNL     1       3.724  23.603   7.998  1.00  0.00     0.163 HD
BRANCH  12  15
HETATM   15  C2  UNL     1       1.467  24.774   9.192  1.00  0.00     0.172 C
BRANCH  15  16
HETATM   16  N1  UNL     1       0.808  25.551  10.233  1.00  0.00    -0.413 N
HETATM   17  C1  UNL     1       1.282  26.884  10.374  1.00  0.00     0.140 C
ATOM     18  H1  UNL     1       0.063  25.168  10.817  1.00  0.00     0.153 HD
ENDBRANCH  15  16
BRANCH  15  19
HETATM   19  C22 UNL     1       0.379  23.943   8.558  1.00  0.00     0.009 C
HETATM   20  C23 UNL     1       0.165  24.204   7.109  1.00  0.00     0.012 C
HETATM   21  C24 UNL     1      -0.909  24.332   9.298  1.00  0.00     0.012 C
ENDBRANCH  15  19
ENDBRANCH  12  15
ENDBRANCH   6  11
ENDBRANCH   1   5
BRANCH   3  22
HETATM   22  C11 UNL     1       0.813  20.280  10.209  1.00  0.00     0.180 C
BRANCH  22  23
HETATM   23  N4  UNL     1       0.310  21.367  11.037  1.00  0.00    -0.343 N
HETATM   24  C12 UNL     1       0.199  21.219  12.437  1.00  0.00     0.273 C
HETATM   25  O3  UNL     1       0.540  20.137  12.960  1.00  0.00    -0.268 OA
ATOM     26  H4  UNL     1       0.033  22.246  10.600  1.00  0.00     0.163 HD
BRANCH  24  27
HETATM   27  C13 UNL     1      -0.311  22.329  13.256  1.00  0.00     0.353 C
HETATM   28  O4  UNL     1       0.206  22.230  14.542  1.00  0.00    -0.352 OA
HETATM   29  C14 UNL     1      -0.585  22.993  15.383  1.00  0.00     0.182 C
HETATM   30  C15 UNL     1      -0.801  24.357  14.792  1.00  0.00    -0.004 C
HETATM   31  C16 UNL     1      -2.240  24.568  14.368  1.00  0.00     0.019 C
HETATM   32  C17 UNL     1      -0.509  25.388  15.868  1.00  0.00     0.019 C
HETATM   33  C18 UNL     1       0.059  24.596  13.583  1.00  0.00     0.182 C
HETATM   34  O5  UNL     1      -0.072  23.571  12.674  1.00  0.00    -0.352 OA
ENDBRANCH  24  27
ENDBRANCH  22  23
BRANCH  22  35
HETATM   35  C19 UNL     1      -0.168  19.927   9.134  1.00  0.00     0.009 C
HETATM   36  C20 UNL     1      -1.482  20.681   9.298  1.00  0.00     0.012 C
HETATM   37  C21 UNL     1      -0.506  18.447   9.299  1.00  0.00     0.012 C
ENDBRANCH  22  35
ENDBRANCH   3  22
TORSDOF 9
ENDMDL