MODEL 2
REMARK VINA RESULT: -6.068811797      6.637     11.224
REMARK  10 active torsions:
REMARK  status: ('A' for Active; 'I' for Inactive)
REMARK    1  A    between atoms: C2_2  and  C3_3
REMARK    2  A    between atoms: C3_3  and  C5_5
REMARK    3  A    between atoms: C5_5  and  N1_6
REMARK    4  A    between atoms: C5_5  and  C14_21
REMARK       I    between atoms: N1_6  and  C6_8
REMARK    5  A    between atoms: C6_8  and  C7_10
REMARK    6  A    between atoms: C7_10  and  C8_11
REMARK    7  A    between atoms: C7_10  and  N2_13
REMARK       I    between atoms: N2_13  and  C9_15
REMARK    8  A    between atoms: C9_15  and  C10_17
REMARK       I    between atoms: C14_21  and  N3_23
REMARK    9  A    between atoms: C18_27  and  C19_28
REMARK       I    between atoms: C19_28  and  N4_30
REMARK   10  A    between atoms: N4_30  and  C20_32
ROOT
HETATM    1  C5  UNL     1       3.836  21.380   8.127  1.00  0.00     0.180 C
ENDROOT
BRANCH   1   2
HETATM    2  C3  UNL     1       5.042  21.185   8.968  1.00  0.00     0.013 C
HETATM    3  C4  UNL     1       4.739  21.521  10.440  1.00  0.00     0.012 C
BRANCH   2   4
HETATM    4  C2  UNL     1       6.251  21.938   8.598  1.00  0.00     0.002 C
HETATM    5  C1  UNL     1       7.154  21.262   7.623  1.00  0.00     0.005 C
ENDBRANCH   2   4
ENDBRANCH   1   2
BRANCH   1   6
HETATM    6  N1  UNL     1       2.639  21.164   8.965  1.00  0.00    -0.346 N
HETATM    7  C6  UNL     1       1.779  20.077   8.879  1.00  0.00     0.242 C
HETATM    8  O1  UNL     1       2.000  19.207   7.994  1.00  0.00    -0.271 OA
ATOM      9  H1  UNL     1       2.426  21.873   9.666  1.00  0.00     0.163 HD
BRANCH   7  10
HETATM   10  C7  UNL     1       0.631  19.878   9.755  1.00  0.00     0.186 C
BRANCH  10  11
HETATM   11  C8  UNL     1      -0.115  18.603   9.670  1.00  0.00     0.120 C
HETATM   12  S1  UNL     1      -1.762  18.683   8.984  1.00  0.00    -0.095 SA
ENDBRANCH  10  11
BRANCH  10  13
HETATM   13  N2  UNL     1       0.855  20.199  11.155  1.00  0.00    -0.346 N
HETATM   14  C9  UNL     1       0.232  21.223  11.850  1.00  0.00     0.226 C
HETATM   15  O2  UNL     1      -0.577  21.964  11.244  1.00  0.00    -0.273 OA
ATOM     16  H2  UNL     1       1.525  19.625  11.667  1.00  0.00     0.163 HD
BRANCH  14  17
HETATM   17  C10 UNL     1       0.499  21.452  13.283  1.00  0.00     0.030 C
HETATM   18  C11 UNL     1       1.857  22.110  13.412  1.00  0.00     0.024 C
HETATM   19  C12 UNL     1      -0.571  22.435  13.818  1.00  0.00     0.024 C
HETATM   20  C13 UNL     1       0.392  20.230  14.106  1.00  0.00     0.024 C
ENDBRANCH  14  17
ENDBRANCH  10  13
ENDBRANCH   7  10
ENDBRANCH   1   6
BRANCH   1  21
HETATM   21  C14 UNL     1       3.651  22.767   7.589  1.00  0.00     0.243 C
HETATM   22  O3  UNL     1       3.081  23.598   8.333  1.00  0.00    -0.271 OA
HETATM   23  N3  UNL     1       4.069  23.198   6.310  1.00  0.00    -0.337 N
HETATM   24  C15 UNL     1       4.657  22.511   5.183  1.00  0.00     0.127 C
HETATM   25  C18 UNL     1       4.022  24.578   5.840  1.00  0.00     0.179 C
HETATM   26  C16 UNL     1       5.691  23.509   4.633  1.00  0.00     0.022 C
HETATM   27  C17 UNL     1       5.483  24.754   5.486  1.00  0.00     0.037 C
BRANCH  25  28
HETATM   28  C19 UNL     1       3.186  24.787   4.650  1.00  0.00     0.241 C
HETATM   29  O4  UNL     1       3.587  25.466   3.670  1.00  0.00    -0.271 OA
HETATM   30  N4  UNL     1       1.880  24.243   4.538  1.00  0.00    -0.351 N
ATOM     31  H4  UNL     1       1.518  23.686   5.313  1.00  0.00     0.163 HD
BRANCH  30  32
HETATM   32  C20 UNL     1       1.045  24.436   3.395  1.00  0.00     0.022 C
HETATM   33  C21 UNL     1      -0.376  23.912   3.611  1.00  0.00     0.037 C
HETATM   34  C22 UNL     1       0.928  25.909   3.072  1.00  0.00     0.037 C
HETATM   35  C23 UNL     1       1.593  23.677   2.204  1.00  0.00     0.037 C
ENDBRANCH  30  32
ENDBRANCH  25  28
ENDBRANCH   1  21
TORSDOF 10
ENDMDL