MODEL 2
REMARK VINA RESULT: -8.438374832      1.593      2.207
REMARK  11 active torsions:
REMARK  status: ('A' for Active; 'I' for Inactive)
REMARK    1  A    between atoms: N2_5  and  C2_6
REMARK    2  A    between atoms: C2_6  and  O2_7
REMARK    3  A    between atoms: C3_9  and  C4_10
REMARK    4  A    between atoms: C3_9  and  C11_17
REMARK    5  A    between atoms: C4_10  and  C5_11
REMARK    6  A    between atoms: C11_17  and  N3_18
REMARK    7  A    between atoms: C15_25  and  C16_26
REMARK    8  A    between atoms: C16_26  and  C17_27
REMARK    9  A    between atoms: C17_27  and  O4_28
REMARK   10  A    between atoms: C18_32  and  C19_33
REMARK   11  A    between atoms: C19_33  and  C20_34
ROOT
HETATM    1  O1  UNL     1      -6.106  19.644   8.633  1.00  0.00    -0.269 OA
HETATM    2  C1  UNL     1      -4.870  19.609   8.744  1.00  0.00     0.259 C
HETATM    3  N1  UNL     1      -4.111  20.447   9.633  1.00  0.00    -0.258 N
ATOM      4  H1  UNL     1      -4.573  20.869  10.438  1.00  0.00     0.190 HD
HETATM    5  N2  UNL     1      -2.716  20.703   9.410  1.00  0.00    -0.219 N
HETATM    6  C15 UNL     1      -2.042  19.631   8.777  1.00  0.00     0.104 C
HETATM    7  N5  UNL     1      -2.781  19.068   7.636  1.00  0.00    -0.365 N
ATOM      8  H5  UNL     1      -2.368  18.990   6.707  1.00  0.00     0.161 HD
HETATM    9  C18 UNL     1      -4.105  18.639   7.911  1.00  0.00     0.177 C
ENDROOT
BRANCH   5  10
HETATM   10  C2  UNL     1      -2.254  21.954   9.851  1.00  0.00     0.167 C
HETATM   11  C3  UNL     1      -0.942  22.464  10.185  1.00  0.00    -0.009 C
BRANCH  10  12
HETATM   12  O2  UNL     1      -3.173  22.906  10.007  1.00  0.00    -0.344 OA
ATOM     13  H2  UNL     1      -3.383  23.149  10.902  1.00  0.00     0.219 HD
ENDBRANCH  10  12
BRANCH  11  14
HETATM   14  C4  UNL     1      -0.054  21.689  11.080  1.00  0.00     0.045 C
BRANCH  14  15
HETATM   15  C5  UNL     1       0.477  22.443  12.261  1.00  0.00    -0.010 C
HETATM   16  C6  UNL     1       1.308  21.655  13.203  1.00  0.00     0.005 C
HETATM   17  C7  UNL     1       0.453  20.668  13.998  1.00  0.00     0.000 C
HETATM   18  C8  UNL     1      -0.327  21.504  15.003  1.00  0.00     0.000 C
HETATM   19  C9  UNL     1      -0.492  22.931  14.521  1.00  0.00     0.000 C
HETATM   20  C10 UNL     1      -0.710  23.000  13.021  1.00  0.00     0.005 C
ENDBRANCH  14  15
ENDBRANCH  11  14
BRANCH  11  21
HETATM   21  C11 UNL     1      -0.209  23.125   9.054  1.00  0.00     0.166 C
BRANCH  21  22
HETATM   22  N3  UNL     1       0.134  24.492   9.191  1.00  0.00    -0.329 N
HETATM   23  C12 UNL     1       1.493  25.005   9.306  1.00  0.00     0.147 C
HETATM   24  C13 UNL     1       1.357  26.477   9.605  1.00  0.00     0.144 C
HETATM   25  N4  UNL     1      -0.036  26.797   9.441  1.00  0.00    -0.341 N
HETATM   26  C14 UNL     1      -0.776  25.583   9.249  1.00  0.00     0.318 C
ATOM     27  H4  UNL     1      -0.434  27.736   9.459  1.00  0.00     0.164 HD
HETATM   28  O3  UNL     1      -2.033  25.586   9.158  1.00  0.00    -0.247 OA
ENDBRANCH  21  22
ENDBRANCH  11  21
ENDBRANCH   5  10
BRANCH   6  29
HETATM   29  C16 UNL     1      -1.413  18.570   9.582  1.00  0.00     0.104 C
BRANCH  29  30
HETATM   30  C17 UNL     1      -0.544  17.556   8.963  1.00  0.00     0.171 C
BRANCH  30  31
HETATM   31  O4  UNL     1      -0.835  16.236   9.303  1.00  0.00    -0.400 OA
ATOM     32  H4  UNL     1      -1.759  16.026   9.361  1.00  0.00     0.209 HD
ENDBRANCH  30  31
ENDBRANCH  29  30
ENDBRANCH   6  29
BRANCH   9  33
HETATM   33  C19 UNL     1      -4.857  18.583   6.578  1.00  0.00     0.039 C
BRANCH  33  34
HETATM   34  C20 UNL     1      -4.455  17.491   5.671  1.00  0.00    -0.012 C
HETATM   35  C21 UNL     1      -5.719  16.795   5.193  1.00  0.00     0.005 C
HETATM   36  C22 UNL     1      -5.318  15.846   4.103  1.00  0.00     0.000 C
HETATM   37  C23 UNL     1      -3.874  15.968   3.700  1.00  0.00     0.000 C
HETATM   38  C24 UNL     1      -2.920  15.808   4.847  1.00  0.00     0.000 C
HETATM   39  C25 UNL     1      -3.378  16.569   6.095  1.00  0.00     0.005 C
ENDBRANCH  33  34
ENDBRANCH   9  33
TORSDOF 11
ENDMDL