MODEL 2
REMARK VINA RESULT: -7.237218562      2.335      8.565
REMARK  11 active torsions:
REMARK  status: ('A' for Active; 'I' for Inactive)
REMARK    1  A    between atoms: C2_2  and  C4_4
REMARK    2  A    between atoms: C4_4  and  C5_5
REMARK    3  A    between atoms: C5_5  and  N1_6
REMARK    4  A    between atoms: C5_5  and  C11_15
REMARK       I    between atoms: N1_6  and  C6_8
REMARK    5  A    between atoms: C6_8  and  O2_10
REMARK    6  A    between atoms: O2_10  and  C7_11
REMARK       I    between atoms: C11_15  and  N2_17
REMARK    7  A    between atoms: N2_17  and  C12_19
REMARK    8  A    between atoms: C12_19  and  C13_20
REMARK    9  A    between atoms: C12_19  and  C22_32
REMARK       I    between atoms: C13_20  and  N3_22
REMARK   10  A    between atoms: N3_22  and  C14_24
REMARK   11  A    between atoms: C22_32  and  C23_34
ROOT
HETATM    1  C11 UNL     1       0.174 -20.761  11.989  1.00  0.00     0.241 C
HETATM    2  O3  UNL     1       0.054 -21.442  10.916  1.00  0.00    -0.271 OA
HETATM    3  N2  UNL     1       1.205 -19.811  11.996  1.00  0.00    -0.339 N
ATOM      4  H2  UNL     1       1.339 -19.252  12.839  1.00  0.00     0.163 HD
ENDROOT
BRANCH   3   5
HETATM    5  C12 UNL     1       2.100 -19.578  10.860  1.00  0.00     0.256 C
BRANCH   5   6
HETATM    6  C13 UNL     1       3.343 -20.377  11.035  1.00  0.00     0.249 C
HETATM    7  O4  UNL     1       3.454 -21.053  12.085  1.00  0.00    -0.271 OA
HETATM    8  N3  UNL     1       4.343 -20.378  10.078  1.00  0.00    -0.349 N
ATOM      9  H3  UNL     1       4.181 -19.804   9.250  1.00  0.00     0.163 HD
BRANCH   8  10
HETATM   10  C14 UNL     1       5.587 -21.101  10.125  1.00  0.00     0.037 C
HETATM   11  C15 UNL     1       6.399 -21.142   8.848  1.00  0.00     0.036 C
HETATM   12  C16 UNL     1       7.155 -22.432   9.013  1.00  0.00    -0.011 C
HETATM   13  C17 UNL     1       7.997 -22.329  10.263  1.00  0.00     0.010 C
HETATM   14  C21 UNL     1       6.048 -23.346   9.553  1.00  0.00     0.012 C
HETATM   15  C18 UNL     1       6.928 -22.129  11.335  1.00  0.00    -0.005 C
HETATM   16  C19 UNL     1       6.493 -20.677  11.297  1.00  0.00     0.036 C
HETATM   17  C20 UNL     1       5.604 -22.469  10.693  1.00  0.00     0.018 C
ENDBRANCH   8  10
ENDBRANCH   5   6
BRANCH   5  18
HETATM   18  C22 UNL     1       2.424 -18.140  10.908  1.00  0.00     0.245 C
HETATM   19  O5  UNL     1       3.612 -17.784  11.040  1.00  0.00    -0.285 OA
BRANCH  18  20
HETATM   20  C23 UNL     1       1.386 -17.146  10.810  1.00  0.00     0.303 C
HETATM   21  N4  UNL     1       1.489 -16.061   9.888  1.00  0.00    -0.054 NA
HETATM   22  O6  UNL     1       0.355 -17.189  11.520  1.00  0.00    -0.268 OA
ENDBRANCH  18  20
ENDBRANCH   5  18
ENDBRANCH   3   5
BRANCH   1  23
HETATM   23  C5  UNL     1      -0.755 -21.028  13.096  1.00  0.00     0.179 C
BRANCH  23  24
HETATM   24  C4  UNL     1      -0.504 -20.200  14.336  1.00  0.00     0.038 C
BRANCH  24  25
HETATM   25  C2  UNL     1      -0.947 -20.781  15.621  1.00  0.00    -0.020 C
HETATM   26  C1  UNL     1      -0.470 -22.254  15.618  1.00  0.00     0.009 C
HETATM   27  C3  UNL     1      -0.276 -20.153  16.828  1.00  0.00     0.009 C
ENDBRANCH  24  25
ENDBRANCH  23  24
BRANCH  23  28
HETATM   28  N1  UNL     1      -2.099 -20.574  12.655  1.00  0.00    -0.324 N
HETATM   29  C6  UNL     1      -3.110 -21.547  12.376  1.00  0.00     0.362 C
HETATM   30  O1  UNL     1      -2.835 -22.768  12.512  1.00  0.00    -0.238 OA
ATOM     31  H1  UNL     1      -2.299 -19.579  12.552  1.00  0.00     0.165 HD
BRANCH  29  32
HETATM   32  O2  UNL     1      -4.376 -21.206  11.966  1.00  0.00    -0.294 OA
BRANCH  32  33
HETATM   33  C7  UNL     1      -5.534 -21.422  12.756  1.00  0.00     0.061 C
HETATM   34  C8  UNL     1      -6.156 -22.720  12.306  1.00  0.00     0.046 C
HETATM   35  C9  UNL     1      -5.225 -21.508  14.230  1.00  0.00     0.046 C
HETATM   36  C10 UNL     1      -6.553 -20.320  12.541  1.00  0.00     0.046 C
ENDBRANCH  32  33
ENDBRANCH  29  32
ENDBRANCH  23  28
ENDBRANCH   1  23
TORSDOF 11
ENDMDL