MODEL 5
REMARK VINA RESULT: -6.973505931      2.164      3.361
REMARK  11 active torsions:
REMARK  status: ('A' for Active; 'I' for Inactive)
REMARK    1  A    between atoms: C5_6  and  C6_7
REMARK    2  A    between atoms: C6_7  and  C7_8
REMARK    3  A    between atoms: C7_8  and  N1_9
REMARK    4  A    between atoms: C8_13  and  N2_14
REMARK    5  A    between atoms: N2_14  and  S2_16
REMARK    6  A    between atoms: S2_16  and  N3_19
REMARK    7  A    between atoms: N3_19  and  C9_21
REMARK    8  A    between atoms: C9_21  and  C10_25
REMARK    9  A    between atoms: C10_25  and  C11_26
REMARK   10  A    between atoms: C11_26  and  C12_27
REMARK   11  A    between atoms: C12_27  and  C13_28
ROOT
HETATM    1  N2  UNL     1       0.581 -21.443  12.689  1.00  0.00    -0.296 N
ATOM      2  H2  UNL     1       1.561 -21.684  12.835  1.00  0.00     0.174 HD
ENDROOT
BRANCH   1   3
HETATM    3  C8  UNL     1      -0.507 -22.270  13.037  1.00  0.00     0.119 C
HETATM    4  C5  UNL     1      -0.687 -22.652  14.471  1.00  0.00     0.045 C
HETATM    5  C4  UNL     1      -1.601 -23.883  14.313  1.00  0.00     0.156 C
HETATM    6  S1  UNL     1      -3.341 -23.455  14.474  1.00  0.00    -0.138 SA
HETATM    7  N5  UNL     1      -1.382 -24.377  12.983  1.00  0.00    -0.332 N
HETATM    8  C3  UNL     1      -4.391 -24.571  13.499  1.00  0.00     0.119 C
HETATM    9  C2  UNL     1      -3.543 -25.665  12.961  1.00  0.00     0.010 C
HETATM   10  C1  UNL     1      -4.038 -26.874  12.897  1.00  0.00     0.025 C
HETATM   11  C21 UNL     1      -2.173 -25.433  12.502  1.00  0.00     0.250 C
HETATM   12  O3  UNL     1      -1.669 -26.217  11.629  1.00  0.00    -0.268 OA
HETATM   13  C20 UNL     1      -0.311 -23.641  12.337  1.00  0.00     0.153 C
BRANCH   4  14
HETATM   14  C6  UNL     1      -1.391 -21.586  15.229  1.00  0.00     0.037 C
BRANCH  14  15
HETATM   15  C7  UNL     1      -0.614 -20.883  16.293  1.00  0.00     0.230 C
BRANCH  15  16
HETATM   16  N1  UNL     1      -0.749 -19.435  16.054  1.00  0.00    -0.079 N
ATOM     17  H13 UNL     1       0.031 -19.044  15.525  1.00  0.00     0.274 HD
ATOM     18  H12 UNL     1      -1.487 -19.209  15.387  1.00  0.00     0.274 HD
ATOM     19  H11 UNL     1      -0.880 -18.987  16.961  1.00  0.00     0.274 HD
ENDBRANCH  15  16
ENDBRANCH  14  15
ENDBRANCH   4  14
ENDBRANCH   1   3
BRANCH   1  20
HETATM   20  S2  UNL     1       0.033 -19.978  11.989  1.00  0.00     0.320 S
HETATM   21  O1  UNL     1      -0.080 -18.889  13.046  1.00  0.00    -0.182 OA
HETATM   22  O2  UNL     1      -1.346 -20.144  11.376  1.00  0.00    -0.182 OA
BRANCH  20  23
HETATM   23  N3  UNL     1       1.096 -19.408  10.764  1.00  0.00    -0.257 N
ATOM     24  H3  UNL     1       1.384 -20.044  10.020  1.00  0.00     0.181 HD
BRANCH  23  25
HETATM   25  C9  UNL     1       1.583 -18.077  10.763  1.00  0.00     0.085 C
HETATM   26  N4  UNL     1       0.734 -17.115  10.768  1.00  0.00    -0.388 N
ATOM     27  H42 UNL     1      -0.265 -17.315  10.771  1.00  0.00     0.157 HD
ATOM     28  H41 UNL     1       1.084 -16.157  10.766  1.00  0.00     0.157 HD
BRANCH  25  29
HETATM   29  C10 UNL     1       3.028 -17.788  10.758  1.00  0.00     0.076 C
BRANCH  29  30
HETATM   30  C11 UNL     1       3.799 -19.033  11.128  1.00  0.00     0.008 C
BRANCH  30  31
HETATM   31  C12 UNL     1       5.027 -19.180  10.270  1.00  0.00     0.010 C
BRANCH  31  32
HETATM   32  C13 UNL     1       5.851 -20.384  10.671  1.00  0.00     0.018 C
HETATM   33  C14 UNL     1       6.029 -21.199   9.389  1.00  0.00    -0.025 C
HETATM   34  C15 UNL     1       6.692 -22.467   9.354  1.00  0.00    -0.029 C
HETATM   35  C16 UNL     1       5.972 -23.799   9.537  1.00  0.00     0.038 C
HETATM   36  C17 UNL     1       5.226 -23.865  10.917  1.00  0.00     0.083 C
HETATM   37  C18 UNL     1       5.132 -22.537  11.362  1.00  0.00    -0.182 C
HETATM   38  C19 UNL     1       5.058 -21.195  11.756  1.00  0.00     0.088 C
ENDBRANCH  31  32
ENDBRANCH  30  31
ENDBRANCH  29  30
ENDBRANCH  25  29
ENDBRANCH  23  25
ENDBRANCH  20  23
ENDBRANCH   1  20
TORSDOF 11
ENDMDL