MODEL 4
REMARK VINA RESULT: -6.783148754      4.686      9.240
REMARK  10 active torsions:
REMARK  status: ('A' for Active; 'I' for Inactive)
REMARK    1  A    between atoms: C3_3  and  N1_4
REMARK    2  A    between atoms: N1_4  and  C4_6
REMARK    3  A    between atoms: C4_6  and  O1_7
REMARK    4  A    between atoms: C4_6  and  C5_9
REMARK    5  A    between atoms: C5_9  and  C6_10
REMARK    6  A    between atoms: C5_9  and  C17_29
REMARK       I    between atoms: C6_10  and  N2_12
REMARK    7  A    between atoms: N2_12  and  C7_14
REMARK    8  A    between atoms: C7_14  and  C9_16
REMARK    9  A    between atoms: C9_16  and  C10_18
REMARK       I    between atoms: C10_18  and  N3_20
REMARK   10  A    between atoms: N3_20  and  C11_22
ROOT
HETATM    1  C1  UNL     1       6.034 -21.188   8.935  1.00  0.00     0.099 C
HETATM    2  C2  UNL     1       5.781 -20.640   9.996  1.00  0.00    -0.157 C
HETATM    3  C3  UNL     1       5.497 -19.995  11.307  1.00  0.00     0.080 C
HETATM    4  C20 UNL     1       4.163 -20.582  11.867  1.00  0.00     0.043 C
HETATM    5  C21 UNL     1       3.137 -20.850  10.855  1.00  0.00     0.003 C
HETATM    6  C22 UNL     1       1.908 -19.995  10.950  1.00  0.00     0.000 C
HETATM    7  C23 UNL     1       2.239 -18.522  11.117  1.00  0.00     0.000 C
HETATM    8  C24 UNL     1       2.992 -18.041   9.927  1.00  0.00     0.000 C
HETATM    9  C25 UNL     1       4.444 -18.175   9.884  1.00  0.00     0.003 C
HETATM   10  C26 UNL     1       5.203 -18.542  11.117  1.00  0.00     0.043 C
ENDROOT
BRANCH   3  11
HETATM   11  N1  UNL     1       6.487 -20.378  12.200  1.00  0.00    -0.378 N
ATOM     12  H1  UNL     1       6.957 -19.580  12.627  1.00  0.00     0.157 HD
BRANCH  11  13
HETATM   13  C4  UNL     1       6.975 -21.557  12.635  1.00  0.00     0.228 C
BRANCH  13  14
HETATM   14  O1  UNL     1       6.123 -22.230  13.571  1.00  0.00    -0.376 OA
ATOM     15  H1  UNL     1       5.238 -22.369  13.255  1.00  0.00     0.212 HD
ENDBRANCH  13  14
BRANCH  13  16
HETATM   16  C5  UNL     1       7.308 -22.603  11.619  1.00  0.00     0.129 C
BRANCH  16  17
HETATM   17  C6  UNL     1       6.807 -23.973  11.992  1.00  0.00     0.227 C
HETATM   18  O2  UNL     1       7.598 -24.827  12.446  1.00  0.00    -0.273 OA
HETATM   19  N2  UNL     1       5.446 -24.319  11.838  1.00  0.00    -0.349 N
ATOM     20  H2  UNL     1       4.832 -23.598  11.460  1.00  0.00     0.163 HD
BRANCH  19  21
HETATM   21  C7  UNL     1       4.834 -25.580  12.158  1.00  0.00     0.160 C
HETATM   22  C8  UNL     1       4.806 -26.501  10.936  1.00  0.00     0.041 C
BRANCH  21  23
HETATM   23  C9  UNL     1       3.412 -25.416  12.557  1.00  0.00     0.238 C
HETATM   24  O3  UNL     1       2.553 -26.291  12.242  1.00  0.00    -0.285 OA
BRANCH  23  25
HETATM   25  C10 UNL     1       2.981 -24.261  13.313  1.00  0.00     0.289 C
HETATM   26  O4  UNL     1       3.799 -23.677  14.052  1.00  0.00    -0.264 OA
HETATM   27  N3  UNL     1       1.643 -23.767  13.238  1.00  0.00    -0.350 N
ATOM     28  H3  UNL     1       0.984 -24.252  12.629  1.00  0.00     0.163 HD
BRANCH  27  29
HETATM   29  C11 UNL     1       1.172 -22.620  13.975  1.00  0.00     0.088 C
HETATM   30  C12 UNL     1       0.642 -23.000  15.333  1.00  0.00     0.055 C
HETATM   31  C13 UNL     1      -0.823 -22.714  15.451  1.00  0.00     0.274 C
HETATM   32  N4  UNL     1      -0.974 -21.260  15.357  1.00  0.00     0.084 N
HETATM   33  C14 UNL     1      -0.341 -20.614  16.499  1.00  0.00     0.309 C
HETATM   34  C15 UNL     1      -0.433 -20.780  14.110  1.00  0.00     0.274 C
HETATM   35  C16 UNL     1       0.129 -21.843  13.226  1.00  0.00     0.055 C
ENDBRANCH  27  29
ENDBRANCH  23  25
ENDBRANCH  21  23
ENDBRANCH  19  21
ENDBRANCH  16  17
BRANCH  16  36
HETATM   36  C17 UNL     1       8.814 -22.615  11.448  1.00  0.00    -0.006 C
HETATM   37  C18 UNL     1       9.265 -21.810  10.265  1.00  0.00     0.010 C
HETATM   38  C19 UNL     1       9.495 -22.036  12.685  1.00  0.00     0.010 C
ENDBRANCH  16  36
ENDBRANCH  13  16
ENDBRANCH  11  13
ENDBRANCH   3  11
TORSDOF 10
ENDMDL