MODEL 2
REMARK VINA RESULT: -6.785779686      1.751      4.919
REMARK  10 active torsions:
REMARK  status: ('A' for Active; 'I' for Inactive)
REMARK    1  A    between atoms: N1_2  and  C2_4
REMARK    2  A    between atoms: C2_4  and  C4_6
REMARK       I    between atoms: C4_6  and  N2_8
REMARK    3  A    between atoms: N2_8  and  C5_10
REMARK    4  A    between atoms: C6_11  and  N3_12
REMARK       I    between atoms: N3_12  and  C7_14
REMARK    5  A    between atoms: C7_14  and  C8_16
REMARK    6  A    between atoms: C8_16  and  N4_17
REMARK    7  A    between atoms: C8_16  and  C9_21
REMARK    8  A    between atoms: C9_21  and  C10_22
REMARK    9  A    between atoms: C19_31  and  C20_32
REMARK   10  A    between atoms: C20_32  and  N5_33
ROOT
HETATM    1  C5  UNL     1       5.287 -23.639  10.622  1.00  0.00     0.137 C
HETATM    2  C6  UNL     1       6.191 -22.451  10.720  1.00  0.00     0.119 C
HETATM    3  C19 UNL     1       7.198 -22.662   9.558  1.00  0.00     0.055 C
HETATM    4  C23 UNL     1       7.320 -24.120   9.531  1.00  0.00     0.030 C
HETATM    5  C24 UNL     1       7.888 -24.802  10.750  1.00  0.00     0.034 C
HETATM    6  C25 UNL     1       7.234 -26.180  10.576  1.00  0.00     0.168 C
HETATM    7  O3  UNL     1       5.972 -25.894  10.156  1.00  0.00    -0.383 OA
HETATM    8  C26 UNL     1       5.854 -24.619   9.678  1.00  0.00     0.151 C
ENDROOT
BRANCH   2   9
HETATM    9  N3  UNL     1       5.490 -21.207  10.357  1.00  0.00    -0.352 N
HETATM   10  C7  UNL     1       5.462 -20.085  11.181  1.00  0.00     0.248 C
HETATM   11  O2  UNL     1       6.044 -20.116  12.287  1.00  0.00    -0.271 OA
ATOM     12  H3  UNL     1       5.003 -21.166   9.462  1.00  0.00     0.163 HD
BRANCH  10  13
HETATM   13  C8  UNL     1       4.731 -18.845  10.728  1.00  0.00     0.275 C
BRANCH  13  14
HETATM   14  N4  UNL     1       5.461 -18.208   9.669  1.00  0.00    -0.066 N
ATOM     15  H43 UNL     1       6.385 -17.901   9.971  1.00  0.00     0.275 HD
ATOM     16  H42 UNL     1       5.752 -18.872   8.952  1.00  0.00     0.275 HD
ATOM     17  H41 UNL     1       4.910 -17.443   9.280  1.00  0.00     0.275 HD
ENDBRANCH  13  14
BRANCH  13  18
HETATM   18  C9  UNL     1       3.363 -19.266  10.315  1.00  0.00     0.047 C
BRANCH  18  19
HETATM   19  C10 UNL     1       2.382 -19.560  11.407  1.00  0.00    -0.012 C
HETATM   20  C11 UNL     1       1.799 -20.933  11.087  1.00  0.00     0.005 C
HETATM   21  C12 UNL     1       0.774 -21.391  12.057  1.00  0.00     0.005 C
HETATM   22  C13 UNL     1       0.064 -20.308  12.784  1.00  0.00    -0.010 C
HETATM   23  C14 UNL     1      -1.425 -20.589  12.938  1.00  0.00     0.005 C
HETATM   24  C17 UNL     1       0.040 -18.990  12.111  1.00  0.00    -0.010 C
HETATM   25  C15 UNL     1      -2.065 -19.990  11.698  1.00  0.00     0.001 C
HETATM   26  C16 UNL     1      -1.101 -19.021  11.109  1.00  0.00     0.005 C
HETATM   27  C18 UNL     1       1.340 -18.518  11.521  1.00  0.00     0.010 C
ENDBRANCH  18  19
ENDBRANCH  13  18
ENDBRANCH  10  13
ENDBRANCH   2   9
BRANCH   1  28
HETATM   28  N2  UNL     1       4.956 -24.185  11.917  1.00  0.00    -0.350 N
HETATM   29  C4  UNL     1       4.334 -23.590  13.004  1.00  0.00     0.240 C
HETATM   30  O1  UNL     1       3.965 -22.403  12.964  1.00  0.00    -0.271 OA
ATOM     31  H2  UNL     1       5.220 -25.161  12.053  1.00  0.00     0.163 HD
BRANCH  29  32
HETATM   32  C2  UNL     1       4.125 -24.413  14.227  1.00  0.00     0.165 C
HETATM   33  C3  UNL     1       5.405 -25.088  14.685  1.00  0.00     0.042 C
BRANCH  32  34
HETATM   34  N1  UNL     1       3.413 -23.791  15.278  1.00  0.00    -0.414 N
HETATM   35  C1  UNL     1       2.019 -24.046  15.357  1.00  0.00     0.140 C
ATOM     36  H1  UNL     1       3.881 -23.186  15.952  1.00  0.00     0.153 HD
ENDBRANCH  32  34
ENDBRANCH  29  32
ENDBRANCH   1  28
BRANCH   3  37
HETATM   37  C20 UNL     1       8.384 -21.801   9.749  1.00  0.00     0.064 C
BRANCH  37  38
HETATM   38  N5  UNL     1       9.518 -22.144   9.033  1.00  0.00    -0.401 N
HETATM   39  C21 UNL     1      10.669 -22.642   9.677  1.00  0.00     0.148 C
HETATM   40  C22 UNL     1       9.722 -21.528   7.757  1.00  0.00     0.148 C
ENDBRANCH  37  38
ENDBRANCH   3  37
TORSDOF 10
ENDMDL