MODEL 5
REMARK VINA RESULT: -5.732437817      3.337      4.804
REMARK  11 active torsions:
REMARK  status: ('A' for Active; 'I' for Inactive)
REMARK    1  A    between atoms: C2_2  and  C3_3
REMARK    2  A    between atoms: C3_3  and  C4_4
REMARK    3  A    between atoms: C4_4  and  C5_5
REMARK    4  A    between atoms: C5_5  and  C6_6
REMARK    5  A    between atoms: C6_6  and  C7_7
REMARK    6  A    between atoms: C8_10  and  O1_11
REMARK    7  A    between atoms: C13_20  and  C14_21
REMARK    8  A    between atoms: C14_21  and  C15_22
REMARK    9  A    between atoms: C18_28  and  C19_29
REMARK   10  A    between atoms: C19_29  and  O4_30
REMARK   11  A    between atoms: O4_30  and  C20_31
ROOT
HETATM    1  C7  UNL     1       6.632 -23.515  11.611  1.00  0.00     0.175 C
HETATM    2  N1  UNL     1       7.934 -23.757  11.010  1.00  0.00    -0.361 N
ATOM      3  H1  UNL     1       7.886 -24.332  10.168  1.00  0.00     0.162 HD
HETATM    4  C8  UNL     1       9.211 -23.381  11.328  1.00  0.00     0.111 C
HETATM    5  C9  UNL     1       9.877 -22.067  11.383  1.00  0.00     0.085 C
HETATM    6  C10 UNL     1      10.787 -21.934  12.564  1.00  0.00     0.027 C
HETATM    7  C11 UNL     1      10.288 -22.478  13.850  1.00  0.00     0.123 C
HETATM    8  N2  UNL     1       9.843 -21.459  14.799  1.00  0.00    -0.359 N
ATOM      9  H2  UNL     1      10.195 -20.503  14.742  1.00  0.00     0.162 HD
HETATM   10  C12 UNL     1       8.907 -21.829  15.804  1.00  0.00     0.240 C
HETATM   11  O2  UNL     1       8.065 -20.993  16.236  1.00  0.00    -0.271 OA
HETATM   12  C13 UNL     1       8.886 -23.235  16.392  1.00  0.00     0.176 C
HETATM   13  N3  UNL     1       7.559 -23.602  16.752  1.00  0.00    -0.346 N
ATOM     14  H3  UNL     1       7.202 -23.173  17.606  1.00  0.00     0.163 HD
HETATM   15  C17 UNL     1       6.665 -24.479  16.093  1.00  0.00     0.243 C
HETATM   16  O3  UNL     1       6.091 -25.408  16.767  1.00  0.00    -0.271 OA
HETATM   17  C18 UNL     1       6.287 -24.461  14.653  1.00  0.00     0.200 C
HETATM   18  N4  UNL     1       6.194 -23.151  14.103  1.00  0.00    -0.344 N
ATOM     19  H4  UNL     1       5.794 -22.435  14.709  1.00  0.00     0.163 HD
HETATM   20  C24 UNL     1       6.596 -22.722  12.801  1.00  0.00     0.241 C
HETATM   21  O5  UNL     1       6.945 -21.500  12.764  1.00  0.00    -0.271 OA
ENDROOT
BRANCH   1  22
HETATM   22  C6  UNL     1       5.716 -23.177  10.479  1.00  0.00     0.035 C
BRANCH  22  23
HETATM   23  C5  UNL     1       6.080 -22.123   9.526  1.00  0.00     0.002 C
BRANCH  23  24
HETATM   24  C4  UNL     1       5.658 -20.735   9.706  1.00  0.00     0.000 C
BRANCH  24  25
HETATM   25  C3  UNL     1       4.529 -20.372  10.577  1.00  0.00    -0.000 C
BRANCH  25  26
HETATM   26  C2  UNL     1       4.482 -18.995  11.134  1.00  0.00    -0.005 C
HETATM   27  C1  UNL     1       3.304 -18.176  10.764  1.00  0.00     0.005 C
ENDBRANCH  25  26
ENDBRANCH  24  25
ENDBRANCH  23  24
ENDBRANCH  22  23
ENDBRANCH   1  22
BRANCH   4  28
HETATM   28  O1  UNL     1      10.022 -24.349  11.645  1.00  0.00    -0.350 OA
ATOM     29  H1  UNL     1      10.038 -25.085  11.046  1.00  0.00     0.219 HD
ENDBRANCH   4  28
BRANCH  17  30
HETATM   30  C19 UNL     1       4.866 -25.041  14.521  1.00  0.00     0.203 C
BRANCH  30  31
HETATM   31  O4  UNL     1       3.901 -24.082  14.668  1.00  0.00    -0.379 OA
BRANCH  31  32
HETATM   32  C20 UNL     1       2.998 -24.159  13.644  1.00  0.00     0.050 C
HETATM   33  C21 UNL     1       3.334 -25.250  12.643  1.00  0.00     0.045 C
HETATM   34  C22 UNL     1       2.834 -22.881  12.868  1.00  0.00     0.045 C
HETATM   35  C23 UNL     1       1.616 -24.515  14.207  1.00  0.00     0.045 C
ENDBRANCH  31  32
ENDBRANCH  30  31
ENDBRANCH  17  30
BRANCH  12  36
HETATM   36  C14 UNL     1       9.888 -23.139  17.510  1.00  0.00     0.034 C
BRANCH  36  37
HETATM   37  C15 UNL     1       9.367 -23.010  18.885  1.00  0.00    -0.002 C
HETATM   38  C16 UNL     1       9.424 -21.646  19.502  1.00  0.00     0.005 C
ENDBRANCH  36  37
ENDBRANCH  12  36
TORSDOF 11
ENDMDL