MODEL 5
REMARK VINA RESULT: -6.756204475      6.963     10.403
REMARK  9 active torsions:
REMARK  status: ('A' for Active; 'I' for Inactive)
REMARK    1  A    between atoms: C2_2  and  C3_3
REMARK    2  A    between atoms: C6_6  and  C7_7
REMARK    3  A    between atoms: C7_7  and  N1_8
REMARK    4  A    between atoms: C7_7  and  C12_19
REMARK    5  A    between atoms: N1_8  and  S1_10
REMARK    6  A    between atoms: S1_10  and  C8_13
REMARK    7  A    between atoms: C10_15  and  C11_16
REMARK       I    between atoms: C12_19  and  N2_21
REMARK    8  A    between atoms: C14_23  and  C15_24
REMARK    9  A    between atoms: C15_24  and  N3_26
ROOT
HETATM    1  C7  UNL     1      -0.710 -21.151  12.551  1.00  0.00     0.189 C
ENDROOT
BRANCH   1   2
HETATM    2  C6  UNL     1       0.344 -20.036  12.607  1.00  0.00     0.018 C
HETATM    3  C5  UNL     1       1.702 -20.477  12.178  1.00  0.00     0.007 C
HETATM    4  C4  UNL     1       2.031 -20.170  10.732  1.00  0.00     0.005 C
HETATM    5  C3  UNL     1       2.021 -18.672  10.488  1.00  0.00    -0.015 C
HETATM    6  C22 UNL     1       1.065 -17.992  11.454  1.00  0.00     0.005 C
HETATM    7  C21 UNL     1      -0.101 -18.951  11.605  1.00  0.00     0.007 C
BRANCH   5   8
HETATM    8  C2  UNL     1       3.379 -18.063  10.679  1.00  0.00     0.000 C
HETATM    9  C1  UNL     1       4.453 -19.079  10.386  1.00  0.00     0.005 C
ENDBRANCH   5   8
ENDBRANCH   1   2
BRANCH   1  10
HETATM   10  N1  UNL     1      -1.948 -20.486  12.296  1.00  0.00    -0.305 N
ATOM     11  H1  UNL     1      -2.136 -19.553  12.660  1.00  0.00     0.173 HD
BRANCH  10  12
HETATM   12  S1  UNL     1      -3.088 -21.316  11.362  1.00  0.00     0.232 S
HETATM   13  O1  UNL     1      -3.733 -20.323  10.405  1.00  0.00    -0.206 OA
HETATM   14  O2  UNL     1      -2.596 -22.432  10.542  1.00  0.00    -0.206 OA
BRANCH  12  15
HETATM   15  C8  UNL     1      -4.332 -21.969  12.476  1.00  0.00     0.144 A
HETATM   16  C9  UNL     1      -5.561 -22.463  11.858  1.00  0.00     0.039 A
HETATM   17  C10 UNL     1      -5.576 -21.198  12.719  1.00  0.00     0.108 A
BRANCH  17  18
HETATM   18  C11 UNL     1      -6.205 -21.380  14.041  1.00  0.00     0.178 C
HETATM   19  O3  UNL     1      -5.484 -21.470  15.054  1.00  0.00    -0.648 OA
HETATM   20  O4  UNL     1      -7.568 -21.450  14.149  1.00  0.00    -0.648 OA
ENDBRANCH  17  18
ENDBRANCH  12  15
ENDBRANCH  10  12
ENDBRANCH   1  10
BRANCH   1  21
HETATM   21  C12 UNL     1      -0.752 -21.683  13.972  1.00  0.00     0.244 C
HETATM   22  O5  UNL     1      -1.600 -21.194  14.765  1.00  0.00    -0.271 OA
HETATM   23  N2  UNL     1       0.105 -22.691  14.441  1.00  0.00    -0.342 N
HETATM   24  C13 UNL     1       1.103 -23.398  13.672  1.00  0.00     0.161 C
HETATM   25  C19 UNL     1       0.008 -23.091  15.845  1.00  0.00     0.108 C
HETATM   26  C14 UNL     1       2.451 -23.378  14.338  1.00  0.00     0.233 C
HETATM   27  N4  UNL     1       2.360 -23.494  15.772  1.00  0.00    -0.065 N
HETATM   28  C18 UNL     1       1.102 -24.134  16.099  1.00  0.00     0.257 C
ATOM     29  H42 UNL     1       3.163 -23.975  16.179  1.00  0.00     0.277 HD
ATOM     30  H41 UNL     1       2.481 -22.599  16.246  1.00  0.00     0.277 HD
HETATM   31  C20 UNL     1       0.345 -21.923  16.728  1.00  0.00     0.034 C
BRANCH  26  32
HETATM   32  C15 UNL     1       3.339 -24.497  13.835  1.00  0.00     0.213 C
HETATM   33  C16 UNL     1       4.460 -24.750  14.799  1.00  0.00     0.042 C
BRANCH  32  34
HETATM   34  N3  UNL     1       3.842 -24.164  12.510  1.00  0.00    -0.073 N
HETATM   35  C17 UNL     1       4.543 -22.919  12.560  1.00  0.00     0.267 C
ATOM     36  H32 UNL     1       4.414 -24.912  12.117  1.00  0.00     0.277 HD
ATOM     37  H31 UNL     1       3.102 -24.162  11.807  1.00  0.00     0.277 HD
ENDBRANCH  32  34
ENDBRANCH  26  32
ENDBRANCH   1  21
TORSDOF 9
ENDMDL