MODEL 2
REMARK VINA RESULT: -6.311104991      2.345      5.056
REMARK  11 active torsions:
REMARK  status: ('A' for Active; 'I' for Inactive)
REMARK    1  A    between atoms: C2_2  and  C3_3
REMARK    2  A    between atoms: C3_3  and  S1_4
REMARK    3  A    between atoms: S1_4  and  C4_5
REMARK    4  A    between atoms: C5_6  and  C6_7
REMARK    5  A    between atoms: C6_7  and  C7_8
REMARK       I    between atoms: C7_8  and  N1_10
REMARK    6  A    between atoms: N1_10  and  C8_12
REMARK    7  A    between atoms: C8_12  and  C9_13
REMARK    8  A    between atoms: C8_12  and  C10_16
REMARK    9  A    between atoms: C9_13  and  O2_14
REMARK   10  A    between atoms: C10_16  and  O3_17
REMARK   11  A    between atoms: C12_23  and  C13_24
ROOT
HETATM    1  C4  UNL     1       8.627 -23.676   9.537  1.00  0.00     0.084 C
HETATM    2  C5  UNL     1       9.264 -23.094  10.736  1.00  0.00     0.102 C
HETATM    3  C11 UNL     1       8.609 -21.809  11.140  1.00  0.00     0.224 C
HETATM    4  O4  UNL     1       9.175 -20.755  10.739  1.00  0.00    -0.273 OA
HETATM    5  N2  UNL     1       7.460 -21.484  11.893  1.00  0.00    -0.347 N
ATOM      6  H2  UNL     1       7.611 -20.651  12.463  1.00  0.00     0.163 HD
HETATM    7  C12 UNL     1       6.137 -22.008  12.073  1.00  0.00     0.180 C
HETATM    8  C19 UNL     1       5.962 -23.390  11.647  1.00  0.00     0.243 C
HETATM    9  O5  UNL     1       5.208 -24.010  12.434  1.00  0.00    -0.271 OA
HETATM   10  N3  UNL     1       6.404 -24.233  10.593  1.00  0.00    -0.344 N
HETATM   11  C20 UNL     1       5.517 -25.411  10.452  1.00  0.00     0.126 C
HETATM   12  C21 UNL     1       6.300 -26.472   9.756  1.00  0.00     0.022 C
HETATM   13  C22 UNL     1       7.671 -25.902   9.607  1.00  0.00     0.028 C
HETATM   14  C23 UNL     1       7.364 -24.394   9.608  1.00  0.00     0.102 C
ENDROOT
BRANCH   2  15
HETATM   15  C6  UNL     1       9.509 -24.041  11.868  1.00  0.00     0.118 C
BRANCH  15  16
HETATM   16  C7  UNL     1       9.792 -23.294  13.108  1.00  0.00     0.218 C
HETATM   17  O1  UNL     1      10.822 -22.598  13.200  1.00  0.00    -0.274 OA
HETATM   18  N1  UNL     1       8.910 -23.349  14.210  1.00  0.00    -0.352 N
ATOM     19  H1  UNL     1       8.070 -23.923  14.123  1.00  0.00     0.163 HD
BRANCH  18  20
HETATM   20  C8  UNL     1       9.122 -22.646  15.447  1.00  0.00     0.131 C
BRANCH  20  21
HETATM   21  C9  UNL     1       8.593 -23.405  16.640  1.00  0.00     0.191 C
BRANCH  21  22
HETATM   22  O2  UNL     1       7.251 -23.094  16.855  1.00  0.00    -0.399 OA
ATOM     23  H2  UNL     1       6.903 -23.613  17.570  1.00  0.00     0.209 HD
ENDBRANCH  21  22
ENDBRANCH  20  21
BRANCH  20  24
HETATM   24  C10 UNL     1       8.449 -21.282  15.444  1.00  0.00     0.191 C
BRANCH  24  25
HETATM   25  O3  UNL     1       9.033 -20.450  14.512  1.00  0.00    -0.399 OA
ATOM     26  H3  UNL     1       9.170 -19.582  14.873  1.00  0.00     0.209 HD
ENDBRANCH  24  25
ENDBRANCH  20  24
ENDBRANCH  18  20
ENDBRANCH  15  16
ENDBRANCH   2  15
BRANCH   1  27
HETATM   27  S1  UNL     1       9.779 -24.665   8.596  1.00  0.00    -0.158 SA
BRANCH  27  28
HETATM   28  C3  UNL     1      10.737 -23.937   7.334  1.00  0.00     0.100 C
BRANCH  28  29
HETATM   29  C2  UNL     1      11.155 -22.552   7.573  1.00  0.00    -0.027 C
HETATM   30  C1  UNL     1      10.410 -21.517   7.159  1.00  0.00     0.007 C
ENDBRANCH  28  29
ENDBRANCH  27  28
ENDBRANCH   1  27
BRANCH   7  31
HETATM   31  C13 UNL     1       5.108 -21.148  11.363  1.00  0.00     0.018 C
HETATM   32  C14 UNL     1       3.767 -21.457  11.996  1.00  0.00     0.007 C
HETATM   33  C15 UNL     1       2.723 -20.414  11.603  1.00  0.00     0.000 C
HETATM   34  C16 UNL     1       3.190 -19.727  10.342  1.00  0.00     0.000 C
HETATM   35  C17 UNL     1       4.405 -18.903  10.705  1.00  0.00     0.000 C
HETATM   36  C18 UNL     1       5.373 -19.675  11.571  1.00  0.00     0.007 C
ENDBRANCH   7  31
TORSDOF 11
ENDMDL