MODEL 5
REMARK VINA RESULT: -5.755698188      1.696      1.940
REMARK  10 active torsions:
REMARK  status: ('A' for Active; 'I' for Inactive)
REMARK    1  A    between atoms: C2_2  and  C3_3
REMARK    2  A    between atoms: C3_3  and  C4_4
REMARK    3  A    between atoms: C4_4  and  C5_5
REMARK    4  A    between atoms: C5_5  and  C6_6
REMARK    5  A    between atoms: C8_10  and  C9_11
REMARK    6  A    between atoms: C13_18  and  C14_19
REMARK    7  A    between atoms: C14_19  and  C16_21
REMARK    8  A    between atoms: C19_27  and  C20_28
REMARK    9  A    between atoms: C20_28  and  C21_29
REMARK   10  A    between atoms: C21_29  and  O5_31
ROOT
HETATM    1  C6  UNL     1      -0.248 -20.706  11.347  1.00  0.00     0.224 C
HETATM    2  O1  UNL     1       0.285 -21.878  11.838  1.00  0.00    -0.305 OA
HETATM    3  C7  UNL     1       0.734 -22.446  12.966  1.00  0.00     0.283 C
HETATM    4  O2  UNL     1       0.830 -22.001  14.146  1.00  0.00    -0.263 OA
HETATM    5  C8  UNL     1       1.250 -23.885  12.975  1.00  0.00     0.187 C
HETATM    6  N1  UNL     1       0.389 -24.799  13.637  1.00  0.00    -0.345 N
ATOM      7  H1  UNL     1       0.744 -25.175  14.517  1.00  0.00     0.163 HD
HETATM    8  C12 UNL     1      -0.887 -25.263  13.252  1.00  0.00     0.241 C
HETATM    9  O3  UNL     1      -1.672 -25.664  14.155  1.00  0.00    -0.271 OA
HETATM   10  C13 UNL     1      -1.403 -25.323  11.865  1.00  0.00     0.180 C
HETATM   11  N2  UNL     1      -2.867 -25.134  11.827  1.00  0.00    -0.347 N
ATOM     12  H2  UNL     1      -3.407 -25.752  12.433  1.00  0.00     0.163 HD
HETATM   13  C18 UNL     1      -3.612 -24.226  11.077  1.00  0.00     0.231 C
HETATM   14  O4  UNL     1      -4.428 -24.702  10.185  1.00  0.00    -0.273 OA
HETATM   15  C19 UNL     1      -3.634 -22.744  11.121  1.00  0.00     0.172 C
HETATM   16  C23 UNL     1      -3.220 -22.173  12.442  1.00  0.00     0.237 C
HETATM   17  O6  UNL     1      -3.532 -22.848  13.456  1.00  0.00    -0.272 OA
HETATM   18  N3  UNL     1      -2.522 -20.961  12.656  1.00  0.00    -0.295 N
ATOM     19  H3  UNL     1      -2.758 -20.489  13.528  1.00  0.00     0.171 HD
HETATM   20  C24 UNL     1      -1.561 -20.296  11.878  1.00  0.00     0.254 C
HETATM   21  O7  UNL     1      -1.795 -19.117  11.530  1.00  0.00    -0.270 OA
ENDROOT
BRANCH   1  22
HETATM   22  C5  UNL     1       0.749 -19.558  11.294  1.00  0.00     0.043 C
BRANCH  22  23
HETATM   23  C4  UNL     1       1.988 -20.041  10.636  1.00  0.00     0.007 C
BRANCH  23  24
HETATM   24  C3  UNL     1       3.201 -19.608  11.383  1.00  0.00     0.026 C
BRANCH  24  25
HETATM   25  C2  UNL     1       4.480 -20.163  10.925  1.00  0.00    -0.037 C
HETATM   26  C1  UNL     1       5.625 -20.194  11.584  1.00  0.00     0.007 C
ENDBRANCH  24  25
ENDBRANCH  23  24
ENDBRANCH  22  23
ENDBRANCH   1  22
BRANCH   5  27
HETATM   27  C9  UNL     1       2.622 -23.823  13.602  1.00  0.00     0.010 C
HETATM   28  C10 UNL     1       3.026 -25.118  14.252  1.00  0.00     0.012 C
HETATM   29  C11 UNL     1       3.704 -23.302  12.727  1.00  0.00     0.012 C
ENDBRANCH   5  27
BRANCH  15  30
HETATM   30  C20 UNL     1      -4.881 -22.092  10.673  1.00  0.00     0.055 C
BRANCH  30  31
HETATM   31  C21 UNL     1      -4.856 -21.023   9.677  1.00  0.00     0.115 C
HETATM   32  C22 UNL     1      -6.324 -20.590   9.457  1.00  0.00     0.039 C
BRANCH  31  33
HETATM   33  O5  UNL     1      -4.172 -19.875   9.935  1.00  0.00    -0.396 OA
ATOM     34  H5  UNL     1      -3.681 -19.791  10.744  1.00  0.00     0.210 HD
ENDBRANCH  31  33
ENDBRANCH  30  31
ENDBRANCH  15  30
BRANCH  10  35
HETATM   35  C14 UNL     1      -0.966 -26.511  11.114  1.00  0.00     0.013 C
HETATM   36  C15 UNL     1      -1.094 -26.146   9.606  1.00  0.00     0.012 C
BRANCH  35  37
HETATM   37  C16 UNL     1      -1.597 -27.821  11.339  1.00  0.00     0.002 C
HETATM   38  C17 UNL     1      -0.899 -28.854  12.127  1.00  0.00     0.005 C
ENDBRANCH  35  37
ENDBRANCH  10  35
TORSDOF 10
ENDMDL