MODEL 5
REMARK VINA RESULT: -7.492538804      2.160      5.919
REMARK  13 active torsions:
REMARK  status: ('A' for Active; 'I' for Inactive)
REMARK    1  A    between atoms: C2_2  and  N1_3
REMARK    2  A    between atoms: N1_3  and  C3_5
REMARK    3  A    between atoms: C4_8  and  N3_9
REMARK    4  A    between atoms: N3_9  and  C5_11
REMARK    5  A    between atoms: C11_19  and  N5_20
REMARK    6  A    between atoms: N5_20  and  C12_22
REMARK    7  A    between atoms: C12_22  and  C13_23
REMARK    8  A    between atoms: C13_23  and  C14_24
REMARK    9  A    between atoms: C14_24  and  C15_25
REMARK   10  A    between atoms: C15_25  and  N6_26
REMARK   11  A    between atoms: C21_32  and  N7_33
REMARK   12  A    between atoms: N7_33  and  N8_34
REMARK       I    between atoms: N8_34  and  C22_36
REMARK   13  A    between atoms: C22_36  and  C23_38
ROOT
HETATM    1  C3  UNL     1       4.883 -18.116   9.100  1.00  0.00     0.695 C
HETATM    2  N2  UNL     1       3.774 -17.776   9.819  1.00  0.00    -0.022 N
ATOM      3  H2  UNL     1       3.443 -16.818   9.701  1.00  0.00     0.203 HD
HETATM    4  C4  UNL     1       3.057 -18.550  10.670  1.00  0.00     0.694 C
HETATM    5  N4  UNL     1       3.584 -19.491  11.520  1.00  0.00    -0.172 N
ATOM      6  H4  UNL     1       3.070 -19.660  12.384  1.00  0.00     0.186 HD
HETATM    7  C11 UNL     1       4.699 -20.214  11.340  1.00  0.00     0.178 C
HETATM    8  C21 UNL     1       5.765 -20.004  10.433  1.00  0.00     0.262 C
HETATM    9  N9  UNL     1       5.662 -19.180   9.336  1.00  0.00    -0.159 N
ATOM     10  H9  UNL     1       6.290 -19.421   8.569  1.00  0.00     0.187 HD
ENDROOT
BRANCH   7  11
HETATM   11  N5  UNL     1       4.859 -21.242  12.070  1.00  0.00    -0.372 N
ATOM     12  H5  UNL     1       5.749 -21.358  12.556  1.00  0.00     0.161 HD
BRANCH  11  13
HETATM   13  C12 UNL     1       3.843 -22.257  12.247  1.00  0.00     0.121 C
BRANCH  13  14
HETATM   14  C13 UNL     1       4.427 -23.517  12.861  1.00  0.00     0.021 C
BRANCH  14  15
HETATM   15  C14 UNL     1       3.536 -23.937  14.005  1.00  0.00     0.032 C
BRANCH  15  16
HETATM   16  C15 UNL     1       2.165 -23.317  13.931  1.00  0.00     0.272 C
BRANCH  16  17
HETATM   17  N6  UNL     1       1.485 -23.540  15.181  1.00  0.00     0.088 N
HETATM   18  C16 UNL     1       2.417 -23.720  16.284  1.00  0.00     0.272 C
HETATM   19  C17 UNL     1       1.580 -24.224  17.441  1.00  0.00     0.030 C
HETATM   20  C18 UNL     1       0.794 -23.053  17.960  1.00  0.00     0.003 C
HETATM   21  C19 UNL     1       0.477 -22.085  16.891  1.00  0.00     0.030 C
HETATM   22  C20 UNL     1       0.502 -22.540  15.486  1.00  0.00     0.272 C
ENDBRANCH  16  17
ENDBRANCH  15  16
ENDBRANCH  14  15
ENDBRANCH  13  14
ENDBRANCH  11  13
ENDBRANCH   7  11
BRANCH   8  23
HETATM   23  N7  UNL     1       6.815 -20.551  10.593  1.00  0.00    -0.300 NA
BRANCH  23  24
HETATM   24  N8  UNL     1       7.983 -21.089  10.665  1.00  0.00    -0.201 N
HETATM   25  C22 UNL     1       8.760 -21.660   9.589  1.00  0.00     0.245 C
HETATM   26  O1  UNL     1       8.235 -21.630   8.450  1.00  0.00    -0.271 OA
ATOM     27  H8  UNL     1       8.409 -21.115  11.592  1.00  0.00     0.205 HD
BRANCH  25  28
HETATM   28  C23 UNL     1      10.083 -22.253   9.757  1.00  0.00     0.101 C
HETATM   29  C24 UNL     1      10.701 -22.002  11.091  1.00  0.00     0.014 C
ENDBRANCH  25  28
ENDBRANCH  23  24
ENDBRANCH   8  23
BRANCH   4  30
HETATM   30  N3  UNL     1       1.806 -18.478  10.748  1.00  0.00    -0.221 N
ATOM     31  H3  UNL     1       1.406 -17.750  10.156  1.00  0.00     0.178 HD
BRANCH  30  32
HETATM   32  C5  UNL     1       0.832 -19.197  11.488  1.00  0.00     0.099 C
HETATM   33  C6  UNL     1      -0.448 -18.461  11.555  1.00  0.00     0.026 C
HETATM   34  C7  UNL     1      -1.698 -19.240  11.363  1.00  0.00     0.002 C
HETATM   35  C8  UNL     1      -1.650 -20.695  11.596  1.00  0.00     0.000 C
HETATM   36  C9  UNL     1      -0.312 -21.245  12.037  1.00  0.00     0.002 C
HETATM   37  C10 UNL     1       0.708 -20.643  11.055  1.00  0.00     0.026 C
ENDBRANCH  30  32
ENDBRANCH   4  30
BRANCH   1  38
HETATM   38  N1  UNL     1       5.160 -17.339   8.142  1.00  0.00    -0.226 N
ATOM     39  H1  UNL     1       6.142 -17.272   7.874  1.00  0.00     0.177 HD
BRANCH  38  40
HETATM   40  C2  UNL     1       4.236 -16.547   7.401  1.00  0.00     0.133 C
HETATM   41  C1  UNL     1       4.841 -16.195   6.042  1.00  0.00     0.027 C
ENDBRANCH  38  40
ENDBRANCH   1  38
TORSDOF 13
ENDMDL