MODEL 4
REMARK VINA RESULT: -7.396390003      3.170      7.255
REMARK  11 active torsions:
REMARK  status: ('A' for Active; 'I' for Inactive)
REMARK    1  A    between atoms: C3_3  and  N1_4
REMARK    2  A    between atoms: C3_3  and  C22_35
REMARK       I    between atoms: N1_4  and  C4_6
REMARK    3  A    between atoms: C4_6  and  C5_8
REMARK    4  A    between atoms: C5_8  and  C6_9
REMARK    5  A    between atoms: C5_8  and  C12_19
REMARK    6  A    between atoms: C6_9  and  C7_10
REMARK    7  A    between atoms: C7_10  and  N2_12
REMARK    8  A    between atoms: C7_10  and  C9_16
REMARK    9  A    between atoms: C15_22  and  S1_23
REMARK   10  A    between atoms: S1_23  and  N3_26
REMARK   11  A    between atoms: N3_26  and  C16_28
ROOT
HETATM    1  C1  UNL     1       5.045 -16.962   6.603  1.00  0.00     0.015 C
HETATM    2  C2  UNL     1       4.367 -16.885   7.601  1.00  0.00    -0.081 C
HETATM    3  C3  UNL     1       3.529 -16.790   8.808  1.00  0.00     0.265 C
ENDROOT
BRANCH   3   4
HETATM    4  N1  UNL     1       3.333 -18.109   9.368  1.00  0.00    -0.333 N
HETATM    5  C4  UNL     1       3.847 -18.535  10.590  1.00  0.00     0.251 C
HETATM    6  O1  UNL     1       4.535 -17.729  11.264  1.00  0.00    -0.268 OA
ATOM      7  H1  UNL     1       2.778 -18.774   8.830  1.00  0.00     0.164 HD
BRANCH   5   8
HETATM    8  C5  UNL     1       3.659 -19.888  11.208  1.00  0.00     0.037 C
BRANCH   8   9
HETATM    9  C6  UNL     1       4.420 -20.957  10.565  1.00  0.00     0.027 C
BRANCH   9  10
HETATM   10  C7  UNL     1       5.809 -21.286  10.927  1.00  0.00     0.141 C
HETATM   11  C8  UNL     1       6.310 -22.450  10.106  1.00  0.00     0.051 C
BRANCH  10  12
HETATM   12  N2  UNL     1       6.792 -20.247  10.744  1.00  0.00    -0.067 N
ATOM     13  H23 UNL     1       7.177 -20.304   9.801  1.00  0.00     0.275 HD
ATOM     14  H22 UNL     1       6.326 -19.340  10.702  1.00  0.00     0.275 HD
ATOM     15  H21 UNL     1       7.554 -20.210  11.422  1.00  0.00     0.275 HD
ENDBRANCH  10  12
BRANCH  10  16
HETATM   16  C9  UNL     1       5.838 -21.723  12.397  1.00  0.00     0.017 C
HETATM   17  C10 UNL     1       7.249 -21.834  12.916  1.00  0.00     0.012 C
HETATM   18  C11 UNL     1       5.135 -23.004  12.633  1.00  0.00     0.012 C
ENDBRANCH  10  16
ENDBRANCH   9  10
ENDBRANCH   8   9
BRANCH   8  19
HETATM   19  C12 UNL     1       2.285 -20.107  11.713  1.00  0.00     0.161 C
HETATM   20  C13 UNL     1       1.631 -18.850  12.139  1.00  0.00     0.040 C
HETATM   21  C14 UNL     1       0.312 -18.809  11.352  1.00  0.00     0.052 C
HETATM   22  C15 UNL     1       0.220 -20.207  10.853  1.00  0.00     0.264 C
HETATM   23  O4  UNL     1       1.522 -20.625  10.648  1.00  0.00    -0.359 OA
BRANCH  22  24
HETATM   24  S1  UNL     1      -0.711 -21.276  11.924  1.00  0.00     0.254 S
HETATM   25  O2  UNL     1       0.196 -22.443  12.267  1.00  0.00    -0.203 OA
HETATM   26  O3  UNL     1      -1.857 -21.819  11.159  1.00  0.00    -0.203 OA
BRANCH  24  27
HETATM   27  N3  UNL     1      -1.076 -20.459  13.337  1.00  0.00    -0.313 N
ATOM     28  H3  UNL     1      -1.678 -19.636  13.311  1.00  0.00     0.172 HD
BRANCH  27  29
HETATM   29  C16 UNL     1      -0.552 -20.908  14.558  1.00  0.00     0.093 C
HETATM   30  C17 UNL     1      -0.443 -19.729  15.502  1.00  0.00     0.026 C
HETATM   31  C18 UNL     1      -0.296 -20.186  16.911  1.00  0.00     0.002 C
HETATM   32  C19 UNL     1       0.541 -21.460  16.911  1.00  0.00     0.000 C
HETATM   33  C20 UNL     1      -0.219 -22.593  16.254  1.00  0.00     0.002 C
HETATM   34  C21 UNL     1      -1.237 -22.018  15.250  1.00  0.00     0.026 C
ENDBRANCH  27  29
ENDBRANCH  24  27
ENDBRANCH  22  24
ENDBRANCH   8  19
ENDBRANCH   5   8
ENDBRANCH   3   4
BRANCH   3  35
HETATM   35  C22 UNL     1       2.262 -16.149   8.394  1.00  0.00     0.209 C
HETATM   36  O5  UNL     1       1.893 -16.197   7.208  1.00  0.00    -0.646 OA
HETATM   37  O6  UNL     1       1.524 -15.506   9.380  1.00  0.00    -0.646 OA
ENDBRANCH   3  35
TORSDOF 11
ENDMDL