MODEL 1
REMARK VINA RESULT: -6.910961273      0.000      0.000
REMARK  11 active torsions:
REMARK  status: ('A' for Active; 'I' for Inactive)
REMARK    1  A    between atoms: C2_2  and  C4_14
REMARK    2  A    between atoms: N1_3  and  N2_5
REMARK    3  A    between atoms: N2_5  and  C3_7
REMARK    4  A    between atoms: C3_7  and  N3_9
REMARK    5  A    between atoms: N3_9  and  N4_11
REMARK    6  A    between atoms: C4_14  and  C11_32
REMARK    7  A    between atoms: N5_15  and  N6_17
REMARK       I    between atoms: N6_17  and  C5_19
REMARK    8  A    between atoms: C5_19  and  C6_21
REMARK    9  A    between atoms: C10_28  and  N8_29
REMARK   10  A    between atoms: C11_32  and  O7_33
REMARK   11  A    between atoms: N9_35  and  O8_37
ROOT
HETATM    1  C4  UNL     1      27.386 -55.227   6.089  1.00  0.00     0.124 C
HETATM    2  N5  UNL     1      28.653 -55.296   5.884  1.00  0.00    -0.292 N
ATOM      3  H5  UNL     1      29.067 -56.218   6.025  1.00  0.00     0.187 HD
ENDROOT
BRANCH   1   4
HETATM    4  C2  UNL     1      26.669 -53.974   5.923  1.00  0.00     0.054 C
HETATM    5  C1  UNL     1      25.973 -53.624   4.669  1.00  0.00     0.072 C
HETATM    6  N1  UNL     1      26.621 -53.111   6.918  1.00  0.00    -0.301 N
ATOM      7  H1  UNL     1      27.090 -53.318   7.799  1.00  0.00     0.186 HD
BRANCH   6   8
HETATM    8  N2  UNL     1      25.923 -51.916   6.759  1.00  0.00    -0.275 N
ATOM      9  H2  UNL     1      24.910 -51.948   6.642  1.00  0.00     0.189 HD
BRANCH   8  10
HETATM   10  C3  UNL     1      26.576 -50.654   6.754  1.00  0.00     0.210 C
HETATM   11  S1  UNL     1      26.759 -49.845   8.177  1.00  0.00    -0.038 SA
BRANCH  10  12
HETATM   12  N3  UNL     1      27.052 -50.121   5.534  1.00  0.00    -0.214 N
ATOM     13  H3  UNL     1      26.469 -49.484   4.991  1.00  0.00     0.195 HD
BRANCH  12  14
HETATM   14  N4  UNL     1      28.317 -50.472   5.077  1.00  0.00    -0.037 N
HETATM   15  O1  UNL     1      28.986 -51.373   5.628  1.00  0.00    -0.516 OA
HETATM   16  O2  UNL     1      28.908 -49.846   3.992  1.00  0.00    -0.516 OA
ENDBRANCH  12  14
ENDBRANCH  10  12
ENDBRANCH   8  10
ENDBRANCH   6   8
ENDBRANCH   1   4
BRANCH   1  17
HETATM   17  C11 UNL     1      26.654 -56.424   6.489  1.00  0.00     0.190 C
HETATM   18  N9  UNL     1      26.765 -57.012   7.617  1.00  0.00    -0.245 N
ATOM     19  H9  UNL     1      27.409 -56.643   8.316  1.00  0.00     0.196 HD
BRANCH  17  20
HETATM   20  O7  UNL     1      25.756 -56.948   5.523  1.00  0.00    -0.343 OA
ATOM     21  H7  UNL     1      26.127 -57.119   4.665  1.00  0.00     0.219 HD
ENDBRANCH  17  20
BRANCH  18  22
HETATM   22  O8  UNL     1      26.040 -58.122   7.896  1.00  0.00    -0.288 OA
ATOM     23  H8  UNL     1      26.335 -58.979   7.615  1.00  0.00     0.244 HD
ENDBRANCH  18  22
ENDBRANCH   1  17
BRANCH   2  24
HETATM   24  N6  UNL     1      29.526 -54.314   5.505  1.00  0.00    -0.264 N
HETATM   25  C5  UNL     1      30.098 -54.239   4.171  1.00  0.00     0.289 C
HETATM   26  O3  UNL     1      29.698 -55.169   3.428  1.00  0.00    -0.264 OA
ATOM     27  H6  UNL     1      29.787 -53.603   6.187  1.00  0.00     0.190 HD
BRANCH  25  28
HETATM   28  C6  UNL     1      31.015 -53.191   3.794  1.00  0.00     0.138 A
HETATM   29  N7  UNL     1      30.576 -52.354   2.806  1.00  0.00    -0.317 N
HETATM   30  C7  UNL     1      31.335 -51.339   2.388  1.00  0.00     0.245 A
ATOM     31  H7  UNL     1      29.660 -52.507   2.384  1.00  0.00     0.169 HD
HETATM   32  O4  UNL     1      30.868 -50.591   1.459  1.00  0.00    -0.268 OA
HETATM   33  C8  UNL     1      32.570 -51.095   2.924  1.00  0.00     0.077 A
HETATM   34  C9  UNL     1      33.051 -51.898   3.908  1.00  0.00     0.044 A
HETATM   35  C10 UNL     1      32.235 -52.991   4.356  1.00  0.00     0.135 A
BRANCH  35  36
HETATM   36  N8  UNL     1      32.785 -53.806   5.357  1.00  0.00    -0.113 N
HETATM   37  O5  UNL     1      32.333 -53.664   6.522  1.00  0.00    -0.532 OA
HETATM   38  O6  UNL     1      33.746 -54.726   5.180  1.00  0.00    -0.532 OA
ENDBRANCH  35  36
ENDBRANCH  25  28
ENDBRANCH   2  24
TORSDOF 11
ENDMDL