MODEL 5
REMARK VINA RESULT: -7.958319057      2.466      3.237
REMARK  10 active torsions:
REMARK  status: ('A' for Active; 'I' for Inactive)
REMARK    1  A    between atoms: C2_2  and  O1_3
REMARK    2  A    between atoms: C2_2  and  C3_5
REMARK    3  A    between atoms: C3_5  and  C5_7
REMARK    4  A    between atoms: C3_5  and  O3_42
REMARK    5  A    between atoms: N1_8  and  N2_10
REMARK    6  A    between atoms: N2_10  and  C6_12
REMARK    7  A    between atoms: C9_19  and  C10_20
REMARK    8  A    between atoms: N5_21  and  N6_23
REMARK       I    between atoms: N6_23  and  C11_25
REMARK       I    between atoms: C11_25  and  N7_27
REMARK    9  A    between atoms: N7_27  and  C12_29
REMARK   10  A    between atoms: O3_42  and  C14_43
ROOT
HETATM    1  C6  UNL     1      25.610 -56.775   5.615  1.00  0.00     0.717 A
HETATM    2  N3  UNL     1      24.651 -57.602   5.673  1.00  0.00    -0.207 N
ATOM      3  H3  UNL     1      23.994 -57.614   4.893  1.00  0.00     0.179 HD
HETATM    4  C7  UNL     1      24.420 -58.510   6.735  1.00  0.00     0.263 A
HETATM    5  N4  UNL     1      25.395 -58.412   7.772  1.00  0.00    -0.357 N
ATOM      6  H4  UNL     1      25.312 -59.027   8.581  1.00  0.00     0.162 HD
HETATM    7  C8  UNL     1      26.468 -57.499   7.724  1.00  0.00     0.155 A
HETATM    8  C9  UNL     1      27.510 -57.253   8.625  1.00  0.00     0.044 A
HETATM    9  C13 UNL     1      28.249 -56.230   8.008  1.00  0.00     0.125 A
HETATM   10  N12 UNL     1      27.652 -55.936   6.849  1.00  0.00    -0.288 N
ATOM     11  H12 UNL     1      27.979 -55.224   6.196  1.00  0.00     0.187 HD
HETATM   12  N13 UNL     1      26.586 -56.683   6.662  1.00  0.00    -0.068 N
ENDROOT
BRANCH   8  13
HETATM   13  C10 UNL     1      27.803 -57.874   9.897  1.00  0.00     0.124 C
HETATM   14  N5  UNL     1      28.650 -57.414  10.729  1.00  0.00    -0.307 N
ATOM     15  H5  UNL     1      29.147 -56.559  10.478  1.00  0.00     0.186 HD
BRANCH  14  16
HETATM   16  N6  UNL     1      28.941 -57.993  11.945  1.00  0.00    -0.251 N
HETATM   17  C11 UNL     1      30.254 -57.924  12.460  1.00  0.00     0.353 C
HETATM   18  O2  UNL     1      31.150 -57.331  11.802  1.00  0.00    -0.245 OA
HETATM   19  N7  UNL     1      30.560 -58.519  13.712  1.00  0.00    -0.137 N
ATOM     20  H7  UNL     1      30.850 -57.921  14.487  1.00  0.00     0.189 HD
ATOM     21  H6  UNL     1      28.210 -58.471  12.472  1.00  0.00     0.191 HD
BRANCH  19  22
HETATM   22  C12 UNL     1      30.482 -59.804  13.900  1.00  0.00     0.717 A
HETATM   23  N8  UNL     1      29.399 -60.579  13.924  1.00  0.00    -0.115 N
HETATM   24  N9  UNL     1      29.780 -61.811  14.144  1.00  0.00    -0.213 N
ATOM     25  H8  UNL     1      28.437 -60.266  13.793  1.00  0.00     0.207 HD
HETATM   26  N10 UNL     1      31.092 -61.810  14.257  1.00  0.00    -0.213 N
ATOM     27  H9  UNL     1      29.171 -62.626  14.215  1.00  0.00     0.210 HD
HETATM   28  N11 UNL     1      31.543 -60.580  14.110  1.00  0.00    -0.115 N
ATOM     29  H10 UNL     1      31.669 -62.633  14.430  1.00  0.00     0.210 HD
ATOM     30  H11 UNL     1      32.517 -60.280  14.150  1.00  0.00     0.207 HD
ENDBRANCH  19  22
ENDBRANCH  14  16
ENDBRANCH   8  13
BRANCH   1  31
HETATM   31  N2  UNL     1      25.783 -55.879   4.499  1.00  0.00    -0.131 N
ATOM     32  H2  UNL     1      25.037 -55.253   4.198  1.00  0.00     0.205 HD
BRANCH  31  33
HETATM   33  N1  UNL     1      27.011 -55.905   3.854  1.00  0.00    -0.298 N
HETATM   34  C5  UNL     1      27.504 -54.744   3.490  1.00  0.00     0.125 C
ATOM     35  H1  UNL     1      27.503 -56.780   3.672  1.00  0.00     0.186 HD
BRANCH  34  36
HETATM   36  C3  UNL     1      28.799 -54.761   2.807  1.00  0.00     0.137 C
HETATM   37  C4  UNL     1      28.859 -56.068   2.002  1.00  0.00     0.060 C
BRANCH  36  38
HETATM   38  C2  UNL     1      29.937 -54.695   3.754  1.00  0.00     0.073 C
HETATM   39  C1  UNL     1      30.811 -53.722   3.727  1.00  0.00     0.049 C
BRANCH  38  40
HETATM   40  O1  UNL     1      30.056 -55.707   4.685  1.00  0.00    -0.362 OA
ATOM     41  H1  UNL     1      30.894 -55.877   5.099  1.00  0.00     0.217 HD
ENDBRANCH  38  40
ENDBRANCH  36  38
BRANCH  36  42
HETATM   42  O3  UNL     1      28.862 -53.725   1.897  1.00  0.00    -0.369 OA
BRANCH  42  43
HETATM   43  C14 UNL     1      29.011 -54.187   0.602  1.00  0.00     0.165 C
HETATM   44  C15 UNL     1      29.421 -53.031  -0.294  1.00  0.00     0.033 C
ENDBRANCH  42  43
ENDBRANCH  36  42
ENDBRANCH  34  36
ENDBRANCH  31  33
ENDBRANCH   1  31
TORSDOF 10
ENDMDL