MODEL 4
REMARK VINA RESULT: -8.729403881      1.281      1.533
REMARK  8 active torsions:
REMARK  status: ('A' for Active; 'I' for Inactive)
REMARK    1  A    between atoms: C2_2  and  O1_3
REMARK    2  A    between atoms: C2_2  and  C5_16
REMARK    3  A    between atoms: O1_3  and  C3_4
REMARK    4  A    between atoms: C4_8  and  N3_9
REMARK    5  A    between atoms: N3_9  and  N4_11
REMARK    6  A    between atoms: C7_23  and  N8_24
REMARK    7  A    between atoms: N8_24  and  N9_26
REMARK       I    between atoms: N9_26  and  C8_28
REMARK    8  A    between atoms: C8_28  and  C9_30
ROOT
HETATM    1  C5  UNL     1      27.484 -54.049   5.377  1.00  0.00     0.128 A
HETATM    2  N6  UNL     1      26.911 -54.458   4.227  1.00  0.00    -0.320 N
ATOM      3  H6  UNL     1      26.909 -53.842   3.414  1.00  0.00     0.169 HD
HETATM    4  C6  UNL     1      26.337 -55.683   4.144  1.00  0.00     0.192 A
HETATM    5  S1  UNL     1      25.653 -56.128   2.714  1.00  0.00    -0.040 SA
HETATM    6  N7  UNL     1      26.314 -56.531   5.185  1.00  0.00    -0.165 N
ATOM      7  H7  UNL     1      25.877 -57.449   5.101  1.00  0.00     0.186 HD
HETATM    8  C7  UNL     1      26.879 -56.143   6.338  1.00  0.00     0.700 A
HETATM    9  N11 UNL     1      27.440 -54.926   6.393  1.00  0.00    -0.176 N
ATOM     10  H11 UNL     1      27.866 -54.644   7.276  1.00  0.00     0.185 HD
ENDROOT
BRANCH   1  11
HETATM   11  C2  UNL     1      28.133 -52.709   5.519  1.00  0.00     0.189 C
HETATM   12  C1  UNL     1      27.014 -51.716   5.790  1.00  0.00     0.048 C
BRANCH  11  13
HETATM   13  O1  UNL     1      28.801 -52.411   4.356  1.00  0.00    -0.338 OA
BRANCH  13  14
HETATM   14  C3  UNL     1      30.089 -51.941   4.598  1.00  0.00     0.343 A
HETATM   15  N1  UNL     1      30.927 -52.056   3.418  1.00  0.00    -0.085 NA
HETATM   16  N2  UNL     1      31.992 -52.916   3.706  1.00  0.00    -0.270 N
HETATM   17  C4  UNL     1      31.925 -53.326   4.933  1.00  0.00     0.214 A
ATOM     18  H2  UNL     1      32.719 -53.182   3.042  1.00  0.00     0.185 HD
HETATM   19  N5  UNL     1      30.786 -52.750   5.550  1.00  0.00    -0.319 N
ATOM     20  H5  UNL     1      30.507 -52.891   6.521  1.00  0.00     0.166 HD
BRANCH  17  21
HETATM   21  N3  UNL     1      32.869 -54.211   5.515  1.00  0.00    -0.210 N
ATOM     22  H3  UNL     1      32.554 -54.871   6.226  1.00  0.00     0.196 HD
BRANCH  21  23
HETATM   23  N4  UNL     1      34.212 -54.205   5.148  1.00  0.00    -0.036 N
HETATM   24  O2  UNL     1      34.851 -53.187   4.863  1.00  0.00    -0.516 OA
HETATM   25  O3  UNL     1      34.874 -55.430   5.100  1.00  0.00    -0.516 OA
ENDBRANCH  21  23
ENDBRANCH  17  21
ENDBRANCH  13  14
ENDBRANCH  11  13
ENDBRANCH   1  11
BRANCH   8  26
HETATM   26  N8  UNL     1      26.923 -56.866   7.405  1.00  0.00    -0.129 N
ATOM     27  H8  UNL     1      26.163 -57.533   7.535  1.00  0.00     0.205 HD
BRANCH  26  28
HETATM   28  N9  UNL     1      27.881 -56.834   8.385  1.00  0.00    -0.251 N
HETATM   29  C8  UNL     1      27.847 -57.661   9.533  1.00  0.00     0.271 C
HETATM   30  O4  UNL     1      26.885 -58.460   9.650  1.00  0.00    -0.266 OA
ATOM     31  H9  UNL     1      28.658 -56.181   8.282  1.00  0.00     0.191 HD
BRANCH  29  32
HETATM   32  C9  UNL     1      28.852 -57.639  10.580  1.00  0.00     0.049 A
HETATM   33  C10 UNL     1      28.693 -58.392  11.749  1.00  0.00     0.020 A
HETATM   34  C11 UNL     1      29.627 -58.392  12.745  1.00  0.00     0.018 A
HETATM   35  C12 UNL     1      30.768 -57.605  12.563  1.00  0.00     0.087 A
HETATM   36  N10 UNL     1      30.924 -56.875  11.434  1.00  0.00    -0.374 N
HETATM   37  C13 UNL     1      29.994 -56.883  10.454  1.00  0.00     0.104 A
ATOM     38  H10 UNL     1      31.763 -56.307  11.320  1.00  0.00     0.164 HD
ENDBRANCH  29  32
ENDBRANCH  26  28
ENDBRANCH   8  26
TORSDOF 8
ENDMDL