MODEL 5
REMARK VINA RESULT: -7.654192851      1.792      1.998
REMARK  10 active torsions:
REMARK  status: ('A' for Active; 'I' for Inactive)
REMARK    1  A    between atoms: C4_6  and  N2_7
REMARK    2  A    between atoms: N2_7  and  N3_9
REMARK    3  A    between atoms: N3_9  and  C5_11
REMARK    4  A    between atoms: C8_16  and  C9_17
REMARK    5  A    between atoms: C9_17  and  N5_18
REMARK    6  A    between atoms: C11_25  and  O1_26
REMARK    7  A    between atoms: C11_25  and  C12_28
REMARK    8  A    between atoms: C12_28  and  C13_29
REMARK    9  A    between atoms: C14_34  and  C15_35
REMARK   10  A    between atoms: C15_35  and  C16_36
ROOT
HETATM    1  C1  UNL     1      30.430 -54.238   3.786  1.00  0.00     0.044 C
HETATM    2  C2  UNL     1      28.992 -54.505   4.188  1.00  0.00     0.091 C
HETATM    3  C3  UNL     1      28.174 -54.937   2.995  1.00  0.00     0.044 C
HETATM    4  N1  UNL     1      29.037 -55.586   5.143  1.00  0.00    -0.212 N
ATOM      5  H1  UNL     1      29.583 -56.444   5.056  1.00  0.00     0.178 HD
HETATM    6  C4  UNL     1      28.191 -55.244   6.218  1.00  0.00     0.691 C
HETATM    7  N6  UNL     1      27.849 -54.011   6.138  1.00  0.00    -0.190 N
ATOM      8  H6  UNL     1      27.240 -53.540   6.806  1.00  0.00     0.181 HD
HETATM    9  C11 UNL     1      28.448 -53.364   4.959  1.00  0.00     0.178 C
ENDROOT
BRANCH   9  10
HETATM   10  O1  UNL     1      29.463 -52.491   5.406  1.00  0.00    -0.367 OA
ATOM     11  H1  UNL     1      29.841 -52.775   6.230  1.00  0.00     0.212 HD
ENDBRANCH   9  10
BRANCH   9  12
HETATM   12  C12 UNL     1      27.366 -52.563   4.349  1.00  0.00     0.130 C
BRANCH  12  13
HETATM   13  C13 UNL     1      27.297 -51.172   4.828  1.00  0.00     0.072 A
HETATM   14  N7  UNL     1      27.800 -50.020   4.421  1.00  0.00    -0.297 N
HETATM   15  N8  UNL     1      27.565 -48.953   5.049  1.00  0.00    -0.297 N
ATOM     16  H7  UNL     1      28.386 -49.993   3.587  1.00  0.00     0.187 HD
HETATM   17  C14 UNL     1      26.803 -48.978   6.137  1.00  0.00     0.075 A
ATOM     18  H8  UNL     1      27.959 -48.071   4.723  1.00  0.00     0.187 HD
HETATM   19  S1  UNL     1      26.421 -50.641   6.232  1.00  0.00    -0.060 SA
BRANCH  17  20
HETATM   20  C15 UNL     1      26.398 -47.837   7.031  1.00  0.00     0.145 C
BRANCH  20  21
HETATM   21  C16 UNL     1      24.971 -47.554   6.803  1.00  0.00     0.119 A
HETATM   22  N9  UNL     1      24.207 -48.008   5.803  1.00  0.00    -0.272 N
HETATM   23  N10 UNL     1      22.976 -47.510   5.976  1.00  0.00    -0.227 N
ATOM     24  H9  UNL     1      24.508 -48.622   5.046  1.00  0.00     0.190 HD
HETATM   25  N11 UNL     1      22.957 -46.760   7.057  1.00  0.00    -0.227 N
ATOM     26  H10 UNL     1      22.178 -47.686   5.365  1.00  0.00     0.210 HD
HETATM   27  N12 UNL     1      24.173 -46.791   7.556  1.00  0.00    -0.272 N
ATOM     28  H11 UNL     1      22.154 -46.255   7.435  1.00  0.00     0.210 HD
ATOM     29  H12 UNL     1      24.468 -46.301   8.401  1.00  0.00     0.190 HD
ENDBRANCH  20  21
ENDBRANCH  17  20
ENDBRANCH  12  13
ENDBRANCH   9  12
BRANCH   6  30
HETATM   30  N2  UNL     1      27.807 -56.193   7.226  1.00  0.00    -0.132 N
ATOM     31  H2  UNL     1      26.947 -56.726   7.090  1.00  0.00     0.205 HD
BRANCH  30  32
HETATM   32  N3  UNL     1      28.546 -56.416   8.367  1.00  0.00    -0.287 N
ATOM     33  H3  UNL     1      29.432 -55.923   8.480  1.00  0.00     0.187 HD
BRANCH  32  34
HETATM   34  C5  UNL     1      28.158 -57.237   9.312  1.00  0.00     0.051 A
HETATM   35  C6  UNL     1      27.029 -58.015   9.170  1.00  0.00     0.048 A
HETATM   36  C7  UNL     1      26.687 -58.856  10.216  1.00  0.00     0.090 A
HETATM   37  N4  UNL     1      27.431 -58.918  11.342  1.00  0.00    -0.368 N
HETATM   38  C8  UNL     1      28.529 -58.180  11.513  1.00  0.00     0.036 A
ATOM     39  H4  UNL     1      27.143 -59.552  12.088  1.00  0.00     0.165 HD
HETATM   40  C10 UNL     1      28.887 -57.331  10.477  1.00  0.00     0.057 A
BRANCH  38  41
HETATM   41  C9  UNL     1      29.291 -58.299  12.767  1.00  0.00     0.286 C
BRANCH  41  42
HETATM   42  N5  UNL     1      29.198 -59.598  13.369  1.00  0.00    -0.074 N
ATOM     43  H53 UNL     1      28.520 -60.178  12.875  1.00  0.00     0.274 HD
ATOM     44  H52 UNL     1      30.044 -60.140  13.193  1.00  0.00     0.274 HD
ATOM     45  H51 UNL     1      28.990 -59.568  14.367  1.00  0.00     0.274 HD
ENDBRANCH  41  42
ENDBRANCH  38  41
ENDBRANCH  32  34
ENDBRANCH  30  32
ENDBRANCH   6  30
TORSDOF 10
ENDMDL