MODEL 3
REMARK VINA RESULT: -6.557766047      3.968      4.449
REMARK  9 active torsions:
REMARK  status: ('A' for Active; 'I' for Inactive)
REMARK    1  A    between atoms: O1_2  and  C2_3
REMARK    2  A    between atoms: C2_3  and  C3_5
REMARK    3  A    between atoms: C6_8  and  C7_9
REMARK    4  A    between atoms: N1_10  and  N2_12
REMARK    5  A    between atoms: C10_19  and  N5_20
REMARK       I    between atoms: N5_20  and  C11_22
REMARK    6  A    between atoms: C11_22  and  C12_24
REMARK    7  A    between atoms: C12_24  and  N6_25
REMARK    8  A    between atoms: C12_24  and  C13_29
REMARK    9  A    between atoms: C13_29  and  N7_30
ROOT
HETATM    1  N2  UNL     1      28.890 -55.887   7.242  1.00  0.00    -0.284 N
ATOM      2  H2  UNL     1      29.673 -55.742   7.879  1.00  0.00     0.188 HD
HETATM    3  C8  UNL     1      29.047 -55.452   6.069  1.00  0.00     0.144 A
HETATM    4  N3  UNL     1      30.232 -54.833   5.752  1.00  0.00    -0.327 N
ATOM      5  H3  UNL     1      30.954 -54.738   6.466  1.00  0.00     0.168 HD
HETATM    6  C9  UNL     1      30.456 -54.352   4.527  1.00  0.00     0.146 A
HETATM    7  N4  UNL     1      31.695 -53.715   4.227  1.00  0.00    -0.080 NA
HETATM    8  C10 UNL     1      29.514 -54.453   3.525  1.00  0.00     0.102 A
HETATM    9  C14 UNL     1      28.333 -55.073   3.851  1.00  0.00     0.101 A
HETATM   10  N8  UNL     1      27.328 -55.212   2.882  1.00  0.00    -0.098 NA
HETATM   11  C15 UNL     1      28.063 -55.589   5.125  1.00  0.00     0.116 A
HETATM   12  C16 UNL     1      26.791 -56.225   5.374  1.00  0.00     0.105 C
HETATM   13  N9  UNL     1      25.759 -56.731   5.544  1.00  0.00    -0.191 NA
ENDROOT
BRANCH   1  14
HETATM   14  N1  UNL     1      27.827 -56.515   7.757  1.00  0.00    -0.309 N
HETATM   15  C7  UNL     1      27.573 -57.152   8.790  1.00  0.00     0.126 C
ATOM     16  H1  UNL     1      27.016 -56.455   7.141  1.00  0.00     0.186 HD
BRANCH  15  17
HETATM   17  C6  UNL     1      28.547 -57.398   9.854  1.00  0.00     0.022 A
HETATM   18  C5  UNL     1      29.837 -56.989  10.014  1.00  0.00     0.022 A
HETATM   19  C4  UNL     1      30.499 -57.376  11.110  1.00  0.00     0.026 A
HETATM   20  C3  UNL     1      29.831 -58.165  12.006  1.00  0.00     0.081 A
HETATM   21  S1  UNL     1      28.300 -58.342  11.293  1.00  0.00    -0.083 SA
BRANCH  20  22
HETATM   22  C2  UNL     1      30.347 -58.716  13.283  1.00  0.00     0.299 C
HETATM   23  O2  UNL     1      31.449 -58.290  13.702  1.00  0.00    -0.259 OA
BRANCH  22  24
HETATM   24  O1  UNL     1      29.656 -59.659  13.990  1.00  0.00    -0.322 OA
HETATM   25  C1  UNL     1      30.185 -60.925  14.348  1.00  0.00     0.213 C
ENDBRANCH  22  24
ENDBRANCH  20  22
ENDBRANCH  15  17
ENDBRANCH   1  14
BRANCH   8  26
HETATM   26  N5  UNL     1      29.725 -53.954   2.225  1.00  0.00    -0.321 N
HETATM   27  C11 UNL     1      29.376 -52.618   1.845  1.00  0.00     0.254 C
HETATM   28  O3  UNL     1      28.860 -51.842   2.685  1.00  0.00    -0.271 OA
ATOM     29  H5  UNL     1      30.144 -54.569   1.527  1.00  0.00     0.169 HD
BRANCH  27  30
HETATM   30  C12 UNL     1      29.628 -52.158   0.462  1.00  0.00     0.300 C
BRANCH  30  31
HETATM   31  N6  UNL     1      29.568 -53.217  -0.500  1.00  0.00    -0.065 N
ATOM     32  H63 UNL     1      28.997 -52.949  -1.301  1.00  0.00     0.275 HD
ATOM     33  H62 UNL     1      30.466 -53.336  -0.967  1.00  0.00     0.275 HD
ATOM     34  H61 UNL     1      29.246 -54.099  -0.102  1.00  0.00     0.275 HD
ENDBRANCH  30  31
BRANCH  30  35
HETATM   35  C13 UNL     1      28.662 -51.068   0.035  1.00  0.00     0.272 C
BRANCH  35  36
HETATM   36  N7  UNL     1      29.213 -49.795   0.497  1.00  0.00    -0.077 N
ATOM     37  H73 UNL     1      29.125 -49.664   1.504  1.00  0.00     0.274 HD
ATOM     38  H72 UNL     1      30.231 -49.760   0.447  1.00  0.00     0.274 HD
ATOM     39  H71 UNL     1      28.761 -49.056  -0.043  1.00  0.00     0.274 HD
ENDBRANCH  35  36
ENDBRANCH  30  35
ENDBRANCH  27  30
ENDBRANCH   8  26
TORSDOF 9
ENDMDL