MODEL 5
REMARK VINA RESULT: -7.525210614      1.771      2.463
REMARK  8 active torsions:
REMARK  status: ('A' for Active; 'I' for Inactive)
REMARK    1  A    between atoms: C2_2  and  N1_3
REMARK    2  A    between atoms: C2_2  and  C7_21
REMARK    3  A    between atoms: N1_3  and  O1_5
REMARK    4  A    between atoms: O1_5  and  C3_6
REMARK    5  A    between atoms: C3_6  and  C4_7
REMARK       I    between atoms: C4_7  and  N2_9
REMARK    6  A    between atoms: N2_9  and  C5_11
REMARK    7  A    between atoms: C8_28  and  C9_29
REMARK    8  A    between atoms: C9_29  and  C12_33
ROOT
HETATM    1  C9  UNL     1      27.204 -52.973   4.982  1.00  0.00     0.157 C
HETATM    2  C10 UNL     1      25.900 -53.373   4.328  1.00  0.00     0.047 C
HETATM    3  C11 UNL     1      27.003 -52.499   6.340  1.00  0.00     0.084 C
HETATM    4  N9  UNL     1      26.850 -52.089   7.410  1.00  0.00    -0.196 NA
ENDROOT
BRANCH   1   5
HETATM    5  C8  UNL     1      28.190 -54.026   4.839  1.00  0.00     0.087 A
HETATM    6  C7  UNL     1      28.419 -55.208   5.440  1.00  0.00     0.099 A
HETATM    7  N6  UNL     1      29.533 -55.756   4.789  1.00  0.00    -0.282 N
HETATM    8  N7  UNL     1      29.951 -54.965   3.862  1.00  0.00    -0.242 N
ATOM      9  H6  UNL     1      29.954 -56.656   5.018  1.00  0.00     0.188 HD
HETATM   10  N8  UNL     1      29.169 -53.924   3.869  1.00  0.00    -0.286 N
ATOM     11  H7  UNL     1      30.743 -55.124   3.239  1.00  0.00     0.208 HD
ATOM     12  H8  UNL     1      29.268 -53.130   3.237  1.00  0.00     0.188 HD
BRANCH   6  13
HETATM   13  C2  UNL     1      27.791 -55.881   6.517  1.00  0.00     0.058 C
HETATM   14  C1  UNL     1      26.529 -56.545   6.615  1.00  0.00     0.072 C
BRANCH  13  15
HETATM   15  N1  UNL     1      28.499 -55.871   7.642  1.00  0.00    -0.269 N
ATOM     16  H1  UNL     1      29.257 -55.203   7.784  1.00  0.00     0.194 HD
BRANCH  15  17
HETATM   17  O1  UNL     1      28.179 -56.780   8.592  1.00  0.00    -0.271 OA
BRANCH  17  18
HETATM   18  C3  UNL     1      29.071 -57.214   9.604  1.00  0.00     0.304 C
BRANCH  18  19
HETATM   19  C4  UNL     1      28.279 -57.785  10.727  1.00  0.00     0.249 C
HETATM   20  O2  UNL     1      27.275 -58.534  10.492  1.00  0.00    -0.271 OA
HETATM   21  N2  UNL     1      28.579 -57.544  12.085  1.00  0.00    -0.304 N
ATOM     22  H2  UNL     1      28.229 -56.713  12.562  1.00  0.00     0.171 HD
BRANCH  21  23
HETATM   23  C5  UNL     1      29.323 -58.426  12.715  1.00  0.00     0.183 A
HETATM   24  N3  UNL     1      28.962 -59.649  13.107  1.00  0.00    -0.168 N
HETATM   25  C6  UNL     1      29.853 -60.379  13.722  1.00  0.00     0.684 A
ATOM     26  H3  UNL     1      28.021 -60.002  12.932  1.00  0.00     0.186 HD
HETATM   27  N4  UNL     1      29.581 -61.605  14.146  1.00  0.00    -0.234 N
HETATM   28  N5  UNL     1      31.065 -59.866  13.924  1.00  0.00    -0.157 N
ATOM     29  H42 UNL     1      28.652 -61.998  13.991  1.00  0.00     0.174 HD
ATOM     30  H41 UNL     1      30.277 -62.175  14.626  1.00  0.00     0.174 HD
HETATM   31  S1  UNL     1      30.942 -58.334  13.235  1.00  0.00     0.039 SA
ATOM     32  H5  UNL     1      31.869 -60.295  14.382  1.00  0.00     0.193 HD
ENDBRANCH  21  23
ENDBRANCH  18  19
ENDBRANCH  17  18
ENDBRANCH  15  17
ENDBRANCH  13  15
ENDBRANCH   6  13
ENDBRANCH   1   5
BRANCH   1  33
HETATM   33  C12 UNL     1      27.653 -51.769   4.155  1.00  0.00     0.171 A
HETATM   34  N10 UNL     1      28.107 -50.652   4.721  1.00  0.00    -0.278 N
HETATM   35  N11 UNL     1      28.429 -49.762   3.772  1.00  0.00    -0.263 N
ATOM     36  H10 UNL     1      28.195 -50.497   5.726  1.00  0.00     0.189 HD
HETATM   37  C13 UNL     1      28.149 -50.396   2.608  1.00  0.00     0.238 A
ATOM     38  H11 UNL     1      28.801 -48.821   3.899  1.00  0.00     0.190 HD
HETATM   39  N12 UNL     1      28.315 -49.891   1.436  1.00  0.00    -0.364 N
HETATM   40  O3  UNL     1      27.683 -51.604   2.875  1.00  0.00    -0.262 OA
ATOM     41 2H12 UNL     1      28.674 -48.959   1.230  1.00  0.00     0.159 HD
ATOM     42 1H12 UNL     1      28.104 -50.369   0.560  1.00  0.00     0.159 HD
ENDBRANCH   1  33
TORSDOF 8
ENDMDL