MODEL 4
REMARK VINA RESULT: -6.919439150      2.690      4.525
REMARK  8 active torsions:
REMARK  status: ('A' for Active; 'I' for Inactive)
REMARK    1  A    between atoms: N1_1  and  C1_4
REMARK    2  A    between atoms: N5_11  and  C2_12
REMARK    3  A    between atoms: C2_12  and  C3_13
REMARK    4  A    between atoms: C3_13  and  N6_14
REMARK    5  A    between atoms: C7_24  and  C8_25
REMARK    6  A    between atoms: C8_25  and  N9_26
REMARK    7  A    between atoms: C11_31  and  N11_32
REMARK    8  A    between atoms: N11_32  and  N12_34
ROOT
HETATM    1  N6  UNL     1      26.504 -53.428   4.352  1.00  0.00    -0.320 N
HETATM    2  C4  UNL     1      25.766 -53.024   5.394  1.00  0.00     0.181 A
HETATM    3  S1  UNL     1      24.499 -53.888   5.965  1.00  0.00    -0.040 SA
HETATM    4  N7  UNL     1      26.087 -51.860   5.986  1.00  0.00    -0.298 N
ATOM      5  H7  UNL     1      25.541 -51.528   6.782  1.00  0.00     0.171 HD
HETATM    6  C5  UNL     1      27.129 -51.128   5.535  1.00  0.00     0.276 A
HETATM    7  O1  UNL     1      27.457 -50.032   6.067  1.00  0.00    -0.266 OA
HETATM    8  C6  UNL     1      27.894 -51.546   4.455  1.00  0.00     0.128 A
HETATM    9  N8  UNL     1      28.957 -51.038   3.806  1.00  0.00    -0.352 N
ATOM     10  H8  UNL     1      29.419 -50.159   4.038  1.00  0.00     0.166 HD
HETATM   11  C7  UNL     1      29.323 -51.857   2.808  1.00  0.00     0.030 A
HETATM   12  C12 UNL     1      28.450 -52.918   2.836  1.00  0.00     0.059 A
HETATM   13  C13 UNL     1      27.554 -52.731   3.864  1.00  0.00     0.071 A
ENDROOT
BRANCH   1  14
HETATM   14  C3  UNL     1      26.143 -54.679   3.729  1.00  0.00     0.154 C
BRANCH  14  15
HETATM   15  C2  UNL     1      26.561 -55.850   4.620  1.00  0.00     0.190 C
BRANCH  15  16
HETATM   16  N5  UNL     1      27.987 -55.764   4.924  1.00  0.00    -0.106 N
HETATM   17  C1  UNL     1      28.500 -55.492   6.136  1.00  0.00     0.709 A
HETATM   18  N2  UNL     1      29.831 -55.500   6.016  1.00  0.00    -0.115 N
HETATM   19  N3  UNL     1      30.136 -55.767   4.765  1.00  0.00    -0.213 N
ATOM     20  H2  UNL     1      30.498 -55.327   6.768  1.00  0.00     0.207 HD
HETATM   21  N4  UNL     1      29.007 -55.926   4.108  1.00  0.00    -0.211 N
ATOM     22  H3  UNL     1      31.077 -55.838   4.375  1.00  0.00     0.210 HD
ATOM     23  H4  UNL     1      28.933 -56.143   3.114  1.00  0.00     0.210 HD
BRANCH  17  24
HETATM   24  N1  UNL     1      27.862 -55.263   7.233  1.00  0.00    -0.232 N
ATOM     25  H12 UNL     1      28.120 -55.544   8.180  1.00  0.00     0.174 HD
ATOM     26  H11 UNL     1      26.984 -54.748   7.298  1.00  0.00     0.174 HD
ENDBRANCH  17  24
ENDBRANCH  15  16
ENDBRANCH  14  15
ENDBRANCH   1  14
BRANCH  11  27
HETATM   27  C8  UNL     1      30.455 -51.607   1.889  1.00  0.00     0.198 C
BRANCH  27  28
HETATM   28  N9  UNL     1      31.471 -50.910   2.625  1.00  0.00    -0.209 N
HETATM   29  C9  UNL     1      31.746 -49.487   2.594  1.00  0.00     0.161 C
HETATM   30  C10 UNL     1      33.231 -49.450   2.884  1.00  0.00     0.158 C
HETATM   31  N10 UNL     1      33.411 -50.644   3.684  1.00  0.00    -0.223 N
HETATM   32  C11 UNL     1      32.415 -51.461   3.532  1.00  0.00     0.696 C
ATOM     33  H10 UNL     1      34.214 -50.819   4.287  1.00  0.00     0.177 HD
BRANCH  32  34
HETATM   34  N11 UNL     1      32.231 -52.743   4.155  1.00  0.00    -0.072 N
ATOM     35  H11 UNL     1      32.394 -53.611   3.646  1.00  0.00     0.212 HD
BRANCH  34  36
HETATM   36  N12 UNL     1      31.823 -52.749   5.480  1.00  0.00    -0.024 N
HETATM   37  O2  UNL     1      32.235 -53.656   6.227  1.00  0.00    -0.516 OA
HETATM   38  O3  UNL     1      30.983 -51.808   6.023  1.00  0.00    -0.516 OA
ENDBRANCH  34  36
ENDBRANCH  32  34
ENDBRANCH  27  28
ENDBRANCH  11  27
TORSDOF 8
ENDMDL