MODEL 2
REMARK VINA RESULT: -7.195690494      2.619      5.953
REMARK  7 active torsions:
REMARK  status: ('A' for Active; 'I' for Inactive)
REMARK    1  A    between atoms: C2_2  and  C3_4
REMARK    2  A    between atoms: C4_5  and  C5_6
REMARK    3  A    between atoms: C5_6  and  C7_14
REMARK    4  A    between atoms: N1_7  and  N2_9
REMARK       I    between atoms: N2_9  and  C6_11
REMARK    5  A    between atoms: C8_17  and  C9_18
REMARK    6  A    between atoms: C10_21  and  N5_22
REMARK       I    between atoms: N6_24  and  C11_26
REMARK    7  A    between atoms: N9_32  and  N10_33
ROOT
HETATM    1  C5  UNL     1      25.636 -52.240   5.939  1.00  0.00     0.130 C
HETATM    2  N1  UNL     1      24.449 -52.800   6.254  1.00  0.00    -0.291 N
ATOM      3  H1  UNL     1      23.768 -52.179   6.690  1.00  0.00     0.187 HD
ENDROOT
BRANCH   1   4
HETATM    4  C4  UNL     1      25.687 -50.847   6.294  1.00  0.00     0.112 A
HETATM    5  C3  UNL     1      25.111 -49.793   5.685  1.00  0.00     0.109 A
HETATM    6  C13 UNL     1      25.282 -48.445   6.129  1.00  0.00     0.265 A
HETATM    7  N11 UNL     1      26.040 -48.238   7.185  1.00  0.00    -0.273 N
HETATM    8  O7  UNL     1      24.738 -47.486   5.546  1.00  0.00    -0.267 OA
HETATM    9  C12 UNL     1      26.620 -49.260   7.806  1.00  0.00     0.348 A
ATOM     10  H11 UNL     1      26.182 -47.289   7.529  1.00  0.00     0.173 HD
HETATM   11  N9  UNL     1      26.466 -50.507   7.401  1.00  0.00    -0.208 N
HETATM   12  O6  UNL     1      27.350 -49.023   8.832  1.00  0.00    -0.245 OA
BRANCH   5  13
HETATM   13  C2  UNL     1      24.232 -49.826   4.533  1.00  0.00     0.163 C
HETATM   14  C1  UNL     1      24.810 -49.489   3.194  1.00  0.00     0.097 C
HETATM   15  O1  UNL     1      23.037 -50.131   4.639  1.00  0.00    -0.292 OA
ENDBRANCH   5  13
BRANCH  11  16
HETATM   16  N10 UNL     1      27.100 -51.554   8.085  1.00  0.00    -0.334 N
ATOM     17 2H10 UNL     1      28.116 -51.565   8.177  1.00  0.00     0.177 HD
ATOM     18 1H10 UNL     1      26.505 -52.286   8.473  1.00  0.00     0.177 HD
ENDBRANCH  11  16
ENDBRANCH   1   4
BRANCH   1  19
HETATM   19  C7  UNL     1      26.546 -53.173   5.355  1.00  0.00     0.181 A
HETATM   20  N4  UNL     1      26.692 -53.854   4.232  1.00  0.00    -0.326 N
HETATM   21  C8  UNL     1      27.763 -54.624   4.191  1.00  0.00     0.165 A
ATOM     22  H4  UNL     1      26.030 -53.789   3.460  1.00  0.00     0.168 HD
HETATM   23  C10 UNL     1      28.357 -54.407   5.416  1.00  0.00     0.198 A
HETATM   24  O5  UNL     1      27.632 -53.565   6.066  1.00  0.00    -0.271 OA
BRANCH  21  25
HETATM   25  C9  UNL     1      28.252 -55.510   3.134  1.00  0.00     0.231 C
HETATM   26  O3  UNL     1      29.449 -55.389   2.777  1.00  0.00    -0.643 OA
HETATM   27  O4  UNL     1      27.412 -56.449   2.553  1.00  0.00    -0.643 OA
ENDBRANCH  21  25
BRANCH  23  28
HETATM   28  N5  UNL     1      29.571 -55.025   5.862  1.00  0.00    -0.275 N
HETATM   29  N6  UNL     1      30.712 -54.538   5.722  1.00  0.00    -0.272 N
HETATM   30  C11 UNL     1      31.049 -53.316   5.115  1.00  0.00     0.200 C
ATOM     31  H6  UNL     1      31.488 -55.089   6.089  1.00  0.00     0.189 HD
HETATM   32  N7  UNL     1      31.287 -53.231   3.845  1.00  0.00    -0.372 N
HETATM   33  N8  UNL     1      31.136 -52.118   5.901  1.00  0.00    -0.062 NA
ATOM     34  H72 UNL     1      31.225 -54.083   3.287  1.00  0.00     0.158 HD
ATOM     35  H71 UNL     1      31.531 -52.344   3.405  1.00  0.00     0.158 HD
ATOM     36  H5  UNL     1      29.497 -55.929   6.329  1.00  0.00     0.189 HD
ENDBRANCH  23  28
ENDBRANCH   1  19
BRANCH   2  37
HETATM   37  N2  UNL     1      24.050 -54.061   6.071  1.00  0.00    -0.253 N
HETATM   38  C6  UNL     1      23.196 -54.375   4.953  1.00  0.00     0.347 C
HETATM   39  N3  UNL     1      22.783 -55.703   4.771  1.00  0.00    -0.038 NA
HETATM   40  O2  UNL     1      22.841 -53.467   4.172  1.00  0.00    -0.249 OA
ATOM     41  H2  UNL     1      24.346 -54.793   6.716  1.00  0.00     0.191 HD
ENDBRANCH   2  37
TORSDOF 7
ENDMDL