MODEL 5
REMARK VINA RESULT: -6.873758540      3.141      6.381
REMARK  10 active torsions:
REMARK  status: ('A' for Active; 'I' for Inactive)
REMARK    1  A    between atoms: C2_2  and  C3_3
REMARK    2  A    between atoms: C3_3  and  C4_4
REMARK    3  A    between atoms: C4_4  and  S1_5
REMARK    4  A    between atoms: S1_5  and  C5_6
REMARK    5  A    between atoms: C6_10  and  S2_11
REMARK    6  A    between atoms: S2_11  and  C7_12
REMARK    7  A    between atoms: C8_16  and  N5_17
REMARK    8  A    between atoms: C9_22  and  N7_23
REMARK    9  A    between atoms: C11_33  and  N11_34
REMARK   10  A    between atoms: N13_40  and  O1_41
ROOT
HETATM    1  C5  UNL     1      28.225 -55.378   6.468  1.00  0.00     0.205 A
HETATM    2  N1  UNL     1      27.470 -54.249   6.273  1.00  0.00    -0.254 N
ATOM      3  H1  UNL     1      26.652 -53.995   6.826  1.00  0.00     0.190 HD
HETATM    4  N2  UNL     1      27.941 -53.551   5.288  1.00  0.00    -0.058 N
HETATM    5  C6  UNL     1      27.594 -52.381   4.687  1.00  0.00     0.206 A
HETATM    6  N10 UNL     1      28.296 -51.890   3.658  1.00  0.00    -0.167 N
ATOM      7  H10 UNL     1      28.017 -51.010   3.224  1.00  0.00     0.186 HD
HETATM    8  C11 UNL     1      29.375 -52.562   3.194  1.00  0.00     0.692 A
HETATM    9  N12 UNL     1      29.743 -53.726   3.769  1.00  0.00    -0.018 N
ATOM     10  H12 UNL     1      30.554 -54.247   3.433  1.00  0.00     0.203 HD
HETATM   11  C12 UNL     1      29.006 -54.179   4.803  1.00  0.00     0.749 A
HETATM   12  N13 UNL     1      29.173 -55.314   5.544  1.00  0.00    -0.025 N
ENDROOT
BRANCH   5  13
HETATM   13  S2  UNL     1      26.164 -51.512   5.309  1.00  0.00    -0.013 SA
BRANCH  13  14
HETATM   14  C7  UNL     1      26.588 -50.782   6.875  1.00  0.00     0.183 A
HETATM   15  N3  UNL     1      26.624 -49.470   7.208  1.00  0.00    -0.243 N
HETATM   16  N4  UNL     1      26.996 -49.325   8.470  1.00  0.00     0.093 N
ATOM     17  H3  UNL     1      26.398 -48.703   6.576  1.00  0.00     0.191 HD
HETATM   18  C8  UNL     1      27.186 -48.254   9.270  1.00  0.00     0.727 A
HETATM   19  C10 UNL     1      27.204 -50.554   8.969  1.00  0.00     0.735 A
HETATM   20  N6  UNL     1      27.580 -48.438  10.551  1.00  0.00    -0.020 N
HETATM   21  C9  UNL     1      27.794 -49.656  11.077  1.00  0.00     0.705 A
ATOM     22  H6  UNL     1      27.719 -47.618  11.142  1.00  0.00     0.203 HD
HETATM   23  N8  UNL     1      27.600 -50.713  10.266  1.00  0.00    -0.020 N
ATOM     24  H8  UNL     1      27.753 -51.655  10.628  1.00  0.00     0.203 HD
HETATM   25  N9  UNL     1      26.953 -51.440   7.988  1.00  0.00    -0.166 N
ATOM     26  H9  UNL     1      27.027 -52.453   8.076  1.00  0.00     0.186 HD
BRANCH  18  27
HETATM   27  N5  UNL     1      26.986 -47.078   8.782  1.00  0.00    -0.232 N
ATOM     28  H52 UNL     1      26.366 -46.923   7.987  1.00  0.00     0.174 HD
ATOM     29  H51 UNL     1      27.463 -46.285   9.211  1.00  0.00     0.174 HD
ENDBRANCH  18  27
BRANCH  21  30
HETATM   30  N7  UNL     1      28.167 -49.735  12.307  1.00  0.00    -0.234 N
ATOM     31  H72 UNL     1      28.640 -48.991  12.820  1.00  0.00     0.174 HD
ATOM     32  H71 UNL     1      27.981 -50.600  12.816  1.00  0.00     0.174 HD
ENDBRANCH  21  30
ENDBRANCH  13  14
ENDBRANCH   5  13
BRANCH   8  33
HETATM   33  N11 UNL     1      30.032 -52.072   2.206  1.00  0.00    -0.234 N
ATOM     34 2H11 UNL     1      29.676 -52.134   1.252  1.00  0.00     0.174 HD
ATOM     35 1H11 UNL     1      30.925 -51.616   2.388  1.00  0.00     0.174 HD
ENDBRANCH   8  33
BRANCH   1  36
HETATM   36  S1  UNL     1      27.799 -56.527   7.725  1.00  0.00    -0.090 SA
BRANCH  36  37
HETATM   37  C4  UNL     1      28.916 -56.663   9.089  1.00  0.00     0.082 C
BRANCH  37  38
HETATM   38  C3  UNL     1      28.479 -57.588  10.171  1.00  0.00     0.010 C
BRANCH  38  39
HETATM   39  C2  UNL     1      29.011 -57.203  11.528  1.00  0.00    -0.004 C
HETATM   40  C1  UNL     1      30.453 -56.820  11.539  1.00  0.00     0.005 C
ENDBRANCH  38  39
ENDBRANCH  37  38
ENDBRANCH  36  37
ENDBRANCH   1  36
BRANCH  12  41
HETATM   41  O1  UNL     1      30.147 -56.243   5.350  1.00  0.00    -0.267 OA
ATOM     42  H1  UNL     1      31.035 -56.058   5.065  1.00  0.00     0.246 HD
ENDBRANCH  12  41
TORSDOF 10
ENDMDL