MODEL 1
REMARK VINA RESULT: -6.147542091      0.000      0.000
REMARK  0 active torsions:
REMARK  status: ('A' for Active; 'I' for Inactive)
ROOT
HETATM    1  N1  UNL     1     -31.736   8.324 -37.804  1.00  0.00    -0.366 N
ATOM      2  H11 UNL     1     -32.318   9.150 -37.937  1.00  0.00     0.159 HD
ATOM      3  H12 UNL     1     -30.924   8.238 -37.192  1.00  0.00     0.159 HD
HETATM    4  C1  UNL     1     -32.043   7.245 -38.480  1.00  0.00     0.212 C
HETATM    5  N2  UNL     1     -31.237   6.100 -38.296  1.00  0.00    -0.356 N
ATOM      6  H2  UNL     1     -30.521   6.173 -37.572  1.00  0.00     0.163 HD
HETATM    7  C2  UNL     1     -31.292   4.843 -38.995  1.00  0.00     0.132 C
HETATM    8  C3  UNL     1     -32.628   4.210 -39.089  1.00  0.00    -0.022 C
HETATM    9  C4  UNL     1     -32.693   3.462 -40.427  1.00  0.00     0.011 C
HETATM   10  C5  UNL     1     -31.996   2.109 -40.313  1.00  0.00     0.001 C
HETATM   11  C6  UNL     1     -32.806   1.150 -39.468  1.00  0.00     0.000 C
HETATM   12  C7  UNL     1     -33.614   2.031 -38.501  1.00  0.00     0.001 C
HETATM   13  C8  UNL     1     -32.678   3.098 -38.026  1.00  0.00     0.011 C
HETATM   14  C9  UNL     1     -33.809   5.069 -38.863  1.00  0.00     0.038 C
HETATM   15  C10 UNL     1     -33.960   6.262 -39.725  1.00  0.00     0.179 C
HETATM   16  O1  UNL     1     -33.167   7.364 -39.326  1.00  0.00    -0.323 OA
ENDROOT
TORSDOF 0
ENDMDL