MODEL 1
REMARK VINA RESULT: -5.899673876      0.000      0.000
REMARK  2 active torsions:
REMARK  status: ('A' for Active; 'I' for Inactive)
REMARK    1  A    between atoms: N1_1  and  C1_5
REMARK    2  A    between atoms: C11_15  and  O1_16
ROOT
HETATM    1  C1  UNL     1     -32.689   2.598 -39.477  1.00  0.00     0.152 C
HETATM    2  C2  UNL     1     -33.267   3.873 -40.012  1.00  0.00     0.042 C
HETATM    3  C3  UNL     1     -33.773   4.810 -38.977  1.00  0.00     0.002 C
HETATM    4  C4  UNL     1     -32.676   5.730 -38.501  1.00  0.00     0.000 C
HETATM    5  C5  UNL     1     -31.467   4.844 -38.204  1.00  0.00     0.000 C
HETATM    6  C6  UNL     1     -31.817   3.665 -37.357  1.00  0.00     0.007 C
HETATM    7  C7  UNL     1     -32.538   2.573 -37.997  1.00  0.00     0.024 C
HETATM    8  C8  UNL     1     -31.872   1.245 -37.629  1.00  0.00     0.007 C
HETATM    9  C9  UNL     1     -32.755   0.078 -37.957  1.00  0.00     0.003 C
HETATM   10  C10 UNL     1     -33.135   0.147 -39.405  1.00  0.00     0.034 C
HETATM   11  C11 UNL     1     -33.713   1.492 -39.794  1.00  0.00     0.154 C
ENDROOT
BRANCH   1  12
HETATM   12  N1  UNL     1     -31.520   2.264 -40.219  1.00  0.00    -0.068 N
ATOM     13  H13 UNL     1     -30.902   3.066 -40.348  1.00  0.00     0.275 HD
ATOM     14  H12 UNL     1     -30.881   1.673 -39.687  1.00  0.00     0.275 HD
ATOM     15  H11 UNL     1     -31.793   1.839 -41.105  1.00  0.00     0.275 HD
ENDBRANCH   1  12
BRANCH  11  16
HETATM   16  O1  UNL     1     -34.898   1.697 -39.113  1.00  0.00    -0.393 OA
ATOM     17  H1  UNL     1     -34.747   1.788 -38.180  1.00  0.00     0.210 HD
ENDBRANCH  11  16
TORSDOF 2
ENDMDL