MODEL 2
REMARK VINA RESULT: -4.824687057      2.017      3.483
REMARK  2 active torsions:
REMARK  status: ('A' for Active; 'I' for Inactive)
REMARK    1  A    between atoms: C2_2  and  N1_3
REMARK    2  A    between atoms: C10_14  and  N2_15
ROOT
HETATM    1  C1  UNL     1     -33.456   4.765 -39.182  1.00  0.00     0.046 C
HETATM    2  C2  UNL     1     -33.239   3.238 -39.065  1.00  0.00     0.121 C
HETATM    3  C3  UNL     1     -32.674   2.800 -40.326  1.00  0.00     0.043 C
HETATM    4  C4  UNL     1     -31.910   1.536 -40.408  1.00  0.00    -0.010 C
HETATM    5  C5  UNL     1     -32.680   0.298 -40.079  1.00  0.00     0.005 C
HETATM    6  C6  UNL     1     -32.151  -0.367 -38.836  1.00  0.00     0.001 C
HETATM    7  C7  UNL     1     -32.535   0.502 -37.671  1.00  0.00     0.007 C
HETATM    8  C8  UNL     1     -31.789   1.776 -37.572  1.00  0.00     0.018 C
HETATM    9  C9  UNL     1     -32.563   3.017 -37.805  1.00  0.00     0.044 C
HETATM   10  C10 UNL     1     -30.496   1.841 -38.329  1.00  0.00     0.188 C
HETATM   11  C11 UNL     1     -30.548   1.592 -39.771  1.00  0.00     0.037 C
ENDROOT
BRANCH   2  12
HETATM   12  N1  UNL     1     -34.615   2.716 -38.961  1.00  0.00    -0.071 N
ATOM     13  H13 UNL     1     -34.846   1.985 -39.634  1.00  0.00     0.275 HD
ATOM     14  H12 UNL     1     -34.797   2.151 -38.131  1.00  0.00     0.275 HD
ATOM     15  H11 UNL     1     -35.184   3.560 -39.036  1.00  0.00     0.275 HD
ENDBRANCH   2  12
BRANCH  10  16
HETATM   16  N2  UNL     1     -29.479   1.020 -37.670  1.00  0.00    -0.075 N
ATOM     17  H23 UNL     1     -29.423   0.085 -38.074  1.00  0.00     0.274 HD
ATOM     18  H22 UNL     1     -28.534   1.335 -37.890  1.00  0.00     0.274 HD
ATOM     19  H21 UNL     1     -29.645   0.991 -36.664  1.00  0.00     0.274 HD
ENDBRANCH  10  16
TORSDOF 2
ENDMDL