MODEL 1
REMARK VINA RESULT: -5.228726674      0.000      0.000
REMARK  2 active torsions:
REMARK  status: ('A' for Active; 'I' for Inactive)
REMARK    1  A    between atoms: C3_3  and  N1_4
REMARK    2  A    between atoms: C10_14  and  O1_15
ROOT
HETATM    1  C1  UNL     1     -33.302   5.537 -38.594  1.00  0.00     0.020 C
HETATM    2  C2  UNL     1     -32.983   4.288 -38.832  1.00  0.00    -0.020 C
HETATM    3  C3  UNL     1     -31.788   3.597 -38.294  1.00  0.00     0.149 C
HETATM    4  C4  UNL     1     -32.255   2.430 -37.468  1.00  0.00     0.048 C
HETATM    5  C5  UNL     1     -33.120   1.547 -38.322  1.00  0.00    -0.008 C
HETATM    6  C6  UNL     1     -32.259   1.005 -39.442  1.00  0.00     0.009 C
HETATM    7  C7  UNL     1     -31.812   2.152 -40.322  1.00  0.00    -0.008 C
HETATM    8  C8  UNL     1     -30.983   3.091 -39.472  1.00  0.00     0.048 C
HETATM    9  C9  UNL     1     -32.990   2.958 -40.842  1.00  0.00     0.047 C
HETATM   10  C10 UNL     1     -33.857   3.425 -39.711  1.00  0.00     0.084 C
HETATM   11  C11 UNL     1     -34.329   2.284 -38.836  1.00  0.00     0.047 C
ENDROOT
BRANCH   3  12
HETATM   12  N1  UNL     1     -30.960   4.453 -37.488  1.00  0.00    -0.066 N
ATOM     13  H13 UNL     1     -31.507   5.215 -37.086  1.00  0.00     0.275 HD
ATOM     14  H12 UNL     1     -30.675   3.982 -36.629  1.00  0.00     0.275 HD
ATOM     15  H11 UNL     1     -30.150   4.812 -37.992  1.00  0.00     0.275 HD
ENDBRANCH   3  12
BRANCH  10  16
HETATM   16  O1  UNL     1     -34.885   4.189 -40.214  1.00  0.00    -0.385 OA
ATOM     17  H1  UNL     1     -34.534   5.011 -40.536  1.00  0.00     0.211 HD
ENDBRANCH  10  16
TORSDOF 2
ENDMDL