MODEL 4
REMARK VINA RESULT: -5.651988385      2.244      3.529
REMARK  2 active torsions:
REMARK  status: ('A' for Active; 'I' for Inactive)
REMARK    1  A    between atoms: O1_1  and  C1_3
REMARK    2  A    between atoms: C6_8  and  O2_9
ROOT
HETATM    1  C1  UNL     1     -32.794   5.320 -39.454  1.00  0.00     0.118 C
HETATM    2  C2  UNL     1     -34.064   4.740 -39.888  1.00  0.00     0.032 C
HETATM    3  C3  UNL     1     -34.011   3.320 -40.487  1.00  0.00     0.007 C
HETATM    4  C4  UNL     1     -32.881   2.738 -39.800  1.00  0.00    -0.012 C
HETATM    5  C5  UNL     1     -32.330   1.399 -39.977  1.00  0.00     0.036 C
HETATM    6  C6  UNL     1     -31.171   1.381 -38.962  1.00  0.00     0.118 C
HETATM    7  C7  UNL     1     -30.809   2.725 -38.401  1.00  0.00     0.036 C
HETATM    8  C8  UNL     1     -31.943   3.525 -37.800  1.00  0.00    -0.009 C
HETATM    9  C9  UNL     1     -32.038   4.932 -38.299  1.00  0.00     0.036 C
HETATM   10  C10 UNL     1     -33.188   2.845 -38.307  1.00  0.00     0.009 C
ENDROOT
BRANCH   1  11
HETATM   11  O1  UNL     1     -33.114   6.711 -39.297  1.00  0.00    -0.396 OA
ATOM     12  H1  UNL     1     -32.381   7.145 -39.716  1.00  0.00     0.210 HD
ENDBRANCH   1  11
BRANCH   6  13
HETATM   13  O2  UNL     1     -31.335   0.395 -38.009  1.00  0.00    -0.396 OA
ATOM     14  H2  UNL     1     -31.926   0.666 -37.317  1.00  0.00     0.210 HD
ENDBRANCH   6  13
TORSDOF 2
ENDMDL