MODEL 5
REMARK VINA RESULT: -4.328360407      1.274      3.730
REMARK  1 active torsions:
REMARK  status: ('A' for Active; 'I' for Inactive)
REMARK    1  A    between atoms: C2_2  and  N1_5
ROOT
HETATM    1  N1  UNL     1     -33.486   1.405 -39.920  1.00  0.00    -0.394 N
HETATM    2  C5  UNL     1     -34.329   2.491 -40.316  1.00  0.00     0.118 C
HETATM    3  C6  UNL     1     -34.184   3.440 -39.146  1.00  0.00     0.022 C
HETATM    4  C7  UNL     1     -32.672   3.293 -38.894  1.00  0.00     0.034 C
HETATM    5  C8  UNL     1     -32.420   1.796 -39.168  1.00  0.00     0.054 C
HETATM    6  C9  UNL     1     -31.039   1.737 -39.806  1.00  0.00     0.060 C
HETATM    7  C10 UNL     1     -30.117   1.320 -38.688  1.00  0.00     0.235 C
HETATM    8  N2  UNL     1     -30.854   1.816 -37.514  1.00  0.00    -0.073 N
ATOM      9  H21 UNL     1     -30.850   2.825 -37.361  1.00  0.00     0.277 HD
ATOM     10  H22 UNL     1     -30.453   1.611 -36.599  1.00  0.00     0.277 HD
HETATM   11  C11 UNL     1     -32.161   1.195 -37.821  1.00  0.00     0.263 C
ENDROOT
BRANCH   1  12
HETATM   12  C2  UNL     1     -34.090   0.145 -39.849  1.00  0.00     0.018 C
HETATM   13  C1  UNL     1     -34.609  -0.256 -38.496  1.00  0.00     0.037 C
HETATM   14  C3  UNL     1     -35.389   0.284 -40.689  1.00  0.00     0.037 C
HETATM   15  C4  UNL     1     -33.368  -1.015 -40.448  1.00  0.00     0.037 C
ENDBRANCH   1  12
TORSDOF 1
ENDMDL