MODEL 2
REMARK VINA RESULT: -4.485686743      1.514      3.046
REMARK  2 active torsions:
REMARK  status: ('A' for Active; 'I' for Inactive)
REMARK    1  A    between atoms: N1_1  and  C1_5
REMARK    2  A    between atoms: C9_13  and  N2_14
ROOT
HETATM    1  C1  UNL     1     -31.357   1.792 -38.295  1.00  0.00     0.126 C
HETATM    2  C2  UNL     1     -31.536   3.226 -37.887  1.00  0.00     0.039 C
HETATM    3  C3  UNL     1     -32.904   3.757 -38.044  1.00  0.00     0.007 C
HETATM    4  C4  UNL     1     -33.641   3.332 -39.263  1.00  0.00    -0.012 C
HETATM    5  C5  UNL     1     -32.808   3.158 -40.488  1.00  0.00     0.009 C
HETATM    6  C6  UNL     1     -32.158   1.833 -40.637  1.00  0.00    -0.009 C
HETATM    7  C7  UNL     1     -30.948   1.768 -39.741  1.00  0.00     0.043 C
HETATM    8  C8  UNL     1     -33.040   0.661 -40.343  1.00  0.00     0.043 C
HETATM    9  C9  UNL     1     -33.598   0.852 -38.946  1.00  0.00     0.126 C
HETATM   10  C10 UNL     1     -34.459   2.106 -38.999  1.00  0.00     0.043 C
HETATM   11  C11 UNL     1     -32.506   0.938 -37.946  1.00  0.00     0.077 C
ENDROOT
BRANCH   1  12
HETATM   12  N1  UNL     1     -30.192   1.293 -37.541  1.00  0.00    -0.070 N
ATOM     13  H13 UNL     1     -29.301   1.639 -37.896  1.00  0.00     0.275 HD
ATOM     14  H12 UNL     1     -30.115   1.688 -36.604  1.00  0.00     0.275 HD
ATOM     15  H11 UNL     1     -30.264   0.275 -37.548  1.00  0.00     0.275 HD
ENDBRANCH   1  12
BRANCH   9  16
HETATM   16  N2  UNL     1     -34.491  -0.242 -38.685  1.00  0.00    -0.070 N
ATOM     17  H23 UNL     1     -35.085  -0.470 -39.483  1.00  0.00     0.275 HD
ATOM     18  H22 UNL     1     -34.011  -1.140 -38.616  1.00  0.00     0.275 HD
ATOM     19  H21 UNL     1     -35.024  -0.009 -37.847  1.00  0.00     0.275 HD
ENDBRANCH   9  16
TORSDOF 2
ENDMDL