MODEL 5
REMARK VINA RESULT: -4.560272363      1.941      3.082
REMARK  0 active torsions:
REMARK  status: ('A' for Active; 'I' for Inactive)
ROOT
HETATM    1  C1  UNL     1     -30.486   2.398 -38.923  1.00  0.00     0.015 C
HETATM    2  C2  UNL     1     -31.757   2.593 -38.145  1.00  0.00    -0.037 C
HETATM    3  C3  UNL     1     -31.913   1.441 -37.146  1.00  0.00     0.015 C
HETATM    4  C4  UNL     1     -31.568   3.844 -37.281  1.00  0.00     0.029 C
HETATM    5  C5  UNL     1     -31.715   5.055 -38.152  1.00  0.00     0.114 C
HETATM    6  N1  UNL     1     -33.074   5.171 -38.574  1.00  0.00    -0.420 N
ATOM      7  H1  UNL     1     -33.488   6.060 -38.854  1.00  0.00     0.153 HD
HETATM    8  C6  UNL     1     -33.812   3.943 -38.573  1.00  0.00     0.124 C
HETATM    9  C7  UNL     1     -32.956   2.753 -39.008  1.00  0.00    -0.018 C
HETATM   10  C8  UNL     1     -33.821   1.533 -39.110  1.00  0.00     0.012 C
HETATM   11  C9  UNL     1     -34.740   1.870 -40.251  1.00  0.00     0.001 C
HETATM   12  C10 UNL     1     -33.925   2.722 -41.176  1.00  0.00     0.001 C
HETATM   13  C11 UNL     1     -32.613   3.016 -40.469  1.00  0.00     0.012 C
ENDROOT
TORSDOF 0
ENDMDL