MODEL 1
REMARK VINA RESULT: -5.278266307      0.000      0.000
REMARK  0 active torsions:
REMARK  status: ('A' for Active; 'I' for Inactive)
ROOT
HETATM    1  C1  UNL     1     -31.077   2.297 -38.503  1.00  0.00     0.000 C
HETATM    2  C2  UNL     1     -31.851   3.526 -38.071  1.00  0.00     0.000 C
HETATM    3  C3  UNL     1     -32.660   4.112 -39.216  1.00  0.00     0.002 C
HETATM    4  C4  UNL     1     -34.087   3.575 -39.216  1.00  0.00     0.027 C
HETATM    5  C5  UNL     1     -34.291   2.544 -40.310  1.00  0.00     0.232 C
HETATM    6  N1  UNL     1     -35.124   1.495 -39.736  1.00  0.00    -0.074 N
ATOM      7  H11 UNL     1     -36.113   1.734 -39.810  1.00  0.00     0.277 HD
ATOM      8  H12 UNL     1     -35.035   1.473 -38.720  1.00  0.00     0.277 HD
HETATM    9  C6  UNL     1     -34.864   0.203 -40.301  1.00  0.00     0.259 C
HETATM   10  C7  UNL     1     -35.136  -0.919 -39.301  1.00  0.00     0.259 C
HETATM   11  N2  UNL     1     -34.260  -0.873 -38.172  1.00  0.00    -0.074 N
ATOM     12  H21 UNL     1     -34.767  -1.078 -37.310  1.00  0.00     0.277 HD
ATOM     13  H22 UNL     1     -33.972   0.085 -37.974  1.00  0.00     0.277 HD
HETATM   14  C8  UNL     1     -33.115  -1.732 -38.306  1.00  0.00     0.232 C
HETATM   15  C9  UNL     1     -31.927  -1.280 -37.497  1.00  0.00     0.027 C
HETATM   16  C10 UNL     1     -31.135  -0.202 -38.239  1.00  0.00     0.002 C
HETATM   17  C11 UNL     1     -31.647   1.121 -37.766  1.00  0.00     0.000 C
ENDROOT
TORSDOF 0
ENDMDL