MODEL 5
REMARK VINA RESULT: -5.626533663      2.994      4.001
REMARK  2 active torsions:
REMARK  status: ('A' for Active; 'I' for Inactive)
REMARK    1  A    between atoms: N1_1  and  N2_4
REMARK       I    between atoms: N2_4  and  C1_6
REMARK    2  A    between atoms: C1_6  and  C2_8
ROOT
HETATM    1  C2  UNL     1     -31.556   1.150 -37.754  1.00  0.00     0.007 C
HETATM    2  C3  UNL     1     -31.960   2.400 -37.110  1.00  0.00    -0.014 C
HETATM    3  C4  UNL     1     -31.834   3.748 -37.693  1.00  0.00     0.028 C
HETATM    4  C5  UNL     1     -32.921   4.320 -38.532  1.00  0.00     0.004 C
HETATM    5  C6  UNL     1     -32.744   4.427 -40.006  1.00  0.00     0.000 C
HETATM    6  C7  UNL     1     -33.170   3.195 -40.849  1.00  0.00     0.000 C
HETATM    7  C8  UNL     1     -32.823   2.115 -39.957  1.00  0.00     0.000 C
HETATM    8  C9  UNL     1     -32.784   0.689 -40.007  1.00  0.00     0.005 C
HETATM    9  C10 UNL     1     -32.482   0.317 -38.546  1.00  0.00     0.044 C
ENDROOT
BRANCH   1  10
HETATM   10  C1  UNL     1     -30.114   1.073 -38.165  1.00  0.00     0.265 C
HETATM   11  N2  UNL     1     -29.473   2.286 -38.520  1.00  0.00    -0.273 N
ATOM     12  H2  UNL     1     -30.002   3.157 -38.486  1.00  0.00     0.189 HD
HETATM   13  O1  UNL     1     -29.528  -0.006 -38.188  1.00  0.00    -0.266 OA
BRANCH  11  14
HETATM   14  N1  UNL     1     -28.118   2.316 -38.921  1.00  0.00    -0.342 N
ATOM     15  H12 UNL     1     -27.908   2.508 -39.901  1.00  0.00     0.176 HD
ATOM     16  H11 UNL     1     -27.362   2.152 -38.257  1.00  0.00     0.176 HD
ENDBRANCH  11  14
ENDBRANCH   1  10
TORSDOF 2
ENDMDL