MODEL 3
REMARK VINA RESULT: -3.457196614      1.486      2.874
REMARK  1 active torsions:
REMARK  status: ('A' for Active; 'I' for Inactive)
REMARK    1  A    between atoms: N2_3  and  C2_5
ROOT
HETATM    1  C2  UNL     1       7.967  61.103  45.219  1.00  0.00     0.310 A
HETATM    2  C3  UNL     1       8.963  61.326  46.266  1.00  0.00     0.289 A
HETATM    3  N3  UNL     1       9.358  61.224  44.831  1.00  0.00    -0.049 N
ATOM      4  H31 UNL     1       9.879  61.811  44.180  1.00  0.00     0.279 HD
ATOM      5  H32 UNL     1      10.014  60.651  44.299  1.00  0.00     0.279 HD
ENDROOT
BRANCH   1   6
HETATM    6  N2  UNL     1       7.325  59.833  45.168  1.00  0.00    -0.359 N
HETATM    7  C1  UNL     1       7.621  59.014  44.219  1.00  0.00     0.186 C
HETATM    8  N1  UNL     1       8.557  59.292  43.204  1.00  0.00    -0.097 NA
ATOM      9  H2  UNL     1       6.637  59.575  45.875  1.00  0.00     0.162 HD
ENDBRANCH   1   6
TORSDOF 1
ENDMDL