MODEL 5
REMARK VINA RESULT: 0.928895528      7.171      7.550
REMARK  2 active torsions:
REMARK  status: ('A' for Active; 'I' for Inactive)
REMARK    1  A    between atoms: N2_4  and  N3_6
REMARK    2  A    between atoms: N3_6  and  C1_8
ROOT
HETATM    1  C1  UNL     1       8.350  60.290  44.141  1.00  0.00     0.702 A
HETATM    2  N4  UNL     1       9.301  61.029  44.570  1.00  0.00    -0.161 N
ATOM      3  H4  UNL     1      10.127  61.445  44.142  1.00  0.00     0.187 HD
HETATM    4  C2  UNL     1       8.752  61.040  45.873  1.00  0.00     0.221 A
HETATM    5  N5  UNL     1       9.050  61.593  47.149  1.00  0.00    -0.062 NA
HETATM    6  N6  UNL     1       7.785  60.291  45.442  1.00  0.00    -0.161 N
ATOM      7  H6  UNL     1       6.956  59.873  45.866  1.00  0.00     0.187 HD
ENDROOT
BRANCH   1   8
HETATM    8  N3  UNL     1       7.949  59.682  42.905  1.00  0.00    -0.118 N
ATOM      9  H3  UNL     1       8.652  59.195  42.349  1.00  0.00     0.207 HD
BRANCH   8  10
HETATM   10  N2  UNL     1       6.639  59.731  42.435  1.00  0.00    -0.235 N
HETATM   11  N1  UNL     1       6.466  59.638  41.175  1.00  0.00    -0.330 N
ATOM     12  H12 UNL     1       7.265  59.532  40.550  1.00  0.00     0.178 HD
ATOM     13  H11 UNL     1       5.506  59.673  40.830  1.00  0.00     0.178 HD
ATOM     14  H2  UNL     1       5.850  59.837  43.073  1.00  0.00     0.208 HD
ENDBRANCH   8  10
ENDBRANCH   1   8
TORSDOF 2
ENDMDL