MODEL 5
REMARK VINA RESULT: 1.238498646      6.453      6.723
REMARK  2 active torsions:
REMARK  status: ('A' for Active; 'I' for Inactive)
REMARK    1  A    between atoms: N2_4  and  N3_6
REMARK    2  A    between atoms: C1_8  and  C2_9
ROOT
HETATM    1  N3  UNL     1       9.172  61.167  44.167  1.00  0.00    -0.300 N
ATOM      2  H3  UNL     1       8.750  61.811  44.837  1.00  0.00     0.187 HD
HETATM    3  C1  UNL     1       8.567  60.090  43.786  1.00  0.00     0.116 C
ENDROOT
BRANCH   1   4
HETATM    4  N2  UNL     1      10.434  61.404  43.613  1.00  0.00    -0.250 N
HETATM    5  N1  UNL     1      10.845  60.695  42.667  1.00  0.00    -0.331 N
ATOM      6  H12 UNL     1      10.247  59.949  42.313  1.00  0.00     0.178 HD
ATOM      7  H11 UNL     1      11.765  60.867  42.263  1.00  0.00     0.178 HD
ATOM      8  H2  UNL     1      11.020  62.154  43.980  1.00  0.00     0.207 HD
ENDBRANCH   1   4
BRANCH   3   9
HETATM    9  C2  UNL     1       7.228  59.828  44.366  1.00  0.00     0.251 A
HETATM   10  C3  UNL     1       7.125  58.703  45.291  1.00  0.00     0.271 A
HETATM   11  N4  UNL     1       7.014  60.138  45.758  1.00  0.00    -0.062 N
ATOM     12  H42 UNL     1       7.485  60.714  46.456  1.00  0.00     0.278 HD
ATOM     13  H41 UNL     1       6.331  60.680  46.286  1.00  0.00     0.278 HD
ENDBRANCH   3   9
TORSDOF 2
ENDMDL