MODEL 2
REMARK VINA RESULT: -4.360843275      0.992      1.094
REMARK  2 active torsions:
REMARK  status: ('A' for Active; 'I' for Inactive)
REMARK    1  A    between atoms: N2_4  and  N3_6
REMARK    2  A    between atoms: N3_6  and  C1_8
ROOT
HETATM    1  N3  UNL     1       9.252  59.623  43.154  1.00  0.00    -0.290 N
ATOM      2  H3  UNL     1       9.264  59.368  42.166  1.00  0.00     0.184 HD
ENDROOT
BRANCH   1   3
HETATM    3  N2  UNL     1      10.267  60.390  43.713  1.00  0.00    -0.252 N
HETATM    4  N1  UNL     1      10.161  61.645  43.706  1.00  0.00    -0.331 N
ATOM      5  H12 UNL     1       9.336  62.076  43.292  1.00  0.00     0.178 HD
ATOM      6  H11 UNL     1      10.907  62.207  44.116  1.00  0.00     0.178 HD
ATOM      7  H2  UNL     1      11.087  59.942  44.123  1.00  0.00     0.207 HD
ENDBRANCH   1   3
BRANCH   1   8
HETATM    8  C1  UNL     1       8.177  59.197  44.028  1.00  0.00     0.325 A
HETATM    9  C2  UNL     1       7.546  60.125  44.963  1.00  0.00     0.290 A
HETATM   10  N4  UNL     1       6.915  59.944  43.670  1.00  0.00    -0.048 N
ATOM     11  H42 UNL     1       6.623  60.558  42.910  1.00  0.00     0.279 HD
ATOM     12  H41 UNL     1       5.984  59.685  43.345  1.00  0.00     0.279 HD
ENDBRANCH   1   8
TORSDOF 2
ENDMDL