MODEL 5
REMARK VINA RESULT: -1.768663919      1.172      2.907
REMARK  1 active torsions:
REMARK  status: ('A' for Active; 'I' for Inactive)
REMARK    1  A    between atoms: N2_4  and  N3_6
ROOT
HETATM    1  N3  UNL     1       8.718  61.250  45.326  1.00  0.00    -0.274 N
ATOM      2  H3  UNL     1       9.094  62.123  45.693  1.00  0.00     0.190 HD
HETATM    3  C1  UNL     1       9.324  60.657  44.352  1.00  0.00     0.111 A
HETATM    4  C2  UNL     1       9.375  59.492  43.397  1.00  0.00     0.198 A
HETATM    5  N4  UNL     1      10.380  60.540  43.371  1.00  0.00    -0.370 N
ATOM      6  H4  UNL     1      11.230  60.921  42.956  1.00  0.00     0.161 HD
ENDROOT
BRANCH   1   7
HETATM    7  N2  UNL     1       7.565  60.717  45.880  1.00  0.00    -0.248 N
HETATM    8  N1  UNL     1       7.000  59.694  45.424  1.00  0.00    -0.331 N
ATOM      9  H12 UNL     1       7.421  59.246  44.610  1.00  0.00     0.178 HD
ATOM     10  H11 UNL     1       6.151  59.302  45.832  1.00  0.00     0.178 HD
ATOM     11  H2  UNL     1       7.158  61.177  46.694  1.00  0.00     0.207 HD
ENDBRANCH   1   7
TORSDOF 1
ENDMDL