MODEL 1
REMARK VINA RESULT: -1.744650032      0.000      0.000
REMARK  2 active torsions:
REMARK  status: ('A' for Active; 'I' for Inactive)
REMARK    1  A    between atoms: C3_5  and  N3_6
REMARK    2  A    between atoms: N3_6  and  N4_7
ROOT
HETATM    1  C1  UNL     1       8.733  61.600  46.040  1.00  0.00     0.134 C
HETATM    2  N1  UNL     1       8.365  60.301  45.564  1.00  0.00    -0.216 NA
HETATM    3  N2  UNL     1       6.985  60.003  45.698  1.00  0.00    -0.161 NA
HETATM    4  C2  UNL     1       7.185  59.096  44.557  1.00  0.00     0.168 C
HETATM    5  C3  UNL     1       8.183  60.168  44.144  1.00  0.00     0.203 C
ENDROOT
BRANCH   5   6
HETATM    6  N3  UNL     1       9.335  59.613  43.487  1.00  0.00    -0.126 NA
BRANCH   6   7
HETATM    7  N4  UNL     1      10.376  60.527  43.379  1.00  0.00    -0.347 N
ATOM      8  H42 UNL     1      10.441  61.365  43.957  1.00  0.00     0.172 HD
ATOM      9  H41 UNL     1      11.053  60.263  42.663  1.00  0.00     0.172 HD
ENDBRANCH   6   7
ENDBRANCH   5   6
TORSDOF 2
ENDMDL