MODEL 1
REMARK VINA RESULT: -3.813960460      0.000      0.000
REMARK  2 active torsions:
REMARK  status: ('A' for Active; 'I' for Inactive)
REMARK    1  A    between atoms: N2_4  and  N3_6
REMARK    2  A    between atoms: N3_6  and  C1_8
ROOT
HETATM    1  N3  UNL     1       9.053  61.141  45.005  1.00  0.00    -0.290 N
ATOM      2  H3  UNL     1       9.411  61.323  45.942  1.00  0.00     0.184 HD
ENDROOT
BRANCH   1   3
HETATM    3  N2  UNL     1       9.878  61.296  43.897  1.00  0.00    -0.252 N
HETATM    4  N1  UNL     1      10.291  60.282  43.258  1.00  0.00    -0.331 N
ATOM      5  H12 UNL     1      10.008  59.354  43.573  1.00  0.00     0.178 HD
ATOM      6  H11 UNL     1      10.896  60.395  42.445  1.00  0.00     0.178 HD
ATOM      7  H2  UNL     1      10.152  62.232  43.595  1.00  0.00     0.207 HD
ENDBRANCH   1   3
BRANCH   1   8
HETATM    8  C1  UNL     1       7.667  60.715  44.814  1.00  0.00     0.325 A
HETATM    9  C2  UNL     1       7.448  59.255  44.878  1.00  0.00     0.290 A
HETATM   10  N4  UNL     1       7.305  59.989  43.639  1.00  0.00    -0.048 N
ATOM     11  H42 UNL     1       6.555  60.081  42.954  1.00  0.00     0.279 HD
ATOM     12  H41 UNL     1       7.714  59.895  42.709  1.00  0.00     0.279 HD
ENDBRANCH   1   8
TORSDOF 2
ENDMDL