MODEL 1
REMARK VINA RESULT: -2.039437106      0.000      0.000
REMARK  2 active torsions:
REMARK  status: ('A' for Active; 'I' for Inactive)
REMARK    1  A    between atoms: O1_2  and  N1_3
REMARK    2  A    between atoms: N1_3  and  C2_4
ROOT
HETATM    1  C2  UNL     1       7.861  59.618  44.638  1.00  0.00     0.330 A
HETATM    2  C3  UNL     1       7.279  59.701  43.222  1.00  0.00     0.287 A
HETATM    3  N2  UNL     1       8.730  59.956  43.558  1.00  0.00    -0.050 N
ATOM      4  H21 UNL     1       9.607  59.564  43.216  1.00  0.00     0.279 HD
ATOM      5  H22 UNL     1       9.362  60.737  43.385  1.00  0.00     0.279 HD
ENDROOT
BRANCH   1   6
HETATM    6  N1  UNL     1       7.326  60.636  45.514  1.00  0.00    -0.066 NA
BRANCH   6   7
HETATM    7  O1  UNL     1       8.329  61.555  45.685  1.00  0.00    -0.289 OA
HETATM    8  C1  UNL     1       9.216  61.188  46.669  1.00  0.00     0.231 C
ENDBRANCH   6   7
ENDBRANCH   1   6
TORSDOF 2
ENDMDL