MODEL 4
REMARK VINA RESULT: -3.357640685      1.198      1.756
REMARK  1 active torsions:
REMARK  status: ('A' for Active; 'I' for Inactive)
REMARK    1  A    between atoms: N2_4  and  N3_6
ROOT
HETATM    1  N1  UNL     1       9.703  61.719  44.582  1.00  0.00    -0.331 N
ATOM      2  H11 UNL     1      10.077  62.653  44.750  1.00  0.00     0.178 HD
ATOM      3  H12 UNL     1       8.998  61.297  45.188  1.00  0.00     0.178 HD
HETATM    4  N2  UNL     1      10.151  61.084  43.578  1.00  0.00    -0.248 N
ATOM      5  H2  UNL     1      10.856  61.492  42.964  1.00  0.00     0.207 HD
ENDROOT
BRANCH   4   6
HETATM    6  N3  UNL     1       9.639  59.804  43.348  1.00  0.00    -0.268 N
HETATM    7  C1  UNL     1       8.546  59.463  43.944  1.00  0.00     0.159 A
HETATM    8  C2  UNL     1       7.400  59.772  44.870  1.00  0.00     0.262 A
HETATM    9  O1  UNL     1       7.523  58.543  44.230  1.00  0.00    -0.328 OA
ATOM     10  H3  UNL     1      10.118  59.154  42.724  1.00  0.00     0.190 HD
ENDBRANCH   4   6
TORSDOF 1
ENDMDL