MODEL 1
REMARK VINA RESULT: -2.462131960      0.000      0.000
REMARK  3 active torsions:
REMARK  status: ('A' for Active; 'I' for Inactive)
REMARK    1  A    between atoms: N1_1  and  N2_4
REMARK    2  A    between atoms: N2_4  and  C1_6
REMARK    3  A    between atoms: N3_7  and  N4_9
ROOT
HETATM    1  C1  UNL     1       9.289  53.419  44.321  1.00  0.00     0.213 C
HETATM    2  N3  UNL     1       8.421  53.412  43.391  1.00  0.00    -0.294 N
ATOM      3  H3  UNL     1       8.724  53.406  42.418  1.00  0.00     0.187 HD
ENDROOT
BRANCH   2   4
HETATM    4  N4  UNL     1       7.072  53.412  43.687  1.00  0.00    -0.287 N
HETATM    5  C2  UNL     1       6.580  53.418  44.871  1.00  0.00     0.110 A
HETATM    6  C3  UNL     1       5.548  53.423  45.856  1.00  0.00     0.198 A
HETATM    7  N5  UNL     1       6.936  53.424  46.326  1.00  0.00    -0.370 N
ATOM      8  H5  UNL     1       7.625  53.428  47.078  1.00  0.00     0.161 HD
ATOM      9  H4  UNL     1       6.417  53.408  42.904  1.00  0.00     0.188 HD
ENDBRANCH   2   4
BRANCH   1  10
HETATM   10  N2  UNL     1      10.668  53.418  43.956  1.00  0.00    -0.301 N
ATOM     11  H2  UNL     1      11.370  53.429  44.696  1.00  0.00     0.187 HD
BRANCH  10  12
HETATM   12  N1  UNL     1      11.097  53.402  42.623  1.00  0.00    -0.344 N
ATOM     13  H12 UNL     1      12.077  53.616  42.438  1.00  0.00     0.176 HD
ATOM     14  H11 UNL     1      10.471  53.188  41.846  1.00  0.00     0.176 HD
ENDBRANCH  10  12
ENDBRANCH   1  10
TORSDOF 3
ENDMDL