MODEL 5
REMARK VINA RESULT: -6.086472721      1.075      1.333
REMARK  8 active torsions:
REMARK  status: ('A' for Active; 'I' for Inactive)
REMARK    1  A    between atoms: C2_2  and  C3_3
REMARK    2  A    between atoms: C3_3  and  N1_4
REMARK    3  A    between atoms: N1_4  and  C4_6
REMARK    4  A    between atoms: C4_6  and  N2_8
REMARK    5  A    between atoms: C8_12  and  C9_13
REMARK    6  A    between atoms: C9_13  and  C10_14
REMARK    7  A    between atoms: C10_14  and  N3_15
REMARK    8  A    between atoms: N3_15  and  C11_17
ROOT
HETATM    1  N2  UNL     1       1.301  39.493 -13.695  1.00  0.00    -0.354 N
HETATM    2  C5  UNL     1       1.252  40.861 -13.103  1.00  0.00     0.126 C
HETATM    3  C6  UNL     1      -0.208  41.175 -13.322  1.00  0.00     0.022 C
HETATM    4  C7  UNL     1      -0.884  39.872 -12.976  1.00  0.00     0.027 C
HETATM    5  C8  UNL     1       0.194  38.808 -13.114  1.00  0.00     0.088 C
ENDROOT
BRANCH   1   6
HETATM    6  C4  UNL     1       2.293  39.132 -14.602  1.00  0.00     0.170 C
HETATM    7  S1  UNL     1       2.408  39.864 -16.076  1.00  0.00    -0.041 SA
BRANCH   6   8
HETATM    8  N1  UNL     1       3.262  38.128 -14.339  1.00  0.00    -0.364 N
ATOM      9  H1  UNL     1       3.307  37.310 -14.946  1.00  0.00     0.162 HD
BRANCH   8  10
HETATM   10  C3  UNL     1       4.199  38.238 -13.216  1.00  0.00     0.148 C
BRANCH  10  11
HETATM   11  C2  UNL     1       5.491  38.815 -13.631  1.00  0.00    -0.018 C
HETATM   12  C1  UNL     1       5.701  40.107 -13.796  1.00  0.00     0.008 C
ENDBRANCH  10  11
ENDBRANCH   8  10
ENDBRANCH   6   8
ENDBRANCH   1   6
BRANCH   5  13
HETATM   13  C9  UNL     1      -0.400  37.670 -13.853  1.00  0.00     0.045 C
BRANCH  13  14
HETATM   14  C10 UNL     1      -0.790  36.631 -12.772  1.00  0.00     0.123 C
BRANCH  14  15
HETATM   15  N3  UNL     1       0.378  35.838 -12.423  1.00  0.00    -0.369 N
ATOM     16  H3  UNL     1       1.165  36.274 -11.943  1.00  0.00     0.161 HD
BRANCH  15  17
HETATM   17  C11 UNL     1       0.423  34.471 -12.747  1.00  0.00     0.180 C
HETATM   18  N4  UNL     1       0.774  33.461 -11.815  1.00  0.00    -0.070 NA
HETATM   19  S2  UNL     1       0.058  34.005 -14.262  1.00  0.00    -0.044 SA
ENDBRANCH  15  17
ENDBRANCH  14  15
ENDBRANCH  13  14
ENDBRANCH   5  13
TORSDOF 8
ENDMDL