MODEL 4
REMARK VINA RESULT: -7.351224124      2.680      5.292
REMARK  5 active torsions:
REMARK  status: ('A' for Active; 'I' for Inactive)
REMARK    1  A    between atoms: N3_4  and  C2_6
REMARK    2  A    between atoms: C2_6  and  C3_7
REMARK    3  A    between atoms: C3_7  and  C4_8
REMARK    4  A    between atoms: C4_8  and  C5_9
REMARK    5  A    between atoms: C5_9  and  N4_10
ROOT
HETATM    1  N4  UNL     1       1.480  40.317 -13.673  1.00  0.00    -0.268 N
HETATM    2  C6  UNL     1       1.728  41.171 -14.810  1.00  0.00     0.326 C
HETATM    3  O1  UNL     1       0.965  42.103 -15.172  1.00  0.00    -0.247 OA
HETATM    4  N5  UNL     1       2.941  40.771 -15.405  1.00  0.00    -0.324 N
ATOM      5  H5  UNL     1       3.249  40.983 -16.354  1.00  0.00     0.165 HD
HETATM    6  C7  UNL     1       3.673  39.995 -14.411  1.00  0.00     0.116 C
HETATM    7  C8  UNL     1       4.367  38.871 -15.089  1.00  0.00     0.041 C
HETATM    8  C9  UNL     1       5.510  38.365 -14.247  1.00  0.00     0.003 C
HETATM    9  C10 UNL     1       6.553  39.426 -14.006  1.00  0.00     0.000 C
HETATM   10  C11 UNL     1       5.982  40.806 -13.857  1.00  0.00     0.003 C
HETATM   11  C12 UNL     1       4.518  40.807 -13.504  1.00  0.00     0.041 C
HETATM   12  C13 UNL     1       2.542  39.408 -13.593  1.00  0.00     0.256 C
HETATM   13  O2  UNL     1       2.619  38.321 -12.994  1.00  0.00    -0.270 OA
ENDROOT
BRANCH   1  14
HETATM   14  C5  UNL     1       0.315  40.420 -12.830  1.00  0.00     0.137 C
BRANCH  14  15
HETATM   15  C4  UNL     1      -0.844  39.576 -13.234  1.00  0.00     0.022 C
BRANCH  15  16
HETATM   16  C3  UNL     1      -0.915  38.259 -12.564  1.00  0.00     0.021 C
BRANCH  16  17
HETATM   17  C2  UNL     1      -0.466  37.121 -13.450  1.00  0.00     0.122 C
BRANCH  17  18
HETATM   18  N3  UNL     1       0.205  36.123 -12.628  1.00  0.00    -0.367 N
HETATM   19  C1  UNL     1      -0.066  34.882 -12.836  1.00  0.00     0.196 C
HETATM   20  N1  UNL     1      -0.984  34.482 -13.827  1.00  0.00    -0.067 NA
HETATM   21  N2  UNL     1       0.612  33.913 -12.009  1.00  0.00    -0.067 NA
ATOM     22  H3  UNL     1       0.872  36.400 -11.907  1.00  0.00     0.161 HD
ENDBRANCH  17  18
ENDBRANCH  16  17
ENDBRANCH  15  16
ENDBRANCH  14  15
ENDBRANCH   1  14
TORSDOF 5
ENDMDL