MODEL 4
REMARK VINA RESULT: -6.817165954      2.440      7.400
REMARK  5 active torsions:
REMARK  status: ('A' for Active; 'I' for Inactive)
REMARK    1  A    between atoms: C2_2  and  C4_4
REMARK    2  A    between atoms: C4_4  and  C5_5
REMARK    3  A    between atoms: C4_4  and  N1_9
REMARK    4  A    between atoms: C5_5  and  C6_6
REMARK       I    between atoms: N1_9  and  C9_11
REMARK    5  A    between atoms: C9_11  and  C10_13
REMARK       I    between atoms: N2_16  and  C13_17
ROOT
HETATM    1  N1  UNL     1       0.572  40.155 -14.627  1.00  0.00    -0.352 N
ATOM      2  H1  UNL     1       0.013  39.865 -15.429  1.00  0.00     0.163 HD
HETATM    3  C9  UNL     1       1.169  41.459 -14.591  1.00  0.00     0.222 C
HETATM    4  O1  UNL     1       1.862  41.835 -13.611  1.00  0.00    -0.273 OA
ENDROOT
BRANCH   3   5
HETATM    5  C10 UNL     1       0.995  42.422 -15.705  1.00  0.00     0.081 C
HETATM    6  C11 UNL     1       0.144  41.868 -16.811  1.00  0.00     0.034 C
HETATM    7  C12 UNL     1      -1.143  42.634 -16.993  1.00  0.00     0.126 C
HETATM    8  N2  UNL     1      -0.904  44.056 -17.156  1.00  0.00    -0.356 N
HETATM    9  C13 UNL     1      -1.695  44.862 -18.016  1.00  0.00     0.183 C
HETATM   10  C14 UNL     1       0.189  44.632 -16.398  1.00  0.00     0.126 C
HETATM   11  N3  UNL     1      -1.125  45.733 -18.764  1.00  0.00    -0.374 N
HETATM   12  N4  UNL     1      -3.104  44.712 -18.053  1.00  0.00    -0.064 NA
ATOM     13  H32 UNL     1      -0.112  45.840 -18.736  1.00  0.00     0.158 HD
ATOM     14  H31 UNL     1      -1.693  46.312 -19.382  1.00  0.00     0.158 HD
HETATM   15  C15 UNL     1       0.430  43.705 -15.214  1.00  0.00     0.034 C
ENDBRANCH   3   5
BRANCH   1  16
HETATM   16  C4  UNL     1       0.771  39.270 -13.530  1.00  0.00     0.112 C
BRANCH  16  17
HETATM   17  C2  UNL     1      -0.526  38.753 -12.987  1.00  0.00    -0.071 C
HETATM   18  C1  UNL     1      -0.781  37.458 -12.908  1.00  0.00     0.016 C
HETATM   19  C3  UNL     1      -1.528  39.746 -12.536  1.00  0.00     0.044 C
ENDBRANCH  16  17
BRANCH  16  20
HETATM   20  C5  UNL     1       1.603  38.060 -13.865  1.00  0.00     0.033 C
BRANCH  20  21
HETATM   21  C6  UNL     1       3.004  38.130 -13.309  1.00  0.00    -0.021 C
HETATM   22  C7  UNL     1       3.860  38.866 -14.349  1.00  0.00     0.009 C
HETATM   23  C8  UNL     1       3.615  36.750 -13.185  1.00  0.00     0.009 C
ENDBRANCH  20  21
ENDBRANCH  16  20
ENDBRANCH   1  16
TORSDOF 5
ENDMDL