MODEL 4
REMARK VINA RESULT: -6.602056237      3.787      6.674
REMARK  5 active torsions:
REMARK  status: ('A' for Active; 'I' for Inactive)
REMARK       I    between atoms: C2_4  and  N2_5
REMARK       I    between atoms: C2_4  and  N6_17
REMARK       I    between atoms: C3_7  and  N4_9
REMARK    1  A    between atoms: N4_9  and  C4_11
REMARK    2  A    between atoms: C4_11  and  C5_12
REMARK    3  A    between atoms: C5_12  and  C6_13
REMARK    4  A    between atoms: C6_13  and  N5_14
REMARK    5  A    between atoms: N6_17  and  C9_19
ROOT
HETATM    1  C1  UNL     1      -0.277  34.033 -13.379  1.00  0.00     0.165 C
HETATM    2  N1  UNL     1       0.379  33.299 -14.424  1.00  0.00    -0.231 N
ATOM      3  H1  UNL     1       0.423  32.286 -14.314  1.00  0.00     0.177 HD
HETATM    4  C2  UNL     1       0.912  33.783 -15.477  1.00  0.00     0.676 C
HETATM    5  N2  UNL     1       0.874  35.177 -15.667  1.00  0.00    -0.164 N
ATOM      6  H2  UNL     1       0.117  35.560 -16.234  1.00  0.00     0.187 HD
HETATM    7  C3  UNL     1       1.739  36.009 -15.169  1.00  0.00     0.202 C
HETATM    8  N3  UNL     1       2.799  35.497 -14.383  1.00  0.00    -0.063 NA
HETATM    9  N4  UNL     1       1.617  37.381 -15.398  1.00  0.00    -0.364 N
ATOM     10  H4  UNL     1       1.095  37.668 -16.226  1.00  0.00     0.162 HD
HETATM   11  N6  UNL     1       1.523  32.955 -16.446  1.00  0.00    -0.222 N
ATOM     12  H6  UNL     1       1.801  33.345 -17.347  1.00  0.00     0.178 HD
ENDROOT
BRANCH  11  13
HETATM   13  C9  UNL     1       1.758  31.546 -16.160  1.00  0.00     0.099 C
HETATM   14  C10 UNL     1       1.302  30.729 -17.328  1.00  0.00     0.026 C
HETATM   15  C11 UNL     1       1.691  29.271 -17.182  1.00  0.00     0.002 C
HETATM   16  C12 UNL     1       3.180  29.133 -17.124  1.00  0.00     0.000 C
HETATM   17  C13 UNL     1       3.919  30.288 -16.557  1.00  0.00     0.002 C
HETATM   18  C14 UNL     1       3.152  31.244 -15.726  1.00  0.00     0.026 C
ENDBRANCH  11  13
BRANCH   9  19
HETATM   19  C4  UNL     1       2.163  38.432 -14.570  1.00  0.00     0.127 C
BRANCH  19  20
HETATM   20  C5  UNL     1       1.322  38.804 -13.419  1.00  0.00     0.064 C
BRANCH  20  21
HETATM   21  C6  UNL     1      -0.142  38.843 -13.698  1.00  0.00     0.058 C
BRANCH  21  22
HETATM   22  N5  UNL     1      -0.812  40.008 -13.390  1.00  0.00    -0.402 N
HETATM   23  C7  UNL     1      -1.763  40.163 -12.402  1.00  0.00     0.148 C
HETATM   24  C8  UNL     1      -0.448  41.185 -14.132  1.00  0.00     0.148 C
ENDBRANCH  21  22
ENDBRANCH  20  21
ENDBRANCH  19  20
ENDBRANCH   9  19
TORSDOF 5
ENDMDL