MODEL 5
REMARK VINA RESULT: -6.586145770      1.919      2.936
REMARK  6 active torsions:
REMARK  status: ('A' for Active; 'I' for Inactive)
REMARK       I    between atoms: C2_2  and  N1_4
REMARK    1  A    between atoms: N1_4  and  C3_6
REMARK    2  A    between atoms: C3_6  and  C4_7
REMARK    3  A    between atoms: C3_6  and  C14_19
REMARK    4  A    between atoms: C4_7  and  N2_8
REMARK    5  A    between atoms: C9_13  and  C10_14
REMARK    6  A    between atoms: C14_19  and  N4_21
ROOT
HETATM    1  C3  UNL     1       0.448  38.473 -13.557  1.00  0.00     0.142 C
ENDROOT
BRANCH   1   2
HETATM    2  N1  UNL     1       0.354  37.101 -12.879  1.00  0.00    -0.353 N
HETATM    3  C2  UNL     1      -0.019  35.972 -13.597  1.00  0.00     0.214 C
HETATM    4  C1  UNL     1      -0.149  34.613 -13.081  1.00  0.00     0.117 C
HETATM    5  O1  UNL     1      -0.279  36.128 -14.842  1.00  0.00    -0.274 OA
ATOM      6  H1  UNL     1       0.568  37.016 -11.886  1.00  0.00     0.163 HD
ENDBRANCH   1   2
BRANCH   1   7
HETATM    7  C4  UNL     1       1.899  38.696 -13.743  1.00  0.00     0.287 C
BRANCH   7   8
HETATM    8  N2  UNL     1       2.445  39.450 -14.781  1.00  0.00     0.009 N
HETATM    9  C5  UNL     1       3.915  39.278 -14.777  1.00  0.00     0.297 C
HETATM   10  C6  UNL     1       2.079  38.713 -16.042  1.00  0.00     0.260 C
HETATM   11  C7  UNL     1       2.458  39.511 -17.241  1.00  0.00     0.031 C
HETATM   12  C8  UNL     1       1.595  40.755 -17.324  1.00  0.00     0.025 C
HETATM   13  C9  UNL     1       1.122  41.031 -15.912  1.00  0.00     0.114 C
HETATM   14  N3  UNL     1       2.114  40.767 -14.923  1.00  0.00    -0.041 NA
BRANCH  13  15
HETATM   15  C10 UNL     1       0.608  42.446 -15.839  1.00  0.00    -0.032 C
HETATM   16  C11 UNL     1       0.726  43.064 -14.492  1.00  0.00     0.016 C
HETATM   17  C12 UNL     1      -0.802  42.514 -16.361  1.00  0.00     0.016 C
HETATM   18  C13 UNL     1       1.474  43.268 -16.800  1.00  0.00     0.016 C
ENDBRANCH  13  15
ENDBRANCH   7   8
ENDBRANCH   1   7
BRANCH   1  19
HETATM   19  C14 UNL     1      -0.280  39.301 -12.544  1.00  0.00     0.203 C
HETATM   20  C15 UNL     1      -1.270  40.296 -12.966  1.00  0.00     0.042 C
BRANCH  19  21
HETATM   21  N4  UNL     1      -0.988  38.395 -11.599  1.00  0.00    -0.073 N
ATOM     22  H43 UNL     1      -0.363  38.001 -10.895  1.00  0.00     0.274 HD
ATOM     23  H42 UNL     1      -1.611  38.900 -10.968  1.00  0.00     0.274 HD
ATOM     24  H41 UNL     1      -1.475  37.675 -12.132  1.00  0.00     0.274 HD
ENDBRANCH  19  21
ENDBRANCH   1  19
TORSDOF 6
ENDMDL