MODEL 5
REMARK VINA RESULT: -7.298487675      3.138      6.052
REMARK  5 active torsions:
REMARK  status: ('A' for Active; 'I' for Inactive)
REMARK    1  A    between atoms: C4_5  and  C5_6
REMARK       I    between atoms: C5_6  and  N1_8
REMARK    2  A    between atoms: N1_8  and  C6_10
REMARK    3  A    between atoms: C6_10  and  C7_11
REMARK    4  A    between atoms: C6_10  and  C12_16
REMARK    5  A    between atoms: C8_12  and  C9_13
REMARK       I    between atoms: N2_18  and  C14_20
ROOT
HETATM    1  C6  UNL     1       2.158  38.541 -15.248  1.00  0.00     0.153 C
ENDROOT
BRANCH   1   2
HETATM    2  N1  UNL     1       1.079  39.425 -14.789  1.00  0.00    -0.347 N
HETATM    3  C5  UNL     1       0.102  39.009 -13.871  1.00  0.00     0.231 C
HETATM    4  O2  UNL     1       0.135  37.838 -13.412  1.00  0.00    -0.273 OA
ATOM      5  H1  UNL     1       1.039  40.378 -15.150  1.00  0.00     0.163 HD
BRANCH   3   6
HETATM    6  C4  UNL     1      -0.952  39.946 -13.451  1.00  0.00     0.158 C
HETATM    7  C2  UNL     1      -0.594  40.940 -12.440  1.00  0.00     0.052 C
HETATM    8  C1  UNL     1       0.454  41.654 -12.140  1.00  0.00     0.047 C
HETATM    9  O1  UNL     1      -1.876  40.804 -11.910  1.00  0.00    -0.354 OA
HETATM   10  C3  UNL     1      -1.829  39.443 -12.312  1.00  0.00     0.196 C
ENDBRANCH   3   6
ENDBRANCH   1   2
BRANCH   1  11
HETATM   11  C7  UNL     1       2.565  39.055 -16.574  1.00  0.00     0.004 C
HETATM   12  C8  UNL     1       1.728  39.813 -17.248  1.00  0.00    -0.002 C
BRANCH  12  13
HETATM   13  C9  UNL     1       2.093  40.333 -18.548  1.00  0.00    -0.005 C
HETATM   14  C10 UNL     1       1.667  41.501 -18.937  1.00  0.00    -0.031 C
HETATM   15  C11 UNL     1       2.029  42.071 -20.282  1.00  0.00     0.036 C
ENDBRANCH  12  13
ENDBRANCH   1  11
BRANCH   1  16
HETATM   16  C12 UNL     1       3.323  38.632 -14.339  1.00  0.00     0.012 C
HETATM   17  C13 UNL     1       3.482  37.527 -13.342  1.00  0.00     0.066 C
HETATM   18  N2  UNL     1       4.114  39.610 -14.437  1.00  0.00    -0.336 N
HETATM   19  C14 UNL     1       5.260  39.847 -13.657  1.00  0.00     0.185 C
ATOM     20  H2  UNL     1       3.901  40.300 -15.157  1.00  0.00     0.168 HD
HETATM   21  N3  UNL     1       6.448  39.458 -13.950  1.00  0.00    -0.374 N
HETATM   22  N4  UNL     1       5.090  40.580 -12.446  1.00  0.00    -0.064 NA
ATOM     23  H32 UNL     1       6.570  38.933 -14.816  1.00  0.00     0.158 HD
ATOM     24  H31 UNL     1       7.279  39.630 -13.384  1.00  0.00     0.158 HD
ENDBRANCH   1  16
TORSDOF 5
ENDMDL