MODEL 3
REMARK VINA RESULT: -6.783673988      1.428      1.938
REMARK  7 active torsions:
REMARK  status: ('A' for Active; 'I' for Inactive)
REMARK    1  A    between atoms: C2_2  and  N1_3
REMARK    2  A    between atoms: N2_6  and  C5_7
REMARK    3  A    between atoms: C5_7  and  C6_8
REMARK    4  A    between atoms: C6_8  and  C7_9
REMARK    5  A    between atoms: C7_9  and  N3_10
REMARK       I    between atoms: N3_10  and  C8_12
REMARK    6  A    between atoms: N5_14  and  C9_16
REMARK    7  A    between atoms: C9_16  and  C10_20
ROOT
HETATM    1  N3  UNL     1      -0.162  34.157 -13.689  1.00  0.00    -0.364 N
ATOM      2  H3  UNL     1      -1.045  33.667 -13.544  1.00  0.00     0.162 HD
HETATM    3  C8  UNL     1       0.682  33.620 -14.670  1.00  0.00     0.189 C
HETATM    4  N4  UNL     1       1.630  34.428 -15.333  1.00  0.00    -0.064 NA
HETATM    5  N5  UNL     1       0.631  32.364 -15.010  1.00  0.00    -0.320 N
ATOM      6  H5  UNL     1      -0.053  31.780 -14.531  1.00  0.00     0.169 HD
ENDROOT
BRANCH   1   7
HETATM    7  C7  UNL     1       0.060  35.311 -12.861  1.00  0.00     0.124 C
BRANCH   7   8
HETATM    8  C6  UNL     1      -0.824  36.469 -13.112  1.00  0.00     0.050 C
BRANCH   8   9
HETATM    9  C5  UNL     1      -0.241  37.650 -13.805  1.00  0.00     0.274 C
BRANCH   9  10
HETATM   10  N2  UNL     1       1.088  38.046 -13.468  1.00  0.00     0.091 N
HETATM   11  C4  UNL     1       1.057  39.466 -13.076  1.00  0.00     0.302 C
HETATM   12  C3  UNL     1       2.422  40.108 -13.148  1.00  0.00     0.302 C
HETATM   13  N1  UNL     1       2.840  40.238 -14.534  1.00  0.00     0.091 N
HETATM   14  C14 UNL     1       2.061  39.287 -15.298  1.00  0.00     0.302 C
HETATM   15  C13 UNL     1       2.047  37.981 -14.536  1.00  0.00     0.302 C
BRANCH  13  16
HETATM   16  C2  UNL     1       4.235  39.959 -14.741  1.00  0.00     0.268 C
HETATM   17  C1  UNL     1       5.105  40.508 -13.628  1.00  0.00     0.037 C
ENDBRANCH  13  16
ENDBRANCH   9  10
ENDBRANCH   8   9
ENDBRANCH   7   8
ENDBRANCH   1   7
BRANCH   5  18
HETATM   18  C9  UNL     1       1.432  31.747 -15.973  1.00  0.00     0.080 C
HETATM   19  N6  UNL     1       1.445  32.092 -17.206  1.00  0.00    -0.389 N
ATOM     20  H62 UNL     1       0.827  32.856 -17.480  1.00  0.00     0.157 HD
ATOM     21  H61 UNL     1       2.030  31.641 -17.909  1.00  0.00     0.157 HD
BRANCH  18  22
HETATM   22  C10 UNL     1       2.331  30.634 -15.574  1.00  0.00     0.045 C
HETATM   23  C11 UNL     1       2.464  29.572 -16.616  1.00  0.00     0.017 C
HETATM   24  C12 UNL     1       1.830  29.987 -14.298  1.00  0.00     0.017 C
ENDBRANCH  18  22
ENDBRANCH   5  18
TORSDOF 7
ENDMDL