MODEL 2
REMARK VINA RESULT: -6.206299965      3.243      5.586
REMARK  7 active torsions:
REMARK  status: ('A' for Active; 'I' for Inactive)
REMARK    1  A    between atoms: C2_2  and  C3_3
REMARK    2  A    between atoms: C3_3  and  N1_4
REMARK    3  A    between atoms: N1_4  and  C4_6
REMARK    4  A    between atoms: C4_6  and  N2_8
REMARK    5  A    between atoms: N2_8  and  C5_10
REMARK    6  A    between atoms: C5_10  and  C6_11
REMARK    7  A    between atoms: C6_11  and  N3_12
REMARK       I    between atoms: N3_12  and  C7_14
REMARK       I    between atoms: C7_14  and  N4_16
ROOT
HETATM    1  C6  UNL     1      -0.487  35.706 -12.828  1.00  0.00     0.144 C
ENDROOT
BRANCH   1   2
HETATM    2  C5  UNL     1      -0.609  34.736 -13.946  1.00  0.00     0.141 C
BRANCH   2   3
HETATM    3  N2  UNL     1       0.127  33.526 -13.840  1.00  0.00    -0.366 N
ATOM      4  H2  UNL     1       0.179  33.038 -12.945  1.00  0.00     0.161 HD
BRANCH   3   5
HETATM    5  C4  UNL     1       0.802  32.983 -14.999  1.00  0.00     0.167 C
HETATM    6  S1  UNL     1       1.572  33.971 -16.041  1.00  0.00    -0.041 SA
BRANCH   5   7
HETATM    7  N1  UNL     1       0.807  31.598 -15.246  1.00  0.00    -0.364 N
ATOM      8  H1  UNL     1       0.318  31.252 -16.072  1.00  0.00     0.162 HD
BRANCH   7   9
HETATM    9  C3  UNL     1       1.461  30.657 -14.400  1.00  0.00     0.148 C
BRANCH   9  10
HETATM   10  C2  UNL     1       2.518  29.896 -15.115  1.00  0.00    -0.018 C
HETATM   11  C1  UNL     1       3.448  30.508 -15.830  1.00  0.00     0.008 C
ENDBRANCH   9  10
ENDBRANCH   7   9
ENDBRANCH   5   7
ENDBRANCH   3   5
ENDBRANCH   2   3
ENDBRANCH   1   2
BRANCH   1  12
HETATM   12  N3  UNL     1       0.451  36.767 -13.263  1.00  0.00    -0.341 N
HETATM   13  C7  UNL     1       1.835  36.609 -13.118  1.00  0.00     0.318 C
HETATM   14  O1  UNL     1       2.250  35.515 -12.596  1.00  0.00    -0.247 OA
HETATM   15  N4  UNL     1       2.791  37.550 -13.500  1.00  0.00    -0.334 N
HETATM   16  C8  UNL     1       4.198  37.161 -13.255  1.00  0.00     0.127 C
HETATM   17  C13 UNL     1       2.417  38.797 -14.080  1.00  0.00     0.127 C
HETATM   18  C9  UNL     1       5.161  38.091 -13.947  1.00  0.00     0.020 C
HETATM   19  C10 UNL     1       5.253  39.339 -13.080  1.00  0.00     0.002 C
HETATM   20  C11 UNL     1       4.259  40.389 -13.484  1.00  0.00     0.002 C
HETATM   21  C12 UNL     1       2.840  39.984 -13.227  1.00  0.00     0.020 C
ATOM     22  H3  UNL     1       0.084  37.625 -13.673  1.00  0.00     0.164 HD
ENDBRANCH   1  12
TORSDOF 7
ENDMDL