MODEL 2
REMARK VINA RESULT: -6.337464621      3.039      6.716
REMARK  7 active torsions:
REMARK  status: ('A' for Active; 'I' for Inactive)
REMARK    1  A    between atoms: C2_2  and  C4_4
REMARK    2  A    between atoms: C4_4  and  N1_5
REMARK    3  A    between atoms: N1_5  and  C5_7
REMARK    4  A    between atoms: C5_7  and  N2_9
REMARK    5  A    between atoms: N2_9  and  C6_11
REMARK    6  A    between atoms: C6_11  and  C7_12
REMARK    7  A    between atoms: C7_12  and  N3_13
REMARK       I    between atoms: N3_13  and  C8_15
REMARK       I    between atoms: C8_15  and  N4_17
ROOT
HETATM    1  C6  UNL     1      -0.348  35.629 -14.095  1.00  0.00     0.141 C
ENDROOT
BRANCH   1   2
HETATM    2  N2  UNL     1       0.198  34.295 -13.893  1.00  0.00    -0.366 N
ATOM      3  H2  UNL     1       0.119  33.864 -12.973  1.00  0.00     0.161 HD
BRANCH   2   4
HETATM    4  C5  UNL     1       0.837  33.575 -14.937  1.00  0.00     0.167 C
HETATM    5  S1  UNL     1       1.570  34.352 -16.165  1.00  0.00    -0.041 SA
BRANCH   4   6
HETATM    6  N1  UNL     1       0.837  32.172 -14.915  1.00  0.00    -0.367 N
ATOM      7  H1  UNL     1       0.298  31.676 -14.206  1.00  0.00     0.161 HD
BRANCH   6   8
HETATM    8  C4  UNL     1       1.595  31.429 -15.889  1.00  0.00     0.126 C
BRANCH   8   9
HETATM    9  C2  UNL     1       2.046  30.103 -15.303  1.00  0.00    -0.005 C
HETATM   10  C1  UNL     1       1.575  30.034 -13.866  1.00  0.00     0.011 C
HETATM   11  C3  UNL     1       3.511  29.878 -15.460  1.00  0.00     0.011 C
ENDBRANCH   8   9
ENDBRANCH   6   8
ENDBRANCH   4   6
ENDBRANCH   2   4
ENDBRANCH   1   2
BRANCH   1  12
HETATM   12  C7  UNL     1       0.051  36.511 -12.938  1.00  0.00     0.144 C
BRANCH  12  13
HETATM   13  N3  UNL     1       1.091  37.441 -13.219  1.00  0.00    -0.341 N
HETATM   14  C8  UNL     1       2.473  37.064 -13.225  1.00  0.00     0.318 C
HETATM   15  O1  UNL     1       2.835  35.886 -12.977  1.00  0.00    -0.247 OA
HETATM   16  N4  UNL     1       3.488  38.020 -13.512  1.00  0.00    -0.334 N
HETATM   17  C9  UNL     1       4.903  37.716 -13.536  1.00  0.00     0.127 C
HETATM   18  C12 UNL     1       3.304  39.435 -13.825  1.00  0.00     0.127 C
HETATM   19  C10 UNL     1       5.611  39.033 -13.628  1.00  0.00     0.022 C
HETATM   20  C11 UNL     1       4.570  40.024 -13.219  1.00  0.00     0.022 C
ATOM     21  H3  UNL     1       0.843  38.409 -13.422  1.00  0.00     0.164 HD
ENDBRANCH  12  13
ENDBRANCH   1  12
TORSDOF 7
ENDMDL