MODEL 1
REMARK VINA RESULT: -6.731700048      0.000      0.000
REMARK  7 active torsions:
REMARK  status: ('A' for Active; 'I' for Inactive)
REMARK    1  A    between atoms: C2_2  and  N1_5
REMARK       I    between atoms: N1_5  and  C5_7
REMARK    2  A    between atoms: C5_7  and  C6_9
REMARK    3  A    between atoms: C11_15  and  N3_16
REMARK    4  A    between atoms: N3_16  and  C12_18
REMARK    5  A    between atoms: C12_18  and  C13_19
REMARK    6  A    between atoms: C13_19  and  C14_20
REMARK    7  A    between atoms: C14_20  and  N4_21
ROOT
HETATM    1  C6  UNL     1       3.428  37.920 -12.942  1.00  0.00     0.133 C
HETATM    2  C7  UNL     1       4.748  37.825 -13.739  1.00  0.00     0.253 C
HETATM    3  N2  UNL     1       5.138  39.197 -14.000  1.00  0.00    -0.068 N
HETATM    4  C8  UNL     1       6.536  39.425 -13.984  1.00  0.00     0.272 C
HETATM    5  C9  UNL     1       4.459  39.635 -15.186  1.00  0.00     0.239 C
HETATM    6  C10 UNL     1       2.998  39.580 -14.759  1.00  0.00     0.061 C
HETATM    7  C11 UNL     1       3.042  39.319 -13.266  1.00  0.00     0.065 C
HETATM    8  C15 UNL     1       4.418  39.977 -12.975  1.00  0.00     0.268 C
ENDROOT
BRANCH   7   9
HETATM    9  N3  UNL     1       2.004  39.919 -12.534  1.00  0.00    -0.410 N
ATOM     10  H3  UNL     1       1.709  39.547 -11.632  1.00  0.00     0.154 HD
BRANCH   9  11
HETATM   11  C12 UNL     1       1.380  41.064 -13.097  1.00  0.00     0.116 C
BRANCH  11  12
HETATM   12  C13 UNL     1      -0.001  41.212 -12.494  1.00  0.00     0.046 C
BRANCH  12  13
HETATM   13  C14 UNL     1      -0.924  40.144 -12.997  1.00  0.00     0.231 C
BRANCH  13  14
HETATM   14  N4  UNL     1      -1.932  39.813 -12.036  1.00  0.00    -0.079 N
ATOM     15  H43 UNL     1      -2.137  40.605 -11.426  1.00  0.00     0.274 HD
ATOM     16  H42 UNL     1      -2.845  39.709 -12.477  1.00  0.00     0.274 HD
ATOM     17  H41 UNL     1      -1.685  38.984 -11.496  1.00  0.00     0.274 HD
ENDBRANCH  13  14
ENDBRANCH  12  13
ENDBRANCH  11  12
ENDBRANCH   9  11
ENDBRANCH   7   9
BRANCH   1  18
HETATM   18  C5  UNL     1       2.482  36.891 -13.392  1.00  0.00     0.226 C
HETATM   19  N1  UNL     1       1.135  36.943 -12.976  1.00  0.00    -0.353 N
ATOM     20  H1  UNL     1       0.839  37.703 -12.363  1.00  0.00     0.163 HD
HETATM   21  O1  UNL     1       2.828  35.951 -14.143  1.00  0.00    -0.273 OA
BRANCH  19  22
HETATM   22  C2  UNL     1       0.152  35.958 -13.386  1.00  0.00     0.022 C
HETATM   23  C1  UNL     1      -1.200  36.372 -12.883  1.00  0.00     0.037 C
HETATM   24  C3  UNL     1       0.460  34.578 -12.834  1.00  0.00     0.037 C
HETATM   25  C4  UNL     1       0.095  35.839 -14.893  1.00  0.00     0.037 C
ENDBRANCH  19  22
ENDBRANCH   1  18
TORSDOF 7
ENDMDL