MODEL 2
REMARK VINA RESULT: -6.752918210      3.725      8.927
REMARK  10 active torsions:
REMARK  status: ('A' for Active; 'I' for Inactive)
REMARK    1  A    between atoms: C2_2  and  N1_3
REMARK    2  A    between atoms: N2_6  and  C5_7
REMARK    3  A    between atoms: C8_12  and  N4_13
REMARK    4  A    between atoms: N4_13  and  C9_14
REMARK    5  A    between atoms: N4_13  and  C11_18
REMARK    6  A    between atoms: C9_14  and  C10_15
REMARK    7  A    between atoms: C10_15  and  O1_16
REMARK    8  A    between atoms: C11_18  and  C12_19
REMARK    9  A    between atoms: C12_19  and  O2_20
REMARK   10  A    between atoms: C13_24  and  N6_25
ROOT
HETATM    1  C5  UNL     1      45.526 270.882 164.489  1.00  0.00     0.683 A
HETATM    2  N3  UNL     1      44.764 271.201 165.557  1.00  0.00    -0.175 N
ATOM      3  H3  UNL     1      45.184 271.144 166.485  1.00  0.00     0.186 HD
HETATM    4  C6  UNL     1      43.493 271.585 165.459  1.00  0.00     0.156 A
HETATM    5  C7  UNL     1      42.917 271.665 164.190  1.00  0.00     0.098 A
HETATM    6  C8  UNL     1      41.624 272.047 164.069  1.00  0.00     0.137 A
HETATM    7  N5  UNL     1      40.965 272.328 165.266  1.00  0.00    -0.176 N
ATOM      8  H5  UNL     1      39.988 272.617 165.226  1.00  0.00     0.186 HD
HETATM    9  C13 UNL     1      41.551 272.238 166.456  1.00  0.00     0.680 A
HETATM   10  N7  UNL     1      42.839 271.862 166.588  1.00  0.00    -0.171 N
HETATM   11  C14 UNL     1      43.440 271.781 167.897  1.00  0.00     0.177 C
HETATM   12  C15 UNL     1      43.664 271.346 163.071  1.00  0.00     0.132 A
HETATM   13  N8  UNL     1      43.192 271.375 161.899  1.00  0.00    -0.384 N
ATOM     14  H81 UNL     1      43.744 271.140 161.074  1.00  0.00     0.157 HD
ATOM     15  H82 UNL     1      42.226 271.660 161.736  1.00  0.00     0.157 HD
HETATM   16  N9  UNL     1      44.958 270.964 163.289  1.00  0.00    -0.176 N
ATOM     17  H9  UNL     1      45.526 270.725 162.477  1.00  0.00     0.186 HD
ENDROOT
BRANCH   6  18
HETATM   18  N4  UNL     1      40.855 272.260 162.907  1.00  0.00    -0.362 N
BRANCH  18  19
HETATM   19  C9  UNL     1      40.727 273.591 162.382  1.00  0.00     0.150 C
BRANCH  19  20
HETATM   20  C10 UNL     1      41.874 274.515 162.559  1.00  0.00     0.183 C
BRANCH  20  21
HETATM   21  O1  UNL     1      42.695 274.350 161.413  1.00  0.00    -0.399 OA
ATOM     22  H1  UNL     1      42.477 275.065 160.826  1.00  0.00     0.209 HD
ENDBRANCH  20  21
ENDBRANCH  19  20
ENDBRANCH  18  19
BRANCH  18  23
HETATM   23  C11 UNL     1      40.075 271.203 162.333  1.00  0.00     0.150 C
BRANCH  23  24
HETATM   24  C12 UNL     1      38.858 271.805 161.602  1.00  0.00     0.183 C
BRANCH  24  25
HETATM   25  O2  UNL     1      37.813 270.912 161.587  1.00  0.00    -0.399 OA
ATOM     26  H2  UNL     1      37.053 271.279 162.024  1.00  0.00     0.209 HD
ENDBRANCH  24  25
ENDBRANCH  23  24
ENDBRANCH  18  23
ENDBRANCH   6  18
BRANCH   9  27
HETATM   27  N6  UNL     1      40.910 272.507 167.538  1.00  0.00    -0.234 N
ATOM     28  H62 UNL     1      39.894 272.422 167.505  1.00  0.00     0.174 HD
ATOM     29  H61 UNL     1      41.399 272.792 168.386  1.00  0.00     0.174 HD
ENDBRANCH   9  27
BRANCH   1  30
HETATM   30  N2  UNL     1      46.871 270.481 164.697  1.00  0.00    -0.214 N
HETATM   31  C4  UNL     1      47.405 270.539 166.038  1.00  0.00     0.161 C
HETATM   32  C3  UNL     1      47.868 269.132 166.456  1.00  0.00     0.142 C
HETATM   33  N1  UNL     1      47.996 268.345 165.286  1.00  0.00    -0.391 N
HETATM   34  C17 UNL     1      48.656 268.942 164.185  1.00  0.00     0.142 C
HETATM   35  C16 UNL     1      47.718 270.024 163.627  1.00  0.00     0.161 C
BRANCH  33  36
HETATM   36  C2  UNL     1      47.989 266.946 165.404  1.00  0.00     0.054 C
HETATM   37  C1  UNL     1      47.175 266.203 164.373  1.00  0.00     0.054 C
ENDBRANCH  33  36
ENDBRANCH   1  30
TORSDOF 10
ENDMDL