MODEL 3
REMARK VINA RESULT: -8.408366241      4.417      6.770
REMARK  9 active torsions:
REMARK  status: ('A' for Active; 'I' for Inactive)
REMARK    1  A    between atoms: N1_2  and  C3_4
REMARK    2  A    between atoms: C4_7  and  N3_8
REMARK    3  A    between atoms: N4_11  and  C7_12
REMARK    4  A    between atoms: C7_12  and  C8_13
REMARK    5  A    between atoms: C8_13  and  C9_15
REMARK    6  A    between atoms: C9_15  and  O2_16
REMARK    7  A    between atoms: O2_16  and  C10_17
REMARK    8  A    between atoms: C12_21  and  N6_22
REMARK    9  A    between atoms: C15_32  and  N9_33
ROOT
HETATM    1  N3  UNL     1      43.437 269.554 161.379  1.00  0.00    -0.188 N
HETATM    2  C5  UNL     1      44.624 270.004 162.087  1.00  0.00     0.173 C
HETATM    3  C6  UNL     1      44.121 270.298 163.459  1.00  0.00     0.295 C
HETATM    4  N4  UNL     1      42.728 270.684 163.274  1.00  0.00     0.115 N
HETATM    5  C14 UNL     1      42.288 269.747 162.232  1.00  0.00     0.414 C
ENDROOT
BRANCH   4   6
HETATM    6  C7  UNL     1      42.630 272.043 162.752  1.00  0.00     0.354 C
BRANCH   6   7
HETATM    7  C8  UNL     1      41.423 272.659 163.336  1.00  0.00     0.179 C
HETATM    8  O1  UNL     1      40.955 273.651 162.832  1.00  0.00    -0.294 OA
BRANCH   7   9
HETATM    9  C9  UNL     1      40.800 272.072 164.530  1.00  0.00     0.256 C
BRANCH   9  10
HETATM   10  O2  UNL     1      40.692 272.989 165.617  1.00  0.00    -0.337 OA
BRANCH  10  11
HETATM   11  C10 UNL     1      41.383 272.584 166.778  1.00  0.00     0.153 A
HETATM   12  C11 UNL     1      42.542 271.854 166.735  1.00  0.00     0.148 A
HETATM   13  N5  UNL     1      43.121 271.518 167.902  1.00  0.00    -0.199 N
HETATM   14  C12 UNL     1      42.593 271.876 169.085  1.00  0.00     0.678 A
ATOM     15  H5  UNL     1      43.985 270.976 167.888  1.00  0.00     0.183 HD
HETATM   16  N7  UNL     1      41.454 272.594 169.160  1.00  0.00    -0.154 N
HETATM   17  C13 UNL     1      40.849 272.947 167.988  1.00  0.00     0.294 A
ATOM     18  H7  UNL     1      41.059 272.864 170.061  1.00  0.00     0.187 HD
HETATM   19  O3  UNL     1      39.790 273.615 168.053  1.00  0.00    -0.265 OA
BRANCH  14  20
HETATM   20  N6  UNL     1      43.230 271.500 170.142  1.00  0.00    -0.234 N
ATOM     21  H62 UNL     1      42.780 270.947 170.871  1.00  0.00     0.174 HD
ATOM     22  H61 UNL     1      44.207 271.785 170.215  1.00  0.00     0.174 HD
ENDBRANCH  14  20
ENDBRANCH  10  11
ENDBRANCH   9  10
ENDBRANCH   7   9
ENDBRANCH   6   7
ENDBRANCH   4   6
BRANCH   1  23
HETATM   23  C4  UNL     1      43.417 269.011 160.072  1.00  0.00     0.711 A
HETATM   24  N2  UNL     1      44.441 269.155 159.211  1.00  0.00    -0.021 N
HETATM   25  C3  UNL     1      44.441 268.657 157.974  1.00  0.00     0.708 A
ATOM     26  H2  UNL     1      45.262 269.676 159.521  1.00  0.00     0.203 HD
HETATM   27  N10 UNL     1      43.370 267.980 157.575  1.00  0.00    -0.022 N
HETATM   28  C15 UNL     1      42.300 267.792 158.387  1.00  0.00     0.705 A
ATOM     29  H10 UNL     1      43.351 267.591 156.632  1.00  0.00     0.203 HD
HETATM   30  N8  UNL     1      42.338 268.309 159.625  1.00  0.00    -0.021 N
ATOM     31  H8  UNL     1      41.540 268.174 160.246  1.00  0.00     0.203 HD
BRANCH  25  32
HETATM   32  N1  UNL     1      45.581 268.854 157.150  1.00  0.00    -0.225 N
HETATM   33  C1  UNL     1      46.742 269.577 157.693  1.00  0.00     0.168 C
HETATM   34  C2  UNL     1      45.621 268.381 155.804  1.00  0.00     0.168 C
ENDBRANCH  25  32
BRANCH  28  35
HETATM   35  N9  UNL     1      41.268 267.139 157.998  1.00  0.00    -0.234 N
ATOM     36  H92 UNL     1      40.489 266.948 158.627  1.00  0.00     0.174 HD
ATOM     37  H91 UNL     1      41.214 266.798 157.038  1.00  0.00     0.174 HD
ENDBRANCH  28  35
ENDBRANCH   1  23
TORSDOF 9
ENDMDL