MODEL 3
REMARK VINA RESULT: -8.873696780      2.302      4.520
REMARK  9 active torsions:
REMARK  status: ('A' for Active; 'I' for Inactive)
REMARK    1  A    between atoms: O1_2  and  C2_3
REMARK    2  A    between atoms: N2_6  and  C3_7
REMARK    3  A    between atoms: C3_7  and  O2_8
REMARK    4  A    between atoms: O2_8  and  C4_9
REMARK    5  A    between atoms: C4_9  and  C5_10
REMARK    6  A    between atoms: C5_10  and  O3_11
REMARK    7  A    between atoms: O3_11  and  C6_12
REMARK    8  A    between atoms: C6_12  and  C7_14
REMARK    9  A    between atoms: C12_27  and  N6_28
ROOT
HETATM    1  C2  UNL     1      41.034 272.136 161.643  1.00  0.00     0.176 A
HETATM    2  N1  UNL     1      42.309 271.810 161.884  1.00  0.00    -0.273 N
ATOM      3  H1  UNL     1      42.970 272.406 162.380  1.00  0.00     0.189 HD
HETATM    4  N2  UNL     1      42.599 270.629 161.401  1.00  0.00    -0.249 N
HETATM    5  C11 UNL     1      41.487 270.153 160.822  1.00  0.00     0.160 A
HETATM    6  N5  UNL     1      41.178 269.006 160.169  1.00  0.00    -0.174 N
ATOM      7  H5  UNL     1      41.892 268.288 160.044  1.00  0.00     0.186 HD
HETATM    8  C12 UNL     1      39.944 268.805 159.684  1.00  0.00     0.680 A
HETATM    9  N7  UNL     1      38.954 269.727 159.821  1.00  0.00    -0.155 N
ATOM     10  H7  UNL     1      38.025 269.543 159.442  1.00  0.00     0.187 HD
HETATM   11  C13 UNL     1      39.211 270.891 160.466  1.00  0.00     0.278 A
HETATM   12  O7  UNL     1      38.277 271.720 160.576  1.00  0.00    -0.266 OA
HETATM   13  C14 UNL     1      40.477 271.080 160.955  1.00  0.00     0.131 A
ENDROOT
BRANCH   4  14
HETATM   14  C3  UNL     1      43.884 269.980 161.496  1.00  0.00     0.318 C
BRANCH  14  15
HETATM   15  O2  UNL     1      44.808 270.669 162.277  1.00  0.00    -0.368 OA
BRANCH  15  16
HETATM   16  C4  UNL     1      44.966 270.232 163.543  1.00  0.00     0.197 C
BRANCH  16  17
HETATM   17  C5  UNL     1      44.439 271.000 164.689  1.00  0.00     0.205 C
BRANCH  17  18
HETATM   18  O3  UNL     1      43.124 270.997 165.006  1.00  0.00    -0.314 OA
BRANCH  18  19
HETATM   19  C6  UNL     1      42.222 271.734 165.663  1.00  0.00     0.310 C
HETATM   20  O4  UNL     1      41.260 272.195 165.010  1.00  0.00    -0.258 OA
BRANCH  19  21
HETATM   21  C7  UNL     1      42.305 272.030 167.114  1.00  0.00     0.117 A
HETATM   22  C8  UNL     1      41.258 272.694 167.708  1.00  0.00     0.110 A
HETATM   23  C9  UNL     1      41.289 272.994 169.066  1.00  0.00     0.251 A
HETATM   24  O5  UNL     1      40.323 273.602 169.596  1.00  0.00    -0.268 OA
HETATM   25  N3  UNL     1      42.364 272.629 169.808  1.00  0.00    -0.275 N
HETATM   26  C10 UNL     1      43.362 271.983 169.187  1.00  0.00     0.327 A
ATOM     27  H3  UNL     1      42.411 272.838 170.805  1.00  0.00     0.173 HD
HETATM   28  O6  UNL     1      44.355 271.654 169.912  1.00  0.00    -0.247 OA
HETATM   29  N4  UNL     1      43.339 271.687 167.865  1.00  0.00    -0.303 N
ATOM     30  H4  UNL     1      44.127 271.195 167.445  1.00  0.00     0.171 HD
ENDBRANCH  19  21
ENDBRANCH  18  19
ENDBRANCH  17  18
ENDBRANCH  16  17
ENDBRANCH  15  16
ENDBRANCH  14  15
ENDBRANCH   4  14
BRANCH   1  31
HETATM   31  O1  UNL     1      40.386 273.331 162.020  1.00  0.00    -0.339 OA
HETATM   32  C1  UNL     1      41.178 274.456 162.309  1.00  0.00     0.211 C
ENDBRANCH   1  31
BRANCH   8  33
HETATM   33  N6  UNL     1      39.639 267.713 159.058  1.00  0.00    -0.234 N
ATOM     34  H62 UNL     1      39.856 267.680 158.063  1.00  0.00     0.174 HD
ATOM     35  H61 UNL     1      39.203 266.929 159.545  1.00  0.00     0.174 HD
ENDBRANCH   8  33
TORSDOF 9
ENDMDL