MODEL 5
REMARK VINA RESULT: -8.254411436      2.358      4.216
REMARK  10 active torsions:
REMARK  status: ('A' for Active; 'I' for Inactive)
REMARK    1  A    between atoms: O1_2  and  C2_3
REMARK    2  A    between atoms: C3_6  and  N2_7
REMARK    3  A    between atoms: C4_12  and  N4_13
REMARK    4  A    between atoms: N4_13  and  C5_15
REMARK    5  A    between atoms: C5_15  and  C6_16
REMARK    6  A    between atoms: C7_18  and  C8_19
REMARK    7  A    between atoms: C8_19  and  C9_20
REMARK    8  A    between atoms: C9_20  and  N5_21
REMARK    9  A    between atoms: N5_21  and  C10_23
REMARK   10  A    between atoms: C11_26  and  C12_27
ROOT
HETATM    1  C12 UNL     1      42.023 271.930 165.765  1.00  0.00     0.170 C
HETATM    2  N7  UNL     1      40.900 272.267 164.906  1.00  0.00    -0.078 NA
HETATM    3  N8  UNL     1      41.881 272.163 166.956  1.00  0.00    -0.279 N
ATOM      4  H8  UNL     1      40.952 272.563 167.083  1.00  0.00     0.179 HD
HETATM    5  C13 UNL     1      42.456 272.102 168.150  1.00  0.00     0.183 C
HETATM    6  N9  UNL     1      42.933 272.060 169.198  1.00  0.00    -0.172 NA
ENDROOT
BRANCH   1   7
HETATM    7  C11 UNL     1      43.229 271.335 165.097  1.00  0.00     0.156 A
HETATM    8  N6  UNL     1      43.130 270.632 164.010  1.00  0.00    -0.319 N
HETATM    9  C10 UNL     1      44.213 270.126 163.450  1.00  0.00     0.162 A
ATOM     10  H6  UNL     1      42.215 270.469 163.589  1.00  0.00     0.169 HD
HETATM   11  S1  UNL     1      45.429 270.669 164.510  1.00  0.00     0.024 SA
HETATM   12  N10 UNL     1      44.447 271.518 165.609  1.00  0.00    -0.307 N
ATOM     13  H10 UNL     1      44.720 272.034 166.445  1.00  0.00     0.176 HD
BRANCH   9  14
HETATM   14  N5  UNL     1      44.296 269.398 162.362  1.00  0.00    -0.369 N
ATOM     15  H5  UNL     1      45.204 269.213 161.936  1.00  0.00     0.161 HD
BRANCH  14  16
HETATM   16  C9  UNL     1      43.095 268.863 161.775  1.00  0.00     0.126 C
BRANCH  16  17
HETATM   17  C8  UNL     1      42.713 269.689 160.589  1.00  0.00     0.066 C
BRANCH  17  18
HETATM   18  C7  UNL     1      41.271 270.040 160.537  1.00  0.00     0.039 A
HETATM   19  C2  UNL     1      40.336 269.182 160.006  1.00  0.00     0.167 A
HETATM   20  N1  UNL     1      39.026 269.553 159.977  1.00  0.00    -0.170 N
HETATM   21  C3  UNL     1      38.631 270.739 160.458  1.00  0.00     0.679 A
ATOM     22  H1  UNL     1      38.334 268.916 159.582  1.00  0.00     0.186 HD
HETATM   23  N3  UNL     1      39.544 271.575 160.977  1.00  0.00    -0.176 N
HETATM   24  C4  UNL     1      40.848 271.278 161.038  1.00  0.00     0.128 A
ATOM     25  H3  UNL     1      39.230 272.475 161.340  1.00  0.00     0.186 HD
BRANCH  19  26
HETATM   26  O1  UNL     1      40.757 267.969 159.516  1.00  0.00    -0.340 OA
HETATM   27  C1  UNL     1      41.070 267.648 158.200  1.00  0.00     0.211 C
ENDBRANCH  19  26
BRANCH  21  28
HETATM   28  N2  UNL     1      37.378 271.098 160.433  1.00  0.00    -0.234 N
ATOM     29  H22 UNL     1      36.891 271.273 161.312  1.00  0.00     0.174 HD
ATOM     30  H21 UNL     1      36.875 271.208 159.553  1.00  0.00     0.174 HD
ENDBRANCH  21  28
BRANCH  24  31
HETATM   31  N4  UNL     1      41.726 272.058 161.525  1.00  0.00    -0.369 N
ATOM     32  H4  UNL     1      42.594 271.636 161.853  1.00  0.00     0.161 HD
BRANCH  31  33
HETATM   33  C5  UNL     1      41.598 273.478 161.651  1.00  0.00     0.190 C
BRANCH  33  34
HETATM   34  C6  UNL     1      42.728 274.026 162.424  1.00  0.00     0.250 C
HETATM   35  O2  UNL     1      43.784 273.413 162.445  1.00  0.00    -0.305 OA
ENDBRANCH  33  34
ENDBRANCH  31  33
ENDBRANCH  24  31
ENDBRANCH  17  18
ENDBRANCH  16  17
ENDBRANCH  14  16
ENDBRANCH   9  14
ENDBRANCH   1   7
TORSDOF 10
ENDMDL