MODEL 5
REMARK VINA RESULT: -8.971192183      4.609      9.437
REMARK  9 active torsions:
REMARK  status: ('A' for Active; 'I' for Inactive)
REMARK    1  A    between atoms: O1_2  and  C2_3
REMARK    2  A    between atoms: C2_3  and  C3_5
REMARK    3  A    between atoms: C3_5  and  C4_7
REMARK    4  A    between atoms: C4_7  and  C5_8
REMARK    5  A    between atoms: C5_8  and  N2_9
REMARK    6  A    between atoms: C7_11  and  N3_12
REMARK    7  A    between atoms: N3_12  and  C8_14
REMARK    8  A    between atoms: C9_15  and  N4_16
REMARK    9  A    between atoms: N4_16  and  C10_18
ROOT
HETATM    1  C8  UNL     1      40.531 270.527 161.246  1.00  0.00     0.119 A
HETATM    2  C9  UNL     1      39.523 271.430 161.605  1.00  0.00     0.134 A
HETATM    3  C12 UNL     1      40.463 272.384 161.767  1.00  0.00     0.253 A
HETATM    4  O4  UNL     1      40.516 273.610 162.100  1.00  0.00    -0.281 OA
HETATM    5  C13 UNL     1      41.488 271.501 161.412  1.00  0.00     0.253 A
HETATM    6  O5  UNL     1      42.736 271.601 161.302  1.00  0.00    -0.281 OA
ENDROOT
BRANCH   1   7
HETATM    7  N3  UNL     1      40.429 269.171 160.851  1.00  0.00    -0.349 N
ATOM      8  H3  UNL     1      39.950 268.534 161.488  1.00  0.00     0.166 HD
BRANCH   7   9
HETATM    9  C7  UNL     1      40.930 268.630 159.659  1.00  0.00     0.067 A
HETATM   10  C6  UNL     1      40.311 267.970 158.634  1.00  0.00     0.141 A
HETATM   11  N2  UNL     1      41.227 267.615 157.712  1.00  0.00    -0.298 N
HETATM   12  N8  UNL     1      42.399 268.031 158.124  1.00  0.00    -0.308 N
HETATM   13  C14 UNL     1      42.279 268.654 159.301  1.00  0.00     0.138 A
ATOM     14  H8  UNL     1      43.276 267.899 157.620  1.00  0.00     0.186 HD
BRANCH  11  15
HETATM   15  C5  UNL     1      40.906 266.892 156.486  1.00  0.00     0.177 C
BRANCH  15  16
HETATM   16  C4  UNL     1      39.528 267.202 156.111  1.00  0.00     0.027 C
BRANCH  16  17
HETATM   17  C3  UNL     1      38.723 266.487 155.412  1.00  0.00     0.119 C
HETATM   18  N1  UNL     1      37.389 266.274 155.971  1.00  0.00    -0.096 NA
BRANCH  17  19
HETATM   19  C2  UNL     1      39.004 265.882 154.139  1.00  0.00     0.306 C
HETATM   20  O2  UNL     1      39.308 264.630 154.141  1.00  0.00    -0.258 OA
BRANCH  19  21
HETATM   21  O1  UNL     1      38.997 266.447 152.897  1.00  0.00    -0.322 OA
HETATM   22  C1  UNL     1      39.948 266.140 151.888  1.00  0.00     0.213 C
ENDBRANCH  19  21
ENDBRANCH  17  19
ENDBRANCH  16  17
ENDBRANCH  15  16
ENDBRANCH  11  15
ENDBRANCH   7   9
ENDBRANCH   1   7
BRANCH   2  23
HETATM   23  N4  UNL     1      38.109 271.437 161.760  1.00  0.00    -0.184 N
ATOM     24  H4  UNL     1      37.692 271.443 162.690  1.00  0.00     0.184 HD
BRANCH  23  25
HETATM   25  C10 UNL     1      37.369 271.435 160.719  1.00  0.00     0.701 A
HETATM   26  N5  UNL     1      37.682 270.910 159.533  1.00  0.00    -0.128 N
HETATM   27  N6  UNL     1      36.660 271.110 158.725  1.00  0.00    -0.237 N
ATOM     28  H5  UNL     1      38.555 270.440 159.294  1.00  0.00     0.205 HD
HETATM   29  C11 UNL     1      35.682 271.761 159.375  1.00  0.00     0.353 A
ATOM     30  H6  UNL     1      36.619 270.815 157.750  1.00  0.00     0.192 HD
HETATM   31  O3  UNL     1      34.586 272.092 158.872  1.00  0.00    -0.245 OA
HETATM   32  N7  UNL     1      36.142 271.957 160.624  1.00  0.00    -0.139 N
ATOM     33  H7  UNL     1      35.637 272.427 161.375  1.00  0.00     0.189 HD
ENDBRANCH  23  25
ENDBRANCH   2  23
TORSDOF 9
ENDMDL