MODEL 2
REMARK VINA RESULT: -7.656084789      4.796      7.617
REMARK  8 active torsions:
REMARK  status: ('A' for Active; 'I' for Inactive)
REMARK    1  A    between atoms: O1_2  and  C2_3
REMARK    2  A    between atoms: C2_3  and  C3_4
REMARK    3  A    between atoms: C3_4  and  C4_8
REMARK    4  A    between atoms: C4_8  and  N2_10
REMARK       I    between atoms: N2_10  and  C6_12
REMARK    5  A    between atoms: C6_12  and  C7_14
REMARK    6  A    between atoms: C9_20  and  N5_21
REMARK    7  A    between atoms: C13_29  and  N8_30
REMARK    8  A    between atoms: C14_33  and  C15_34
ROOT
HETATM    1  C7  UNL     1      41.131 271.952 163.471  1.00  0.00     0.136 A
HETATM    2  N3  UNL     1      39.848 272.082 163.004  1.00  0.00    -0.184 N
ATOM      3  H3  UNL     1      39.182 272.628 163.552  1.00  0.00     0.184 HD
HETATM    4  C8  UNL     1      39.433 271.526 161.863  1.00  0.00     0.709 A
HETATM    5  N4  UNL     1      38.169 271.683 161.447  1.00  0.00    -0.021 N
ATOM      6  H4  UNL     1      37.535 272.235 162.024  1.00  0.00     0.203 HD
HETATM    7  C9  UNL     1      37.691 271.148 160.304  1.00  0.00     0.698 A
HETATM    8  N6  UNL     1      38.573 270.436 159.594  1.00  0.00    -0.140 N
ATOM      9  H6  UNL     1      38.271 270.007 158.719  1.00  0.00     0.189 HD
HETATM   10  C12 UNL     1      39.852 270.265 159.997  1.00  0.00     0.361 A
HETATM   11  O3  UNL     1      40.624 269.586 159.283  1.00  0.00    -0.245 OA
HETATM   12  N7  UNL     1      40.300 270.807 161.134  1.00  0.00    -0.079 N
HETATM   13  C13 UNL     1      41.578 270.631 161.527  1.00  0.00     0.145 A
HETATM   14  C14 UNL     1      41.991 271.232 162.749  1.00  0.00     0.106 A
ENDROOT
BRANCH   1  15
HETATM   15  C6  UNL     1      41.354 272.667 164.716  1.00  0.00     0.270 C
HETATM   16  N2  UNL     1      40.926 272.191 165.962  1.00  0.00    -0.346 N
ATOM     17  H2  UNL     1      40.431 271.301 166.031  1.00  0.00     0.163 HD
HETATM   18  O2  UNL     1      41.982 273.783 164.688  1.00  0.00    -0.266 OA
BRANCH  16  19
HETATM   19  C4  UNL     1      41.197 272.983 167.170  1.00  0.00     0.128 C
HETATM   20  C5  UNL     1      39.920 273.264 167.903  1.00  0.00     0.038 C
BRANCH  19  21
HETATM   21  C3  UNL     1      42.123 272.143 167.992  1.00  0.00     0.026 C
HETATM   22  N1  UNL     1      43.066 271.530 167.401  1.00  0.00    -0.402 N
ATOM     23  H12 UNL     1      43.697 270.956 167.962  1.00  0.00     0.155 HD
ATOM     24  H11 UNL     1      43.186 271.630 166.394  1.00  0.00     0.155 HD
BRANCH  21  25
HETATM   25  C2  UNL     1      41.948 271.997 169.453  1.00  0.00     0.221 C
BRANCH  25  26
HETATM   26  O1  UNL     1      42.674 272.815 170.250  1.00  0.00    -0.390 OA
HETATM   27  C1  UNL     1      43.934 272.459 170.602  1.00  0.00     0.201 C
ENDBRANCH  25  26
ENDBRANCH  21  25
ENDBRANCH  19  21
ENDBRANCH  16  19
ENDBRANCH   1  15
BRANCH  14  28
HETATM   28  C15 UNL     1      43.314 270.887 163.208  1.00  0.00     0.271 C
HETATM   29  N9  UNL     1      44.469 271.528 162.768  1.00  0.00    -0.057 NA
HETATM   30  O4  UNL     1      43.433 269.954 164.069  1.00  0.00    -0.271 OA
ENDBRANCH  14  28
BRANCH  13  31
HETATM   31  N8  UNL     1      42.450 269.991 160.931  1.00  0.00    -0.384 N
ATOM     32  H82 UNL     1      42.107 269.342 160.223  1.00  0.00     0.157 HD
ATOM     33  H81 UNL     1      43.457 270.052 161.079  1.00  0.00     0.157 HD
ENDBRANCH  13  31
BRANCH   7  34
HETATM   34  N5  UNL     1      36.342 271.335 159.893  1.00  0.00    -0.226 N
HETATM   35  C10 UNL     1      35.335 271.734 160.829  1.00  0.00     0.168 C
HETATM   36  C11 UNL     1      35.999 271.116 158.512  1.00  0.00     0.168 C
ENDBRANCH   7  34
TORSDOF 8
ENDMDL