MODEL 4
REMARK VINA RESULT: -7.742338736      1.171      3.518
REMARK  8 active torsions:
REMARK  status: ('A' for Active; 'I' for Inactive)
REMARK    1  A    between atoms: C2_2  and  C3_4
REMARK    2  A    between atoms: C3_4  and  C4_5
REMARK    3  A    between atoms: C5_6  and  O2_7
REMARK    4  A    between atoms: C6_9  and  N1_10
REMARK    5  A    between atoms: C9_13  and  O3_14
REMARK    6  A    between atoms: N2_16  and  C10_17
REMARK    7  A    between atoms: C10_17  and  C11_18
REMARK       I    between atoms: C11_18  and  N3_20
REMARK    8  A    between atoms: N3_20  and  N4_22
ROOT
HETATM    1  C4  UNL     1      41.806 269.752 160.705  1.00  0.00     0.052 A
HETATM    2  C5  UNL     1      40.460 269.916 160.471  1.00  0.00     0.108 A
HETATM    3  C6  UNL     1      39.889 271.132 160.807  1.00  0.00     0.115 A
HETATM    4  C9  UNL     1      40.616 272.157 161.355  1.00  0.00     0.175 A
HETATM    5  N2  UNL     1      41.931 271.984 161.578  1.00  0.00    -0.283 N
HETATM    6  C14 UNL     1      42.489 270.810 161.256  1.00  0.00     0.259 A
HETATM    7  O7  UNL     1      43.722 270.663 161.471  1.00  0.00    -0.267 OA
ENDROOT
BRANCH   5   8
HETATM    8  C10 UNL     1      42.665 273.073 162.152  1.00  0.00     0.239 C
BRANCH   8   9
HETATM    9  C11 UNL     1      42.746 272.861 163.664  1.00  0.00     0.256 C
HETATM   10  O4  UNL     1      43.897 272.630 164.077  1.00  0.00    -0.270 OA
HETATM   11  N3  UNL     1      41.564 272.943 164.414  1.00  0.00    -0.243 N
ATOM     12  H3  UNL     1      40.709 273.144 163.895  1.00  0.00     0.192 HD
BRANCH  11  13
HETATM   13  N4  UNL     1      41.433 272.783 165.774  1.00  0.00    -0.135 N
HETATM   14  N5  UNL     1      40.583 273.513 166.540  1.00  0.00    -0.225 N
HETATM   15  C12 UNL     1      40.658 273.156 167.804  1.00  0.00     0.344 A
ATOM     16  H5  UNL     1      39.967 274.243 166.183  1.00  0.00     0.194 HD
HETATM   17  O5  UNL     1      39.989 273.648 168.784  1.00  0.00    -0.245 OA
HETATM   18  N6  UNL     1      41.557 272.180 167.920  1.00  0.00    -0.257 N
HETATM   19  C13 UNL     1      42.026 271.962 166.653  1.00  0.00     0.365 A
ATOM     20  H6  UNL     1      41.837 271.696 168.773  1.00  0.00     0.175 HD
HETATM   21  O6  UNL     1      42.908 271.076 166.436  1.00  0.00    -0.243 OA
ENDBRANCH  11  13
ENDBRANCH   8   9
ENDBRANCH   5   8
BRANCH   4  22
HETATM   22  O3  UNL     1      40.009 273.369 161.681  1.00  0.00    -0.344 OA
ATOM     23  H3  UNL     1      39.738 273.976 161.002  1.00  0.00     0.219 HD
ENDBRANCH   4  22
BRANCH   3  24
HETATM   24  N1  UNL     1      38.481 271.290 160.559  1.00  0.00    -0.384 N
HETATM   25  C7  UNL     1      37.585 271.079 161.666  1.00  0.00     0.149 C
HETATM   26  C8  UNL     1      37.955 271.646 159.261  1.00  0.00     0.149 C
ENDBRANCH   3  24
BRANCH   1  27
HETATM   27  C3  UNL     1      42.430 268.471 160.356  1.00  0.00     0.125 C
BRANCH  27  28
HETATM   28  C2  UNL     1      42.809 268.354 158.947  1.00  0.00     0.127 C
HETATM   29  C1  UNL     1      44.211 268.529 158.488  1.00  0.00     0.091 C
HETATM   30  O1  UNL     1      41.955 268.105 158.119  1.00  0.00    -0.298 OA
ENDBRANCH  27  28
ENDBRANCH   1  27
BRANCH   2  31
HETATM   31  O2  UNL     1      39.664 268.898 159.911  1.00  0.00    -0.358 OA
ATOM     32  H2  UNL     1      39.384 268.914 159.004  1.00  0.00     0.217 HD
ENDBRANCH   2  31
TORSDOF 8
ENDMDL