MODEL 4
REMARK VINA RESULT: -7.951885701      3.003      7.515
REMARK  8 active torsions:
REMARK  status: ('A' for Active; 'I' for Inactive)
REMARK    1  A    between atoms: C2_2  and  C3_3
REMARK    2  A    between atoms: N2_7  and  O2_8
REMARK    3  A    between atoms: C4_10  and  C5_11
REMARK    4  A    between atoms: C5_11  and  O3_12
REMARK    5  A    between atoms: C5_11  and  C6_14
REMARK    6  A    between atoms: C11_26  and  O4_27
REMARK    7  A    between atoms: O4_27  and  C12_28
REMARK    8  A    between atoms: C12_28  and  C13_29
REMARK       I    between atoms: C13_29  and  N7_31
REMARK       I    between atoms: N7_31  and  C14_33
ROOT
HETATM    1  C6  UNL     1      41.840 272.175 163.320  1.00  0.00     0.053 A
HETATM    2  C7  UNL     1      40.694 272.914 163.521  1.00  0.00     0.130 A
HETATM    3  N3  UNL     1      39.941 273.298 162.348  1.00  0.00    -0.082 NA
HETATM    4  N4  UNL     1      40.278 273.271 164.739  1.00  0.00    -0.329 N
ATOM      5  H4  UNL     1      39.423 273.817 164.849  1.00  0.00     0.168 HD
HETATM    6  C8  UNL     1      41.004 272.901 165.843  1.00  0.00     0.124 A
HETATM    7  N5  UNL     1      40.665 273.207 166.989  1.00  0.00    -0.384 N
ATOM      8  H51 UNL     1      41.205 272.932 167.810  1.00  0.00     0.157 HD
ATOM      9  H52 UNL     1      39.814 273.753 167.120  1.00  0.00     0.157 HD
HETATM   10  C9  UNL     1      42.178 272.146 165.663  1.00  0.00     0.122 A
HETATM   11  C10 UNL     1      42.970 271.734 166.787  1.00  0.00     0.106 C
HETATM   12  N6  UNL     1      43.617 271.419 167.683  1.00  0.00    -0.191 NA
HETATM   13  C11 UNL     1      42.589 271.788 164.409  1.00  0.00     0.106 A
ENDROOT
BRANCH  13  14
HETATM   14  O4  UNL     1      43.762 271.031 164.206  1.00  0.00    -0.340 OA
BRANCH  14  15
HETATM   15  C12 UNL     1      45.017 271.646 164.474  1.00  0.00     0.278 C
BRANCH  15  16
HETATM   16  C13 UNL     1      46.090 270.636 164.592  1.00  0.00     0.249 C
HETATM   17  O5  UNL     1      47.117 270.931 165.252  1.00  0.00    -0.271 OA
HETATM   18  N7  UNL     1      46.011 269.352 163.993  1.00  0.00    -0.280 N
HETATM   19  C14 UNL     1      47.070 268.401 164.127  1.00  0.00     0.335 C
ATOM     20  H7  UNL     1      45.180 269.103 163.456  1.00  0.00     0.173 HD
HETATM   21  N8  UNL     1      48.246 268.749 164.886  1.00  0.00    -0.040 NA
HETATM   22  O6  UNL     1      47.011 267.262 163.605  1.00  0.00    -0.251 OA
ENDBRANCH  15  16
ENDBRANCH  14  15
ENDBRANCH  13  14
BRANCH   1  23
HETATM   23  C5  UNL     1      42.274 271.783 161.949  1.00  0.00     0.214 C
BRANCH  23  24
HETATM   24  C4  UNL     1      41.647 270.516 161.519  1.00  0.00     0.129 A
HETATM   25  C3  UNL     1      40.510 270.349 160.764  1.00  0.00     0.086 A
HETATM   26  N1  UNL     1      40.389 268.986 160.641  1.00  0.00    -0.237 N
HETATM   27  O1  UNL     1      41.365 268.419 161.269  1.00  0.00    -0.128 OA
ATOM     28  H1  UNL     1      39.649 268.500 160.135  1.00  0.00     0.197 HD
HETATM   29  N2  UNL     1      42.154 269.280 161.816  1.00  0.00    -0.101 N
BRANCH  25  30
HETATM   30  C2  UNL     1      39.590 271.326 160.194  1.00  0.00     0.023 C
HETATM   31  C1  UNL     1      38.291 271.071 160.150  1.00  0.00     0.013 C
ENDBRANCH  25  30
BRANCH  29  32
HETATM   32  O2  UNL     1      43.284 269.005 162.556  1.00  0.00    -0.261 OA
ATOM     33  H2  UNL     1      43.857 268.254 162.456  1.00  0.00     0.247 HD
ENDBRANCH  29  32
ENDBRANCH  23  24
BRANCH  23  34
HETATM   34  O3  UNL     1      43.649 271.683 161.994  1.00  0.00    -0.384 OA
ATOM     35  H3  UNL     1      43.949 271.341 162.828  1.00  0.00     0.211 HD
ENDBRANCH  23  34
ENDBRANCH   1  23
TORSDOF 8
ENDMDL