MODEL 4
REMARK VINA RESULT: -7.512033175      2.768      3.997
REMARK  8 active torsions:
REMARK  status: ('A' for Active; 'I' for Inactive)
REMARK    1  A    between atoms: N1_2  and  N2_3
REMARK       I    between atoms: N2_3  and  C2_5
REMARK       I    between atoms: C2_5  and  N4_10
REMARK    2  A    between atoms: N3_6  and  O1_8
REMARK    3  A    between atoms: N4_10  and  C4_12
REMARK    4  A    between atoms: C6_17  and  C7_18
REMARK    5  A    between atoms: N6_19  and  N7_21
REMARK    6  A    between atoms: N7_21  and  N8_23
REMARK    7  A    between atoms: C8_26  and  O5_27
REMARK    8  A    between atoms: C12_31  and  O6_32
ROOT
HETATM    1  C4  UNL     1      42.610 271.881 162.810  1.00  0.00     0.158 C
HETATM    2  N5  UNL     1      41.371 272.414 162.736  1.00  0.00    -0.306 N
ATOM      3  H5  UNL     1      41.214 273.217 163.344  1.00  0.00     0.170 HD
HETATM    4  C5  UNL     1      40.296 272.050 161.979  1.00  0.00     0.261 C
HETATM    5  O2  UNL     1      39.275 272.765 162.153  1.00  0.00    -0.267 OA
HETATM    6  C6  UNL     1      40.206 271.015 161.072  1.00  0.00     0.083 C
HETATM    7  C8  UNL     1      41.214 270.263 160.483  1.00  0.00     0.094 C
HETATM    8  C10 UNL     1      42.517 270.192 160.944  1.00  0.00     0.010 C
HETATM    9  C11 UNL     1      43.452 269.332 160.171  1.00  0.00     0.054 C
HETATM   10  C12 UNL     1      43.074 270.829 162.053  1.00  0.00     0.121 C
ENDROOT
BRANCH   1  11
HETATM   11  N4  UNL     1      43.455 272.351 163.629  1.00  0.00    -0.171 N
HETATM   12  C2  UNL     1      44.444 273.315 163.411  1.00  0.00     0.715 C
HETATM   13  N2  UNL     1      45.798 272.895 163.444  1.00  0.00    -0.135 N
HETATM   14  N3  UNL     1      44.217 274.562 163.180  1.00  0.00    -0.096 N
ATOM     15  H2  UNL     1      46.448 273.305 162.773  1.00  0.00     0.201 HD
ATOM     16  H3  UNL     1      43.245 274.869 163.154  1.00  0.00     0.213 HD
ATOM     17  H4  UNL     1      43.407 271.975 164.575  1.00  0.00     0.186 HD
BRANCH  13  18
HETATM   18  N1  UNL     1      46.282 271.960 164.338  1.00  0.00    -0.131 NA
HETATM   19  C1  UNL     1      47.465 271.269 163.867  1.00  0.00     0.159 C
ENDBRANCH  13  18
BRANCH  14  20
HETATM   20  O1  UNL     1      45.169 275.492 162.970  1.00  0.00    -0.271 OA
HETATM   21  C3  UNL     1      45.177 276.362 161.859  1.00  0.00     0.238 C
ENDBRANCH  14  20
ENDBRANCH   1  11
BRANCH  10  22
HETATM   22  O6  UNL     1      44.299 270.339 162.484  1.00  0.00    -0.352 OA
HETATM   23  C13 UNL     1      44.286 269.102 163.183  1.00  0.00     0.210 C
ENDBRANCH  10  22
BRANCH   6  24
HETATM   24  C7  UNL     1      38.850 270.646 160.662  1.00  0.00     0.128 C
HETATM   25  N6  UNL     1      38.317 271.212 159.637  1.00  0.00    -0.292 N
ATOM     26  H6  UNL     1      38.843 271.914 159.118  1.00  0.00     0.187 HD
BRANCH  25  27
HETATM   27  N7  UNL     1      37.024 270.873 159.229  1.00  0.00    -0.183 N
ATOM     28  H7  UNL     1      36.824 269.911 158.955  1.00  0.00     0.214 HD
BRANCH  27  29
HETATM   29  N8  UNL     1      35.998 271.820 159.186  1.00  0.00    -0.024 N
HETATM   30  O3  UNL     1      35.189 271.860 160.149  1.00  0.00    -0.515 OA
HETATM   31  O4  UNL     1      35.871 272.678 158.133  1.00  0.00    -0.515 OA
ENDBRANCH  27  29
ENDBRANCH  25  27
ENDBRANCH   6  24
BRANCH   7  32
HETATM   32  O5  UNL     1      40.897 269.530 159.353  1.00  0.00    -0.354 OA
HETATM   33  C9  UNL     1      40.480 268.178 159.407  1.00  0.00     0.210 C
ENDBRANCH   7  32
TORSDOF 8
ENDMDL