MODEL 1
REMARK VINA RESULT: -8.096925131      0.000      0.000
REMARK  11 active torsions:
REMARK  status: ('A' for Active; 'I' for Inactive)
REMARK    1  A    between atoms: C2_2  and  O1_3
REMARK    2  A    between atoms: O1_3  and  C3_4
REMARK    3  A    between atoms: C3_4  and  C4_6
REMARK    4  A    between atoms: C4_6  and  N1_7
REMARK    5  A    between atoms: C4_6  and  C11_27
REMARK    6  A    between atoms: N1_7  and  N2_8
REMARK    7  A    between atoms: N2_8  and  C5_10
REMARK    8  A    between atoms: C5_10  and  O3_11
REMARK    9  A    between atoms: C5_10  and  C6_13
REMARK   10  A    between atoms: C7_14  and  O4_15
REMARK   11  A    between atoms: C9_19  and  N4_20
REMARK       I    between atoms: C11_27  and  N7_29
ROOT
HETATM    1  C5  UNL     1      41.932 270.098 161.754  1.00  0.00     0.170 C
ENDROOT
BRANCH   1   2
HETATM    2  N2  UNL     1      41.482 271.358 162.148  1.00  0.00    -0.282 N
ATOM      3  H2  UNL     1      41.876 272.198 161.724  1.00  0.00     0.184 HD
BRANCH   2   4
HETATM    4  N1  UNL     1      40.477 271.468 163.140  1.00  0.00    -0.114 NA
BRANCH   4   5
HETATM    5  C4  UNL     1      40.786 272.567 164.070  1.00  0.00     0.290 C
BRANCH   5   6
HETATM    6  C3  UNL     1      41.559 273.560 163.250  1.00  0.00     0.289 C
HETATM    7  O2  UNL     1      41.006 274.206 162.289  1.00  0.00    -0.263 OA
BRANCH   6   8
HETATM    8  O1  UNL     1      42.872 273.842 163.462  1.00  0.00    -0.320 OA
BRANCH   8   9
HETATM    9  C2  UNL     1      43.551 275.003 163.045  1.00  0.00     0.174 C
HETATM   10  C1  UNL     1      45.046 274.715 163.144  1.00  0.00     0.034 C
ENDBRANCH   8   9
ENDBRANCH   6   8
ENDBRANCH   5   6
BRANCH   5  11
HETATM   11  C11 UNL     1      41.559 272.067 165.219  1.00  0.00     0.250 C
HETATM   12  O5  UNL     1      42.444 271.190 164.998  1.00  0.00    -0.271 OA
HETATM   13  N7  UNL     1      41.366 272.508 166.542  1.00  0.00    -0.350 N
HETATM   14  C12 UNL     1      42.171 272.030 167.684  1.00  0.00     0.126 C
HETATM   15  C15 UNL     1      40.406 273.433 167.092  1.00  0.00     0.126 C
HETATM   16  C13 UNL     1      41.206 271.983 168.840  1.00  0.00     0.021 C
HETATM   17  C14 UNL     1      39.976 272.704 168.368  1.00  0.00     0.021 C
ENDBRANCH   5  11
ENDBRANCH   4   5
ENDBRANCH   2   4
ENDBRANCH   1   2
BRANCH   1  18
HETATM   18  O3  UNL     1      42.676 269.502 162.640  1.00  0.00    -0.345 OA
ATOM     19  H3  UNL     1      43.212 268.802 162.284  1.00  0.00     0.219 HD
ENDBRANCH   1  18
BRANCH   1  20
HETATM   20  C6  UNL     1      41.707 269.366 160.544  1.00  0.00     0.109 A
HETATM   21  C7  UNL     1      40.474 269.144 160.017  1.00  0.00     0.175 A
HETATM   22  N3  UNL     1      40.366 268.431 158.856  1.00  0.00    -0.170 N
HETATM   23  C9  UNL     1      41.414 267.932 158.198  1.00  0.00     0.679 A
ATOM     24  H3  UNL     1      39.434 268.272 158.472  1.00  0.00     0.186 HD
HETATM   25  N5  UNL     1      42.623 268.156 158.729  1.00  0.00    -0.178 N
HETATM   26  C10 UNL     1      42.827 268.846 159.866  1.00  0.00     0.150 A
ATOM     27  H5  UNL     1      43.438 267.783 158.243  1.00  0.00     0.185 HD
HETATM   28  N6  UNL     1      44.134 269.044 160.366  1.00  0.00    -0.081 NA
BRANCH  21  29
HETATM   29  O4  UNL     1      39.348 269.621 160.626  1.00  0.00    -0.340 OA
HETATM   30  C8  UNL     1      38.666 270.720 160.057  1.00  0.00     0.211 C
ENDBRANCH  21  29
BRANCH  23  31
HETATM   31  N4  UNL     1      41.286 267.266 157.111  1.00  0.00    -0.234 N
ATOM     32  H42 UNL     1      41.723 266.351 157.001  1.00  0.00     0.174 HD
ATOM     33  H41 UNL     1      40.748 267.616 156.318  1.00  0.00     0.174 HD
ENDBRANCH  23  31
ENDBRANCH   1  20
TORSDOF 11
ENDMDL