MODEL 4
REMARK VINA RESULT: -4.961662101      7.107      8.868
REMARK  5 active torsions:
REMARK  status: ('A' for Active; 'I' for Inactive)
REMARK    1  A    between atoms: C2_2  and  C3_3
REMARK    2  A    between atoms: C3_3  and  C6_6
REMARK    3  A    between atoms: C6_6  and  C7_8
REMARK    4  A    between atoms: C7_8  and  N1_9
REMARK    5  A    between atoms: N1_9  and  C8_11
ROOT
HETATM    1  C7  UNL     1     -25.780  -3.104 -32.429  1.00  0.00     0.257 C
HETATM    2  C9  UNL     1     -26.331  -2.833 -33.785  1.00  0.00     0.271 C
HETATM    3  O2  UNL     1     -25.906  -1.762 -34.338  1.00  0.00    -0.269 OA
HETATM    4  N3  UNL     1     -27.247  -3.659 -34.449  1.00  0.00    -0.276 N
ATOM      5  H3  UNL     1     -27.697  -3.336 -35.305  1.00  0.00     0.173 HD
HETATM    6  C10 UNL     1     -27.551  -4.944 -33.930  1.00  0.00     0.329 C
HETATM    7  O3  UNL     1     -28.376  -5.638 -34.563  1.00  0.00    -0.247 OA
HETATM    8  N4  UNL     1     -26.910  -5.361 -32.741  1.00  0.00    -0.276 N
ATOM      9  H4  UNL     1     -27.123  -6.284 -32.362  1.00  0.00     0.173 HD
HETATM   10  C11 UNL     1     -25.974  -4.530 -32.051  1.00  0.00     0.271 C
HETATM   11  O4  UNL     1     -25.333  -5.078 -31.119  1.00  0.00    -0.269 OA
ENDROOT
BRANCH   1  12
HETATM   12  C6  UNL     1     -26.383  -2.139 -31.498  1.00  0.00     0.185 C
HETATM   13  O1  UNL     1     -27.609  -2.289 -31.306  1.00  0.00    -0.293 OA
BRANCH  12  14
HETATM   14  C3  UNL     1     -25.757  -1.042 -30.773  1.00  0.00     0.034 C
HETATM   15  C4  UNL     1     -24.904  -0.142 -31.655  1.00  0.00     0.027 C
HETATM   16  C5  UNL     1     -26.841  -0.092 -30.227  1.00  0.00     0.027 C
BRANCH  14  17
HETATM   17  C2  UNL     1     -25.006  -1.460 -29.554  1.00  0.00    -0.020 C
HETATM   18  C1  UNL     1     -25.068  -0.776 -28.427  1.00  0.00     0.008 C
ENDBRANCH  14  17
ENDBRANCH  12  14
ENDBRANCH   1  12
BRANCH   1  19
HETATM   19  N1  UNL     1     -24.333  -2.843 -32.548  1.00  0.00    -0.338 N
ATOM     20  H1  UNL     1     -23.917  -2.189 -31.886  1.00  0.00     0.163 HD
BRANCH  19  21
HETATM   21  C8  UNL     1     -23.491  -3.421 -33.498  1.00  0.00     0.182 C
HETATM   22  N2  UNL     1     -23.653  -4.716 -34.043  1.00  0.00    -0.070 NA
HETATM   23  S1  UNL     1     -22.206  -2.532 -34.035  1.00  0.00    -0.044 SA
ENDBRANCH  19  21
ENDBRANCH   1  19
TORSDOF 5
ENDMDL