MODEL 3
REMARK VINA RESULT: -6.626400256      2.697      6.778
REMARK  8 active torsions:
REMARK  status: ('A' for Active; 'I' for Inactive)
REMARK    1  A    between atoms: C2_2  and  O1_3
REMARK    2  A    between atoms: O1_3  and  C3_4
REMARK       I    between atoms: C3_4  and  N1_6
REMARK    3  A    between atoms: N1_6  and  C4_8
REMARK    4  A    between atoms: C4_8  and  C6_10
REMARK    5  A    between atoms: C6_10  and  C7_11
REMARK       I    between atoms: C7_11  and  N2_13
REMARK    6  A    between atoms: N2_13  and  N3_14
REMARK    7  A    between atoms: N3_14  and  C8_16
REMARK    8  A    between atoms: C8_16  and  N4_18
REMARK       I    between atoms: N4_18  and  C9_20
ROOT
HETATM    1  C7  UNL     1     -24.843  -2.035 -25.742  1.00  0.00     0.314 C
HETATM    2  O3  UNL     1     -25.672  -2.796 -25.092  1.00  0.00    -0.255 OA
HETATM    3  N2  UNL     1     -24.930  -1.651 -26.986  1.00  0.00    -0.285 NA
ENDROOT
BRANCH   1   4
HETATM    4  C6  UNL     1     -23.634  -1.554 -24.923  1.00  0.00     0.146 C
BRANCH   4   5
HETATM    5  C4  UNL     1     -23.982  -1.341 -23.498  1.00  0.00     0.092 C
HETATM    6  C5  UNL     1     -23.373  -2.437 -22.613  1.00  0.00     0.032 C
BRANCH   5   7
HETATM    7  N1  UNL     1     -23.605  -0.029 -23.016  1.00  0.00    -0.332 N
HETATM    8  C3  UNL     1     -22.299   0.488 -22.954  1.00  0.00     0.360 C
HETATM    9  O2  UNL     1     -21.282  -0.110 -23.314  1.00  0.00    -0.239 OA
ATOM     10  H1  UNL     1     -24.358   0.577 -22.689  1.00  0.00     0.165 HD
BRANCH   8  11
HETATM   11  O1  UNL     1     -22.153   1.778 -22.446  1.00  0.00    -0.304 OA
BRANCH  11  12
HETATM   12  C2  UNL     1     -23.168   2.625 -21.996  1.00  0.00     0.176 C
HETATM   13  C1  UNL     1     -22.758   4.050 -22.393  1.00  0.00     0.034 C
ENDBRANCH  11  12
ENDBRANCH   8  11
ENDBRANCH   5   7
ENDBRANCH   4   5
ENDBRANCH   1   4
BRANCH   3  14
HETATM   14  N3  UNL     1     -25.028  -1.248 -28.303  1.00  0.00    -0.205 N
ATOM     15  H3  UNL     1     -24.289  -1.454 -28.975  1.00  0.00     0.204 HD
BRANCH  14  16
HETATM   16  C8  UNL     1     -26.200  -0.536 -28.687  1.00  0.00     0.203 C
HETATM   17  S1  UNL     1     -27.107   0.186 -27.570  1.00  0.00    -0.038 SA
BRANCH  16  18
HETATM   18  N4  UNL     1     -26.586  -0.468 -30.076  1.00  0.00    -0.302 N
HETATM   19  C9  UNL     1     -25.629  -0.243 -31.077  1.00  0.00     0.219 C
HETATM   20  C10 UNL     1     -26.101  -0.195 -32.499  1.00  0.00     0.117 C
HETATM   21  O4  UNL     1     -24.419  -0.087 -30.843  1.00  0.00    -0.274 OA
ATOM     22  H4  UNL     1     -27.566  -0.585 -30.333  1.00  0.00     0.171 HD
ENDBRANCH  16  18
ENDBRANCH  14  16
ENDBRANCH   3  14
TORSDOF 8
ENDMDL