MODEL 4
REMARK VINA RESULT: -4.969874539      2.275      4.737
REMARK  4 active torsions:
REMARK  status: ('A' for Active; 'I' for Inactive)
REMARK    1  A    between atoms: C2_2  and  C3_3
REMARK    2  A    between atoms: C2_2  and  N5_19
REMARK    3  A    between atoms: C3_3  and  C4_4
REMARK    4  A    between atoms: C3_3  and  N4_13
REMARK       I    between atoms: C4_4  and  N1_6
REMARK       I    between atoms: N1_6  and  C5_8
ROOT
HETATM    1  C3  UNL     1     -24.868  -2.057 -32.043  1.00  0.00     0.096 C
ENDROOT
BRANCH   1   2
HETATM    2  C2  UNL     1     -25.425  -1.068 -31.072  1.00  0.00     0.011 C
HETATM    3  C1  UNL     1     -26.311  -0.122 -31.858  1.00  0.00     0.064 C
BRANCH   2   4
HETATM    4  N5  UNL     1     -25.877  -1.487 -29.797  1.00  0.00    -0.276 NA
HETATM    5  C11 UNL     1     -26.841  -0.422 -29.382  1.00  0.00     0.106 C
HETATM    6  C12 UNL     1     -27.272  -0.770 -27.976  1.00  0.00     0.090 C
HETATM    7  S1  UNL     1     -25.651  -1.269 -27.280  1.00  0.00    -0.153 SA
HETATM    8  C13 UNL     1     -24.741  -1.084 -28.875  1.00  0.00     0.169 C
ENDBRANCH   2   4
ENDBRANCH   1   2
BRANCH   1   9
HETATM    9  C4  UNL     1     -25.985  -2.906 -32.511  1.00  0.00     0.270 C
HETATM   10  O1  UNL     1     -26.443  -2.698 -33.661  1.00  0.00    -0.266 OA
HETATM   11  N1  UNL     1     -26.577  -3.946 -31.762  1.00  0.00    -0.296 N
HETATM   12  C5  UNL     1     -27.632  -4.714 -32.280  1.00  0.00     0.188 C
ATOM     13  H1  UNL     1     -26.231  -4.143 -30.823  1.00  0.00     0.171 HD
HETATM   14  N2  UNL     1     -28.189  -5.676 -31.605  1.00  0.00    -0.373 N
HETATM   15  N3  UNL     1     -28.123  -4.452 -33.584  1.00  0.00    -0.064 NA
ATOM     16  H22 UNL     1     -27.836  -5.864 -30.667  1.00  0.00     0.158 HD
ATOM     17  H21 UNL     1     -28.955  -6.234 -31.982  1.00  0.00     0.158 HD
ENDBRANCH   1   9
BRANCH   1  18
HETATM   18  N4  UNL     1     -23.865  -1.793 -32.948  1.00  0.00    -0.278 NA
HETATM   19  C6  UNL     1     -22.825  -0.864 -32.427  1.00  0.00     0.096 C
HETATM   20  C7  UNL     1     -21.529  -1.076 -33.176  1.00  0.00     0.015 C
HETATM   21  C8  UNL     1     -21.711  -1.628 -34.564  1.00  0.00     0.002 C
HETATM   22  C9  UNL     1     -22.461  -2.947 -34.511  1.00  0.00     0.015 C
HETATM   23  C10 UNL     1     -23.060  -3.030 -33.136  1.00  0.00     0.096 C
ENDBRANCH   1  18
TORSDOF 4
ENDMDL