MODEL 1
REMARK VINA RESULT: -7.843406700      0.000      0.000
REMARK  9 active torsions:
REMARK  status: ('A' for Active; 'I' for Inactive)
REMARK    1  A    between atoms: C2_2  and  N1_3
REMARK    2  A    between atoms: C2_2  and  C8_22
REMARK    3  A    between atoms: N1_3  and  C3_5
REMARK    4  A    between atoms: C3_5  and  N2_7
REMARK    5  A    between atoms: N2_7  and  N3_9
REMARK       I    between atoms: N3_9  and  C4_11
REMARK    6  A    between atoms: C4_11  and  C5_13
REMARK    7  A    between atoms: C5_13  and  N4_14
REMARK    8  A    between atoms: C5_13  and  C6_18
REMARK    9  A    between atoms: C6_18  and  O3_20
ROOT
HETATM    1  N2  UNL     1     -23.851  -1.344 -25.923  1.00  0.00    -0.273 N
ATOM      2  H2  UNL     1     -23.199  -1.712 -26.616  1.00  0.00     0.189 HD
ENDROOT
BRANCH   1   3
HETATM    3  C3  UNL     1     -25.163  -1.879 -25.846  1.00  0.00     0.191 C
HETATM    4  S1  UNL     1     -25.695  -2.506 -24.436  1.00  0.00    -0.039 SA
BRANCH   3   5
HETATM    5  N1  UNL     1     -26.020  -1.879 -26.974  1.00  0.00    -0.332 N
ATOM      6  H1  UNL     1     -26.451  -2.736 -27.320  1.00  0.00     0.168 HD
BRANCH   5   7
HETATM    7  C2  UNL     1     -26.252  -0.601 -27.608  1.00  0.00     0.035 C
HETATM    8  C1  UNL     1     -26.720   0.356 -26.836  1.00  0.00     0.044 C
BRANCH   7   9
HETATM    9  C8  UNL     1     -25.968  -0.455 -29.021  1.00  0.00    -0.010 A
HETATM   10  C9  UNL     1     -24.690  -0.337 -29.477  1.00  0.00     0.013 A
HETATM   11  C10 UNL     1     -24.437  -0.197 -30.846  1.00  0.00     0.001 A
HETATM   12  C11 UNL     1     -25.486  -0.176 -31.755  1.00  0.00     0.000 A
HETATM   13  C12 UNL     1     -26.771  -0.296 -31.291  1.00  0.00     0.001 A
HETATM   14  C13 UNL     1     -26.990  -0.433 -29.933  1.00  0.00     0.013 A
ENDBRANCH   7   9
ENDBRANCH   5   7
ENDBRANCH   3   5
ENDBRANCH   1   3
BRANCH   1  15
HETATM   15  N3  UNL     1     -23.440  -0.330 -25.071  1.00  0.00    -0.266 N
HETATM   16  C4  UNL     1     -22.631  -0.638 -23.956  1.00  0.00     0.276 C
HETATM   17  O1  UNL     1     -22.272  -1.816 -23.716  1.00  0.00    -0.269 OA
ATOM     18  H3  UNL     1     -23.722   0.634 -25.249  1.00  0.00     0.190 HD
BRANCH  16  19
HETATM   19  C5  UNL     1     -22.203   0.458 -23.058  1.00  0.00     0.374 C
BRANCH  19  20
HETATM   20  N4  UNL     1     -21.249   1.329 -23.695  1.00  0.00    -0.057 N
ATOM     21  H43 UNL     1     -21.586   1.645 -24.605  1.00  0.00     0.275 HD
ATOM     22  H42 UNL     1     -21.197   2.231 -23.222  1.00  0.00     0.275 HD
ATOM     23  H41 UNL     1     -20.329   0.895 -23.770  1.00  0.00     0.275 HD
ENDBRANCH  19  20
BRANCH  19  24
HETATM   24  C6  UNL     1     -23.408   1.203 -22.599  1.00  0.00     0.298 C
HETATM   25  O2  UNL     1     -24.505   0.595 -22.615  1.00  0.00    -0.262 OA
BRANCH  24  26
HETATM   26  O3  UNL     1     -23.384   2.497 -22.167  1.00  0.00    -0.324 OA
HETATM   27  C7  UNL     1     -24.441   3.143 -21.499  1.00  0.00     0.213 C
ENDBRANCH  24  26
ENDBRANCH  19  24
ENDBRANCH  16  19
ENDBRANCH   1  15
TORSDOF 9
ENDMDL