MODEL 1
REMARK VINA RESULT: -7.992705692      0.000      0.000
REMARK  6 active torsions:
REMARK  status: ('A' for Active; 'I' for Inactive)
REMARK    1  A    between atoms: C1_2  and  C2_4
REMARK       I    between atoms: N1_8  and  C6_9
REMARK    2  A    between atoms: C6_9  and  C7_11
REMARK    3  A    between atoms: C8_12  and  C9_13
REMARK    4  A    between atoms: C10_16  and  C11_17
REMARK    5  A    between atoms: C11_17  and  O6_18
REMARK    6  A    between atoms: N2_20  and  O7_22
ROOT
HETATM    1  C7  UNL     1     -24.075   0.972 -23.249  1.00  0.00     0.106 A
HETATM    2  C8  UNL     1     -22.594   1.187 -23.584  1.00  0.00     0.113 A
HETATM    3  C10 UNL     1     -23.169   1.481 -22.243  1.00  0.00     0.091 A
ENDROOT
BRANCH   1   4
HETATM    4  C6  UNL     1     -24.580  -0.415 -23.342  1.00  0.00     0.225 C
HETATM    5  N1  UNL     1     -25.206  -1.030 -24.438  1.00  0.00    -0.351 N
HETATM    6  C5  UNL     1     -25.708  -2.403 -24.240  1.00  0.00     0.126 C
HETATM    7  C12 UNL     1     -25.368  -0.533 -25.777  1.00  0.00     0.141 C
HETATM    8  C4  UNL     1     -24.914  -3.371 -25.054  1.00  0.00     0.021 C
HETATM    9  C3  UNL     1     -24.770  -2.872 -26.455  1.00  0.00     0.019 C
HETATM   10  C2  UNL     1     -25.583  -1.663 -26.771  1.00  0.00     0.105 C
HETATM   11  O3  UNL     1     -24.389  -1.105 -22.260  1.00  0.00    -0.273 OA
BRANCH  10  12
HETATM   12  C1  UNL     1     -25.161  -1.156 -28.103  1.00  0.00     0.178 C
HETATM   13  O1  UNL     1     -25.247  -1.862 -29.140  1.00  0.00    -0.648 OA
HETATM   14  O2  UNL     1     -24.648   0.130 -28.275  1.00  0.00    -0.648 OA
ENDBRANCH  10  12
ENDBRANCH   1   4
BRANCH   2  15
HETATM   15  C9  UNL     1     -21.657   0.109 -23.770  1.00  0.00     0.178 C
HETATM   16  O4  UNL     1     -20.391   0.255 -23.594  1.00  0.00    -0.648 OA
HETATM   17  O5  UNL     1     -22.032  -1.161 -24.150  1.00  0.00    -0.648 OA
ENDBRANCH   2  15
BRANCH   3  18
HETATM   18  C11 UNL     1     -23.255   2.947 -21.914  1.00  0.00     0.141 C
HETATM   19  N2  UNL     1     -22.521   3.797 -22.529  1.00  0.00    -0.251 N
ATOM     20  H2  UNL     1     -21.882   3.447 -23.242  1.00  0.00     0.196 HD
BRANCH  18  21
HETATM   21  O6  UNL     1     -24.132   3.345 -20.947  1.00  0.00    -0.348 OA
ATOM     22  H6  UNL     1     -24.071   4.235 -20.621  1.00  0.00     0.219 HD
ENDBRANCH  18  21
BRANCH  19  23
HETATM   23  O7  UNL     1     -22.538   5.138 -22.291  1.00  0.00    -0.288 OA
ATOM     24  H7  UNL     1     -22.129   5.786 -22.854  1.00  0.00     0.244 HD
ENDBRANCH  19  23
ENDBRANCH   3  18
TORSDOF 6
ENDMDL