MODEL 3
REMARK VINA RESULT: -3.507972978      2.123      2.397
REMARK  9 active torsions:
REMARK  status: ('A' for Active; 'I' for Inactive)
REMARK       I    between atoms: N1_2  and  C2_4
REMARK    1  A    between atoms: C2_4  and  C3_6
REMARK    2  A    between atoms: C6_9  and  N2_10
REMARK    3  A    between atoms: C6_9  and  C7_16
REMARK    4  A    between atoms: N2_10  and  N3_12
REMARK    5  A    between atoms: N3_12  and  N4_13
REMARK    6  A    between atoms: C7_16  and  O2_17
REMARK    7  A    between atoms: C7_16  and  C8_19
REMARK    8  A    between atoms: C8_19  and  O3_20
REMARK    9  A    between atoms: C9_22  and  O4_24
ROOT
HETATM    1  C3  UNL     1     -26.567  -4.715 -32.827  1.00  0.00     0.264 C
HETATM    2  C4  UNL     1     -25.629  -4.856 -34.033  1.00  0.00     0.067 C
HETATM    3  C5  UNL     1     -26.039  -5.603 -31.697  1.00  0.00     0.101 C
HETATM    4  C6  UNL     1     -26.842  -6.873 -31.849  1.00  0.00     0.156 C
HETATM    5  C9  UNL     1     -28.161  -6.348 -32.365  1.00  0.00     0.311 C
HETATM    6  C10 UNL     1     -28.861  -7.408 -33.192  1.00  0.00     0.092 C
HETATM    7  N5  UNL     1     -27.887  -5.146 -33.123  1.00  0.00     0.063 N
HETATM    8  C11 UNL     1     -28.083  -5.384 -34.564  1.00  0.00     0.362 C
HETATM    9  O5  UNL     1     -28.863  -4.257 -32.799  1.00  0.00    -0.060 OA
ENDROOT
BRANCH   4  10
HETATM   10  N2  UNL     1     -26.251  -7.762 -32.836  1.00  0.00    -0.234 N
ATOM     11  H2  UNL     1     -26.865  -8.261 -33.478  1.00  0.00     0.198 HD
BRANCH  10  12
HETATM   12  N3  UNL     1     -25.049  -7.931 -32.921  1.00  0.00    -0.247 NA
BRANCH  12  13
HETATM   13  N4  UNL     1     -23.842  -8.040 -32.901  1.00  0.00    -0.261 N
ATOM     14  H42 UNL     1     -23.977  -8.099 -33.910  1.00  0.00     0.193 HD
ATOM     15  H41 UNL     1     -22.832  -8.124 -32.781  1.00  0.00     0.193 HD
ENDBRANCH  12  13
ENDBRANCH  10  12
ENDBRANCH   4  10
BRANCH   4  16
HETATM   16  C7  UNL     1     -27.075  -7.558 -30.543  1.00  0.00     0.178 C
BRANCH  16  17
HETATM   17  O2  UNL     1     -26.205  -7.180 -29.541  1.00  0.00    -0.391 OA
ATOM     18  H2  UNL     1     -26.439  -7.501 -28.678  1.00  0.00     0.210 HD
ENDBRANCH  16  17
BRANCH  16  19
HETATM   19  C8  UNL     1     -27.038  -9.064 -30.631  1.00  0.00     0.198 C
BRANCH  19  20
HETATM   20  O3  UNL     1     -25.725  -9.537 -30.664  1.00  0.00    -0.398 OA
ATOM     21  H3  UNL     1     -25.358  -9.471 -31.537  1.00  0.00     0.209 HD
ENDBRANCH  19  20
ENDBRANCH  16  19
ENDBRANCH   4  16
BRANCH   5  22
HETATM   22  O4  UNL     1     -29.004  -6.063 -31.298  1.00  0.00    -0.356 OA
ATOM     23  H4  UNL     1     -28.541  -5.543 -30.652  1.00  0.00     0.213 HD
ENDBRANCH   5  22
BRANCH   1  24
HETATM   24  C2  UNL     1     -26.454  -3.279 -32.428  1.00  0.00     0.262 C
HETATM   25  N1  UNL     1     -26.820  -2.926 -31.078  1.00  0.00    -0.363 N
HETATM   26  C1  UNL     1     -26.747  -1.577 -30.595  1.00  0.00     0.149 C
ATOM     27  H1  UNL     1     -27.140  -3.660 -30.446  1.00  0.00     0.162 HD
HETATM   28  O1  UNL     1     -26.070  -2.357 -33.158  1.00  0.00    -0.270 OA
ENDBRANCH   1  24
TORSDOF 9
ENDMDL