MODEL 5
REMARK VINA RESULT: -7.050077149      1.262      1.327
REMARK  4 active torsions:
REMARK  status: ('A' for Active; 'I' for Inactive)
REMARK       I    between atoms: C2_2  and  N1_4
REMARK    1  A    between atoms: N1_4  and  N2_6
REMARK    2  A    between atoms: N2_6  and  S1_8
REMARK    3  A    between atoms: S1_8  and  C3_11
REMARK    4  A    between atoms: C6_14  and  N3_15
REMARK       I    between atoms: N3_15  and  C7_17
REMARK       I    between atoms: C7_17  and  N4_19
ROOT
HETATM    1  N3  UNL     1     -25.198  -1.151 -29.059  1.00  0.00    -0.296 N
ATOM      2  H3  UNL     1     -24.477  -1.559 -29.654  1.00  0.00     0.172 HD
HETATM    3  C7  UNL     1     -26.303  -0.588 -29.662  1.00  0.00     0.408 C
HETATM    4  O4  UNL     1     -27.268  -0.103 -29.189  1.00  0.00    -0.229 OA
HETATM    5  N4  UNL     1     -26.172  -0.654 -31.227  1.00  0.00    -0.272 NA
HETATM    6  C8  UNL     1     -26.083  -0.700 -32.300  1.00  0.00     0.273 C
HETATM    7  N5  UNL     1     -25.951  -0.766 -33.490  1.00  0.00    -0.156 NA
ENDROOT
BRANCH   1   8
HETATM    8  C6  UNL     1     -25.009  -1.193 -27.639  1.00  0.00     0.037 A
HETATM    9  C5  UNL     1     -24.520  -0.147 -26.918  1.00  0.00     0.031 A
HETATM   10  C4  UNL     1     -24.317  -0.197 -25.540  1.00  0.00     0.027 A
HETATM   11  C3  UNL     1     -24.633  -1.363 -24.908  1.00  0.00     0.081 A
HETATM   12  C10 UNL     1     -25.133  -2.436 -25.602  1.00  0.00     0.027 A
HETATM   13  C9  UNL     1     -25.324  -2.364 -26.973  1.00  0.00     0.031 A
BRANCH  11  14
HETATM   14  S1  UNL     1     -24.244  -1.520 -23.185  1.00  0.00     0.276 S
HETATM   15  O2  UNL     1     -24.946  -2.785 -22.699  1.00  0.00    -0.199 OA
HETATM   16  O3  UNL     1     -24.885  -0.379 -22.437  1.00  0.00    -0.199 OA
BRANCH  14  17
HETATM   17  N2  UNL     1     -22.579  -1.671 -22.951  1.00  0.00    -0.220 N
ATOM     18  H2  UNL     1     -22.145  -2.403 -22.390  1.00  0.00     0.200 HD
BRANCH  17  19
HETATM   19  N1  UNL     1     -21.867  -0.672 -23.620  1.00  0.00    -0.261 N
HETATM   20  C2  UNL     1     -21.744   0.602 -23.072  1.00  0.00     0.232 C
HETATM   21  C1  UNL     1     -20.992   1.649 -23.787  1.00  0.00     0.119 C
HETATM   22  O1  UNL     1     -22.265   0.884 -21.978  1.00  0.00    -0.272 OA
ATOM     23  H1  UNL     1     -21.432  -0.878 -24.519  1.00  0.00     0.190 HD
ENDBRANCH  17  19
ENDBRANCH  14  17
ENDBRANCH  11  14
ENDBRANCH   1   8
TORSDOF 4
ENDMDL