MODEL 3
REMARK VINA RESULT: -9.622972752      1.868      2.300
REMARK  10 active torsions:
REMARK  status: ('A' for Active; 'I' for Inactive)
REMARK    1  A    between atoms: C2_2  and  N1_3
REMARK    2  A    between atoms: C2_2  and  C10_18
REMARK       I    between atoms: N1_3  and  C3_5
REMARK    3  A    between atoms: C3_5  and  C4_7
REMARK    4  A    between atoms: C4_7  and  N2_8
REMARK       I    between atoms: N2_8  and  C5_10
REMARK    5  A    between atoms: C5_10  and  C6_12
REMARK    6  A    between atoms: C8_14  and  C9_16
REMARK    7  A    between atoms: C13_21  and  O3_22
REMARK    8  A    between atoms: O3_22  and  C14_23
REMARK    9  A    between atoms: N3_26  and  C17_27
REMARK   10  A    between atoms: C24_39  and  C25_40
ROOT
HETATM    1  C10 UNL     1      -5.620  25.399  13.334  1.00  0.00    -0.027 A
HETATM    2  C11 UNL     1      -5.552  26.793  13.399  1.00  0.00     0.012 A
HETATM    3  C12 UNL     1      -4.335  27.457  13.521  1.00  0.00     0.037 A
HETATM    4  C13 UNL     1      -3.138  26.781  13.585  1.00  0.00     0.070 A
HETATM    5  C23 UNL     1      -3.219  25.405  13.520  1.00  0.00     0.047 A
HETATM    6  C24 UNL     1      -4.423  24.731  13.399  1.00  0.00    -0.019 A
ENDROOT
BRANCH   1   7
HETATM    7  C2  UNL     1      -6.928  24.734  13.219  1.00  0.00     0.114 C
HETATM    8  C1  UNL     1      -7.625  25.196  11.910  1.00  0.00     0.037 C
BRANCH   7   9
HETATM    9  N1  UNL     1      -7.862  25.112  14.287  1.00  0.00    -0.351 N
HETATM   10  C3  UNL     1      -7.906  24.408  15.509  1.00  0.00     0.235 C
HETATM   11  O1  UNL     1      -7.131  23.444  15.679  1.00  0.00    -0.272 OA
ATOM     12  H1  UNL     1      -8.492  25.900  14.142  1.00  0.00     0.163 HD
BRANCH  10  13
HETATM   13  C4  UNL     1      -8.848  24.805  16.561  1.00  0.00     0.225 C
BRANCH  13  14
HETATM   14  N2  UNL     1     -10.156  25.016  16.024  1.00  0.00    -0.352 N
HETATM   15  C5  UNL     1     -11.162  24.041  16.139  1.00  0.00     0.224 C
HETATM   16  O2  UNL     1     -10.954  22.963  16.720  1.00  0.00    -0.273 OA
ATOM     17  H2  UNL     1     -10.363  25.893  15.546  1.00  0.00     0.162 HD
BRANCH  15  18
HETATM   18  C6  UNL     1     -12.497  24.297  15.561  1.00  0.00     0.105 A
HETATM   19  C7  UNL     1     -13.443  23.100  15.722  1.00  0.00     0.045 A
HETATM   20  C8  UNL     1     -12.988  23.552  14.372  1.00  0.00     0.076 A
HETATM   21 CL1  UNL     1     -11.890  22.502  13.470  1.00  0.00    -0.116 Cl
BRANCH  20  22
HETATM   22  C9  UNL     1     -14.065  24.291  13.571  1.00  0.00     0.248 C
HETATM   23  F1  UNL     1     -13.891  24.089  12.206  1.00  0.00    -0.253 F
ENDBRANCH  20  22
ENDBRANCH  15  18
ENDBRANCH  13  14
ENDBRANCH  10  13
ENDBRANCH   7   9
ENDBRANCH   1   7
BRANCH   6  24
HETATM   24  C25 UNL     1      -4.431  23.225  13.331  1.00  0.00     0.261 C
HETATM   25  F3  UNL     1      -4.247  22.724  14.584  1.00  0.00    -0.251 F
ENDBRANCH   6  24
BRANCH   4  26
HETATM   26  O3  UNL     1      -1.904  27.414  13.708  1.00  0.00    -0.344 OA
BRANCH  26  27
HETATM   27  C14 UNL     1      -0.802  26.997  14.418  1.00  0.00     0.148 C
HETATM   28  C15 UNL     1      -1.056  26.931  15.925  1.00  0.00     0.054 C
HETATM   29  C16 UNL     1       0.145  26.128  16.358  1.00  0.00     0.126 C
HETATM   30  N3  UNL     1       0.332  25.132  15.337  1.00  0.00    -0.374 N
HETATM   31  C22 UNL     1      -0.414  25.534  14.166  1.00  0.00     0.155 C
BRANCH  30  32
HETATM   32  C17 UNL     1       1.170  23.965  15.444  1.00  0.00     0.096 A
HETATM   33  C18 UNL     1       2.537  24.108  15.456  1.00  0.00     0.160 A
HETATM   34  F2  UNL     1       3.146  25.306  15.305  1.00  0.00    -0.202 F
HETATM   35  C19 UNL     1       3.303  22.949  15.605  1.00  0.00     0.134 A
HETATM   36  N4  UNL     1       2.771  21.729  15.735  1.00  0.00    -0.352 N
HETATM   37  C20 UNL     1       1.441  21.559  15.727  1.00  0.00     0.127 A
ATOM     38  H4  UNL     1       3.382  20.919  15.841  1.00  0.00     0.166 HD
HETATM   39 CL2  UNL     1       0.720  19.978  15.894  1.00  0.00    -0.063 Cl
HETATM   40  C21 UNL     1       0.634  22.693  15.580  1.00  0.00     0.102 A
HETATM   41 CL3  UNL     1      -1.081  22.404  15.603  1.00  0.00    -0.078 Cl
ENDBRANCH  30  32
ENDBRANCH  26  27
ENDBRANCH   4  26
TORSDOF 10
ENDMDL