MODEL 2
REMARK VINA RESULT: -10.088918131      3.027      5.089
REMARK  10 active torsions:
REMARK  status: ('A' for Active; 'I' for Inactive)
REMARK    1  A    between atoms: C6_9  and  O1_10
REMARK    2  A    between atoms: O1_10  and  C7_11
REMARK    3  A    between atoms: C7_11  and  C8_12
REMARK    4  A    between atoms: C7_11  and  C24_35
REMARK    5  A    between atoms: C8_12  and  C9_13
REMARK    6  A    between atoms: C9_13  and  N1_14
REMARK       I    between atoms: N1_14  and  C10_16
REMARK    7  A    between atoms: C10_16  and  C11_18
REMARK    8  A    between atoms: C11_18  and  C13_20
REMARK    9  A    between atoms: C16_24  and  N2_25
REMARK       I    between atoms: C24_35  and  N4_37
REMARK   10  A    between atoms: N4_37  and  C25_39
ROOT
HETATM    1  C9  UNL     1      -2.309  27.285  15.619  1.00  0.00     0.125 C
ENDROOT
BRANCH   1   2
HETATM    2  C8  UNL     1      -1.429  26.416  14.775  1.00  0.00     0.062 C
BRANCH   2   3
HETATM    3  C7  UNL     1      -1.876  25.015  14.579  1.00  0.00     0.222 C
BRANCH   3   4
HETATM    4  O1  UNL     1      -2.271  24.688  13.309  1.00  0.00    -0.331 OA
BRANCH   4   5
HETATM    5  C6  UNL     1      -1.858  25.132  12.077  1.00  0.00     0.134 A
HETATM    6  C5  UNL     1      -0.623  24.787  11.598  1.00  0.00     0.193 A
HETATM    7  C4  UNL     1      -0.250  25.247  10.331  1.00  0.00     0.196 A
HETATM    8  F3  UNL     1       0.317  24.077  12.326  1.00  0.00    -0.200 F
HETATM    9  C3  UNL     1      -1.097  26.031   9.577  1.00  0.00     0.165 A
HETATM   10  F2  UNL     1       0.985  24.888   9.856  1.00  0.00    -0.199 F
HETATM   11  C2  UNL     1      -2.345  26.376  10.077  1.00  0.00     0.004 A
HETATM   12  F1  UNL     1      -0.744  26.481   8.347  1.00  0.00    -0.202 F
HETATM   13  C1  UNL     1      -3.273  27.231   9.252  1.00  0.00     0.053 C
HETATM   14  C28 UNL     1      -2.706  25.926  11.311  1.00  0.00     0.079 A
HETATM   15 CL1  UNL     1      -4.310  26.366  11.940  1.00  0.00    -0.081 Cl
ENDBRANCH   4   5
ENDBRANCH   3   4
BRANCH   3  16
HETATM   16  C24 UNL     1      -0.944  24.065  15.273  1.00  0.00     0.247 C
HETATM   17  O3  UNL     1      -1.255  22.903  15.619  1.00  0.00    -0.271 OA
HETATM   18  N4  UNL     1       0.409  24.422  15.601  1.00  0.00    -0.354 N
ATOM     19  H4  UNL     1       0.748  25.352  15.355  1.00  0.00     0.162 HD
BRANCH  18  20
HETATM   20  C25 UNL     1       1.300  23.509  16.265  1.00  0.00     0.084 A
HETATM   21  C26 UNL     1       2.772  23.928  16.285  1.00  0.00     0.027 A
HETATM   22  C27 UNL     1       2.339  22.762  15.515  1.00  0.00     0.027 A
ENDBRANCH  18  20
ENDBRANCH   3  16
ENDBRANCH   2   3
ENDBRANCH   1   2
BRANCH   1  23
HETATM   23  N1  UNL     1      -3.464  27.814  14.971  1.00  0.00    -0.360 N
HETATM   24  C10 UNL     1      -4.451  28.477  15.777  1.00  0.00     0.226 C
HETATM   25  O2  UNL     1      -4.338  28.579  17.015  1.00  0.00    -0.273 OA
ATOM     26  H1  UNL     1      -3.587  27.723  13.963  1.00  0.00     0.162 HD
BRANCH  24  27
HETATM   27  C11 UNL     1      -5.646  29.076  15.133  1.00  0.00     0.110 C
HETATM   28  C12 UNL     1      -5.329  29.367  13.665  1.00  0.00     0.025 C
BRANCH  27  29
HETATM   29  C13 UNL     1      -6.804  28.205  15.262  1.00  0.00    -0.004 A
HETATM   30  C14 UNL     1      -7.032  27.226  14.300  1.00  0.00     0.055 A
HETATM   31  C15 UNL     1      -8.153  26.392  14.391  1.00  0.00     0.143 A
HETATM   32  F4  UNL     1      -8.261  25.496  13.382  1.00  0.00    -0.204 F
HETATM   33  C16 UNL     1      -9.054  26.509  15.423  1.00  0.00     0.072 A
HETATM   34  C22 UNL     1      -8.792  27.495  16.362  1.00  0.00     0.075 A
HETATM   35  C23 UNL     1      -7.691  28.327  16.286  1.00  0.00     0.125 A
HETATM   36  F5  UNL     1      -7.528  29.265  17.273  1.00  0.00    -0.205 F
BRANCH  33  37
HETATM   37  N2  UNL     1     -10.169  25.658  15.512  1.00  0.00    -0.372 N
HETATM   38  C17 UNL     1     -11.211  25.683  14.454  1.00  0.00     0.167 C
HETATM   39  C18 UNL     1     -11.491  24.257  14.049  1.00  0.00     0.077 C
HETATM   40  N3  UNL     1     -10.682  23.264  14.624  1.00  0.00    -0.394 N
HETATM   41  C19 UNL     1      -9.677  22.661  13.826  1.00  0.00     0.148 C
HETATM   42  C20 UNL     1     -10.456  23.312  16.026  1.00  0.00     0.141 C
HETATM   43  C21 UNL     1     -10.459  24.724  16.571  1.00  0.00     0.143 C
ENDBRANCH  33  37
ENDBRANCH  27  29
ENDBRANCH  24  27
ENDBRANCH   1  23
TORSDOF 10
ENDMDL