MODEL 1
REMARK VINA RESULT: -9.712450861      0.000      0.000
REMARK  12 active torsions:
REMARK  status: ('A' for Active; 'I' for Inactive)
REMARK    1  A    between atoms: C2_2  and  C4_4
REMARK    2  A    between atoms: C4_4  and  N1_5
REMARK    3  A    between atoms: C4_4  and  C16_28
REMARK       I    between atoms: N1_5  and  C5_7
REMARK    4  A    between atoms: C5_7  and  O2_9
REMARK    5  A    between atoms: O2_9  and  C6_10
REMARK    6  A    between atoms: C6_10  and  C7_11
REMARK    7  A    between atoms: C6_10  and  C8_15
REMARK    8  A    between atoms: C8_15  and  C9_18
REMARK    9  A    between atoms: C9_18  and  C10_19
REMARK       I    between atoms: C10_19  and  N2_21
REMARK   10  A    between atoms: C13_24  and  C14_25
REMARK   11  A    between atoms: C16_28  and  C17_30
REMARK       I    between atoms: C17_30  and  N3_32
REMARK   12  A    between atoms: N3_32  and  C18_33
ROOT
HETATM    1  N1  UNL     1      -4.061  25.700  14.491  1.00  0.00    -0.325 N
ATOM      2  H1  UNL     1      -3.995  25.120  15.328  1.00  0.00     0.165 HD
HETATM    3  C5  UNL     1      -5.099  26.648  14.337  1.00  0.00     0.362 C
HETATM    4  O1  UNL     1      -5.120  27.327  13.261  1.00  0.00    -0.238 OA
ENDROOT
BRANCH   3   5
HETATM    5  O2  UNL     1      -6.094  26.908  15.236  1.00  0.00    -0.283 OA
BRANCH   5   6
HETATM    6  C6  UNL     1      -6.930  28.142  15.057  1.00  0.00     0.317 C
BRANCH   6   7
HETATM    7  C7  UNL     1      -6.546  28.937  16.267  1.00  0.00     0.420 C
HETATM    8  F1  UNL     1      -7.023  28.604  17.471  1.00  0.00    -0.168 F
HETATM    9  F2  UNL     1      -5.179  29.119  16.388  1.00  0.00    -0.168 F
HETATM   10  F3  UNL     1      -7.031  30.241  16.012  1.00  0.00    -0.168 F
ENDBRANCH   6   7
BRANCH   6  11
HETATM   11  C8  UNL     1      -8.314  27.675  14.902  1.00  0.00     0.301 C
HETATM   12  F4  UNL     1      -8.378  26.658  15.986  1.00  0.00    -0.198 F
HETATM   13  F5  UNL     1      -9.303  28.519  15.262  1.00  0.00    -0.198 F
BRANCH  11  14
HETATM   14  C9  UNL     1      -8.672  26.787  13.755  1.00  0.00     0.128 C
BRANCH  14  15
HETATM   15  C10 UNL     1      -8.973  25.394  13.903  1.00  0.00     0.245 C
HETATM   16  O3  UNL     1      -8.049  24.556  13.610  1.00  0.00    -0.269 OA
HETATM   17  N2  UNL     1     -10.204  24.831  14.349  1.00  0.00    -0.348 N
HETATM   18  C11 UNL     1     -11.372  25.558  14.769  1.00  0.00     0.126 C
HETATM   19  C15 UNL     1     -10.482  23.421  14.453  1.00  0.00     0.131 C
HETATM   20  C12 UNL     1     -12.227  24.617  15.553  1.00  0.00     0.027 C
HETATM   21  C13 UNL     1     -11.741  23.247  15.215  1.00  0.00     0.015 C
BRANCH  21  22
HETATM   22  C14 UNL     1     -12.791  22.461  14.444  1.00  0.00     0.091 C
HETATM   23 BR1  UNL     1     -12.130  21.801  12.767  1.00  0.00    -0.096 Br
ENDBRANCH  21  22
ENDBRANCH  14  15
ENDBRANCH  11  14
ENDBRANCH   6  11
ENDBRANCH   5   6
ENDBRANCH   3   5
BRANCH   1  24
HETATM   24  C4  UNL     1      -3.082  25.580  13.403  1.00  0.00     0.171 C
BRANCH  24  25
HETATM   25  C2  UNL     1      -2.927  24.067  13.224  1.00  0.00     0.008 C
HETATM   26  C1  UNL     1      -2.175  23.713  11.987  1.00  0.00     0.012 C
HETATM   27  C3  UNL     1      -4.227  23.328  13.367  1.00  0.00     0.012 C
ENDBRANCH  24  25
BRANCH  24  28
HETATM   28  C16 UNL     1      -1.840  26.223  13.754  1.00  0.00     0.253 C
HETATM   29  O4  UNL     1      -1.115  26.779  12.922  1.00  0.00    -0.284 OA
BRANCH  28  30
HETATM   30  C17 UNL     1      -1.381  26.236  15.176  1.00  0.00     0.359 C
HETATM   31  O5  UNL     1      -1.800  27.248  15.809  1.00  0.00    -0.248 OA
HETATM   32  N3  UNL     1      -0.590  25.215  15.659  1.00  0.00    -0.403 NA
BRANCH  32  33
HETATM   33  C18 UNL     1       0.177  24.230  16.135  1.00  0.00     0.167 C
HETATM   34  C19 UNL     1       1.679  24.619  16.171  1.00  0.00     0.039 C
HETATM   35  C20 UNL     1       2.482  23.812  15.206  1.00  0.00     0.003 C
HETATM   36  C21 UNL     1       2.455  22.330  15.505  1.00  0.00     0.000 C
HETATM   37  C22 UNL     1       1.052  21.942  15.900  1.00  0.00     0.003 C
HETATM   38  C23 UNL     1       0.089  22.922  15.296  1.00  0.00     0.039 C
ENDBRANCH  32  33
ENDBRANCH  28  30
ENDBRANCH  24  28
ENDBRANCH   1  24
TORSDOF 12
ENDMDL