MODEL 2
REMARK VINA RESULT: -10.150973674      2.053      2.906
REMARK  13 active torsions:
REMARK  status: ('A' for Active; 'I' for Inactive)
REMARK    1  A    between atoms: C2_2  and  C3_3
REMARK    2  A    between atoms: C3_3  and  C4_4
REMARK    3  A    between atoms: C4_4  and  C5_5
REMARK    4  A    between atoms: C5_5  and  C6_6
REMARK    5  A    between atoms: C6_6  and  O1_7
REMARK    6  A    between atoms: O1_7  and  C7_8
REMARK       I    between atoms: C7_8  and  N1_10
REMARK    7  A    between atoms: C10_13  and  N2_14
REMARK    8  A    between atoms: C14_19  and  C15_20
REMARK       I    between atoms: C15_20  and  N3_22
REMARK    9  A    between atoms: N3_22  and  C16_24
REMARK   10  A    between atoms: C16_24  and  C17_25
REMARK   11  A    between atoms: C16_24  and  C25_38
REMARK   12  A    between atoms: C17_25  and  C18_26
REMARK   13  A    between atoms: C19_27  and  C20_28
ROOT
HETATM    1  N2  UNL     1      -7.545  27.473  15.209  1.00  0.00    -0.334 N
HETATM    2  C11 UNL     1      -7.809  28.599  16.126  1.00  0.00     0.221 C
HETATM    3  O3  UNL     1      -8.899  28.873  16.680  1.00  0.00    -0.273 OA
HETATM    4  C12 UNL     1      -6.579  29.387  16.310  1.00  0.00     0.105 C
HETATM    5  C13 UNL     1      -5.543  28.582  15.581  1.00  0.00     0.044 C
HETATM    6  C14 UNL     1      -6.441  27.962  14.470  1.00  0.00     0.180 C
ENDROOT
BRANCH   6   7
HETATM    7  C15 UNL     1      -5.566  27.086  13.734  1.00  0.00     0.241 C
HETATM    8  O4  UNL     1      -5.881  26.457  12.729  1.00  0.00    -0.271 OA
HETATM    9  N3  UNL     1      -4.224  26.923  14.197  1.00  0.00    -0.344 N
ATOM     10  H3  UNL     1      -3.925  27.429  15.031  1.00  0.00     0.163 HD
BRANCH   9  11
HETATM   11  C16 UNL     1      -3.273  26.064  13.520  1.00  0.00     0.196 C
BRANCH  11  12
HETATM   12  C17 UNL     1      -3.288  24.668  14.107  1.00  0.00     0.130 C
BRANCH  12  13
HETATM   13  C18 UNL     1      -2.057  24.326  14.801  1.00  0.00    -0.103 C
HETATM   14  C19 UNL     1      -1.040  24.031  15.400  1.00  0.00    -0.098 C
BRANCH  14  15
HETATM   15  C20 UNL     1       0.183  23.650  16.127  1.00  0.00     0.111 C
HETATM   16  C21 UNL     1       0.994  22.751  15.249  1.00  0.00     0.106 C
HETATM   17  C22 UNL     1       2.431  23.172  15.409  1.00  0.00     0.312 C
HETATM   18  F1  UNL     1       3.161  22.240  16.156  1.00  0.00    -0.199 F
HETATM   19  F2  UNL     1       3.032  23.246  14.157  1.00  0.00    -0.199 F
HETATM   20  C23 UNL     1       2.448  24.485  16.121  1.00  0.00     0.339 C
HETATM   21  F3  UNL     1       2.986  24.402  17.393  1.00  0.00    -0.196 F
HETATM   22  F4  UNL     1       3.135  25.394  15.355  1.00  0.00    -0.196 F
HETATM   23  C24 UNL     1       1.004  24.924  16.256  1.00  0.00     0.264 C
HETATM   24  F5  UNL     1       0.662  25.821  15.263  1.00  0.00    -0.241 F
ENDBRANCH  14  15
ENDBRANCH  12  13
ENDBRANCH  11  12
BRANCH  11  25
HETATM   25  C25 UNL     1      -1.913  26.623  13.532  1.00  0.00     0.197 C
HETATM   26  O5  UNL     1      -1.597  27.465  14.411  1.00  0.00    -0.646 OA
HETATM   27  O6  UNL     1      -0.953  26.260  12.607  1.00  0.00    -0.646 OA
ENDBRANCH  11  25
ENDBRANCH   9  11
ENDBRANCH   6   7
BRANCH   1  28
HETATM   28  C10 UNL     1      -8.389  26.334  15.273  1.00  0.00     0.091 C
HETATM   29  C9  UNL     1      -9.641  26.394  14.405  1.00  0.00     0.045 C
HETATM   30  C8  UNL     1      -9.887  24.940  13.924  1.00  0.00     0.130 C
HETATM   31  N1  UNL     1      -9.929  24.185  15.188  1.00  0.00    -0.328 N
HETATM   32  C7  UNL     1     -10.078  22.757  15.036  1.00  0.00     0.362 C
HETATM   33  C27 UNL     1      -9.837  24.781  16.474  1.00  0.00     0.130 C
HETATM   34  O2  UNL     1     -10.124  22.070  16.084  1.00  0.00    -0.238 OA
HETATM   35  C26 UNL     1      -8.826  25.887  16.624  1.00  0.00     0.045 C
BRANCH  32  36
HETATM   36  O1  UNL     1     -10.171  22.124  13.855  1.00  0.00    -0.304 OA
BRANCH  36  37
HETATM   37  C6  UNL     1     -11.134  21.438  13.188  1.00  0.00     0.180 C
BRANCH  37  38
HETATM   38  C5  UNL     1     -12.548  21.830  13.181  1.00  0.00     0.027 C
BRANCH  38  39
HETATM   39  C4  UNL     1     -12.930  23.026  12.410  1.00  0.00     0.002 C
BRANCH  39  40
HETATM   40  C3  UNL     1     -13.642  24.072  13.273  1.00  0.00    -0.000 C
BRANCH  40  41
HETATM   41  C2  UNL     1     -13.695  23.661  14.720  1.00  0.00    -0.005 C
HETATM   42  C1  UNL     1     -13.338  24.831  15.634  1.00  0.00     0.005 C
ENDBRANCH  40  41
ENDBRANCH  39  40
ENDBRANCH  38  39
ENDBRANCH  37  38
ENDBRANCH  36  37
ENDBRANCH  32  36
ENDBRANCH   1  28
TORSDOF 13
ENDMDL