MODEL 1
REMARK VINA RESULT: -9.821338548      0.000      0.000
REMARK  13 active torsions:
REMARK  status: ('A' for Active; 'I' for Inactive)
REMARK    1  A    between atoms: C1_2  and  N1_3
REMARK    2  A    between atoms: N1_3  and  O2_4
REMARK    3  A    between atoms: N1_3  and  C2_6
REMARK    4  A    between atoms: C2_6  and  C3_7
REMARK    5  A    between atoms: C2_6  and  C10_17
REMARK    6  A    between atoms: C3_7  and  C4_8
REMARK    7  A    between atoms: C10_17  and  O3_18
REMARK    8  A    between atoms: C10_17  and  N2_20
REMARK    9  A    between atoms: C12_22  and  C13_23
REMARK   10  A    between atoms: C13_23  and  N3_24
REMARK   11  A    between atoms: C19_30  and  N4_31
REMARK   12  A    between atoms: N4_31  and  C20_34
REMARK   13  A    between atoms: C20_34  and  C21_35
ROOT
HETATM    1  N2  UNL     1      -4.818  25.130  14.411  1.00  0.00    -0.332 N
HETATM    2  C11 UNL     1      -3.486  24.985  14.852  1.00  0.00     0.133 C
HETATM    3  C12 UNL     1      -2.987  23.855  13.931  1.00  0.00     0.036 C
HETATM    4  C18 UNL     1      -4.282  23.072  13.687  1.00  0.00     0.062 C
HETATM    5  C19 UNL     1      -5.293  23.743  14.642  1.00  0.00     0.288 C
ENDROOT
BRANCH   1   6
HETATM    6  C10 UNL     1      -5.576  26.138  13.870  1.00  0.00     0.166 C
BRANCH   6   7
HETATM    7  C2  UNL     1      -6.597  27.036  14.415  1.00  0.00     0.098 C
BRANCH   7   8
HETATM    8  N1  UNL     1      -7.951  26.861  14.019  1.00  0.00    -0.198 N
BRANCH   8   9
HETATM    9  C1  UNL     1      -9.018  27.623  14.677  1.00  0.00     0.381 C
HETATM   10  O1  UNL     1     -10.187  27.339  14.363  1.00  0.00    -0.281 OA
ENDBRANCH   8   9
BRANCH   8  11
HETATM   11  O2  UNL     1      -8.447  26.029  13.078  1.00  0.00    -0.280 OA
ATOM     12  H2  UNL     1      -8.870  25.274  13.469  1.00  0.00     0.245 HD
ENDBRANCH   8  11
ENDBRANCH   7   8
BRANCH   7  13
HETATM   13  C3  UNL     1      -6.118  28.462  14.524  1.00  0.00     0.109 C
BRANCH  13  14
HETATM   14  C4  UNL     1      -5.449  28.705  15.803  1.00  0.00     0.025 A
HETATM   15  C5  UNL     1      -6.059  29.013  16.982  1.00  0.00     0.129 A
HETATM   16  F1  UNL     1      -7.385  29.226  17.036  1.00  0.00    -0.205 F
HETATM   17  C6  UNL     1      -5.369  29.177  18.191  1.00  0.00     0.085 A
HETATM   18  C7  UNL     1      -4.009  29.021  18.193  1.00  0.00     0.122 A
HETATM   19  F2  UNL     1      -3.374  29.185  19.386  1.00  0.00    -0.206 F
HETATM   20  C8  UNL     1      -3.340  28.711  17.037  1.00  0.00     0.085 A
HETATM   21  C9  UNL     1      -4.045  28.560  15.878  1.00  0.00     0.129 A
HETATM   22  F3  UNL     1      -3.386  28.257  14.747  1.00  0.00    -0.205 F
ENDBRANCH  13  14
ENDBRANCH   7  13
ENDBRANCH   6   7
BRANCH   6  23
HETATM   23  O3  UNL     1      -5.386  26.402  12.572  1.00  0.00    -0.345 OA
ATOM     24  H3  UNL     1      -5.984  25.883  12.048  1.00  0.00     0.219 HD
ENDBRANCH   6  23
ENDBRANCH   1   6
BRANCH   5  25
HETATM   25  N4  UNL     1      -6.643  23.513  14.298  1.00  0.00    -0.050 N
ATOM     26  H42 UNL     1      -7.010  24.174  13.614  1.00  0.00     0.280 HD
ATOM     27  H41 UNL     1      -6.787  22.670  13.741  1.00  0.00     0.280 HD
BRANCH  25  28
HETATM   28  C20 UNL     1      -7.386  23.511  15.583  1.00  0.00     0.273 C
BRANCH  28  29
HETATM   29  C21 UNL     1      -8.838  23.474  15.388  1.00  0.00    -0.028 A
HETATM   30  C22 UNL     1      -9.671  24.247  16.155  1.00  0.00     0.052 A
HETATM   31  C23 UNL     1     -11.049  24.181  15.934  1.00  0.00     0.140 A
HETATM   32  F4  UNL     1     -11.890  24.943  16.690  1.00  0.00    -0.204 F
HETATM   33  C24 UNL     1     -11.590  23.355  14.965  1.00  0.00     0.094 A
HETATM   34 CL1  UNL     1     -13.326  23.251  14.673  1.00  0.00    -0.079 Cl
HETATM   35  C25 UNL     1     -10.732  22.583  14.202  1.00  0.00     0.059 A
HETATM   36 CL2  UNL     1     -11.433  21.547  12.974  1.00  0.00    -0.082 Cl
HETATM   37  C26 UNL     1      -9.371  22.644  14.415  1.00  0.00     0.034 A
ENDBRANCH  28  29
ENDBRANCH  25  28
ENDBRANCH   5  25
BRANCH   3  38
HETATM   38  C13 UNL     1      -1.986  22.998  14.669  1.00  0.00     0.278 C
BRANCH  38  39
HETATM   39  N3  UNL     1      -0.937  23.851  15.170  1.00  0.00     0.088 N
HETATM   40  C14 UNL     1      -0.315  23.371  16.368  1.00  0.00     0.272 C
HETATM   41  C15 UNL     1       0.971  22.708  15.856  1.00  0.00     0.032 C
HETATM   42  C16 UNL     1       1.414  23.733  14.812  1.00  0.00     0.032 C
HETATM   43  C17 UNL     1       0.098  24.073  14.177  1.00  0.00     0.272 C
ENDBRANCH  38  39
ENDBRANCH   3  38
TORSDOF 13
ENDMDL