MODEL 5
REMARK VINA RESULT: -9.903246147      2.958      5.119
REMARK  11 active torsions:
REMARK  status: ('A' for Active; 'I' for Inactive)
REMARK    1  A    between atoms: C4_4  and  C5_5
REMARK       I    between atoms: C5_5  and  N1_7
REMARK    2  A    between atoms: N1_7  and  C6_9
REMARK    3  A    between atoms: C6_9  and  C8_11
REMARK       I    between atoms: C8_11  and  N2_13
REMARK    4  A    between atoms: N2_13  and  C9_15
REMARK    5  A    between atoms: C9_15  and  C10_16
REMARK    6  A    between atoms: C9_15  and  C18_30
REMARK    7  A    between atoms: C10_16  and  N3_17
REMARK    8  A    between atoms: N3_17  and  C11_18
REMARK    9  A    between atoms: N3_17  and  C12_20
REMARK   10  A    between atoms: C22_34  and  N4_35
REMARK   11  A    between atoms: C27_41  and  C28_42
ROOT
HETATM    1  C6  UNL     1      -7.596  23.284  15.708  1.00  0.00     0.172 C
HETATM    2  C7  UNL     1      -7.424  22.461  16.971  1.00  0.00     0.042 C
ENDROOT
BRANCH   1   3
HETATM    3  N1  UNL     1      -6.363  23.906  15.293  1.00  0.00    -0.344 N
HETATM    4  C5  UNL     1      -5.984  23.903  13.937  1.00  0.00     0.252 C
HETATM    5  O1  UNL     1      -6.715  23.354  13.046  1.00  0.00    -0.268 OA
ATOM      6  H1  UNL     1      -5.762  24.350  15.986  1.00  0.00     0.163 HD
BRANCH   4   7
HETATM    7  C4  UNL     1      -4.755  24.514  13.478  1.00  0.00     0.034 A
HETATM    8  C3  UNL     1      -4.736  25.275  12.349  1.00  0.00     0.024 A
HETATM    9  C2  UNL     1      -3.568  25.895  11.868  1.00  0.00    -0.047 A
HETATM   10  C1  UNL     1      -3.554  26.714  10.648  1.00  0.00     0.049 C
HETATM   11  C27 UNL     1      -2.383  25.732  12.565  1.00  0.00     0.038 A
HETATM   12  C22 UNL     1      -2.388  24.967  13.702  1.00  0.00     0.043 A
HETATM   13  C21 UNL     1      -3.556  24.366  14.155  1.00  0.00     0.047 A
BRANCH  11  14
HETATM   14  C28 UNL     1      -1.165  26.372  12.112  1.00  0.00     0.389 C
HETATM   15  F5  UNL     1      -0.756  27.285  13.104  1.00  0.00    -0.209 F
HETATM   16  F6  UNL     1      -0.127  25.525  11.816  1.00  0.00    -0.209 F
ENDBRANCH  11  14
BRANCH  12  17
HETATM   17  N4  UNL     1      -1.213  24.723  14.437  1.00  0.00    -0.376 N
HETATM   18  C23 UNL     1      -0.356  23.622  14.146  1.00  0.00     0.149 C
HETATM   19  C24 UNL     1       1.042  23.798  14.703  1.00  0.00     0.187 C
HETATM   20  O4  UNL     1       1.066  24.467  15.921  1.00  0.00    -0.388 OA
HETATM   21  C25 UNL     1       0.602  25.768  15.700  1.00  0.00     0.187 C
HETATM   22  C26 UNL     1      -0.897  25.649  15.519  1.00  0.00     0.149 C
ENDBRANCH  12  17
ENDBRANCH   4   7
ENDBRANCH   1   3
BRANCH   1  23
HETATM   23  C8  UNL     1      -8.706  24.238  15.825  1.00  0.00     0.240 C
HETATM   24  O2  UNL     1      -8.963  24.739  16.945  1.00  0.00    -0.271 OA
HETATM   25  N2  UNL     1      -9.489  24.604  14.715  1.00  0.00    -0.350 N
ATOM     26  H2  UNL     1      -9.290  24.202  13.799  1.00  0.00     0.163 HD
BRANCH  25  27
HETATM   27  C9  UNL     1     -10.625  25.590  14.871  1.00  0.00     0.127 C
BRANCH  27  28
HETATM   28  C10 UNL     1     -10.160  26.776  14.140  1.00  0.00     0.098 C
BRANCH  28  29
HETATM   29  N3  UNL     1      -8.823  27.212  14.141  1.00  0.00    -0.299 N
BRANCH  29  30
HETATM   30  C11 UNL     1      -7.968  27.053  13.018  1.00  0.00     0.360 C
HETATM   31  O3  UNL     1      -7.983  26.047  12.277  1.00  0.00    -0.283 OA
ENDBRANCH  29  30
BRANCH  29  32
HETATM   32  C12 UNL     1      -8.208  27.825  15.295  1.00  0.00     0.085 A
HETATM   33  C13 UNL     1      -8.904  28.049  16.452  1.00  0.00     0.079 A
HETATM   34  C14 UNL     1      -8.286  28.647  17.558  1.00  0.00     0.160 A
HETATM   35  F1  UNL     1      -9.020  28.838  18.663  1.00  0.00    -0.203 F
HETATM   36  C15 UNL     1      -6.978  29.004  17.464  1.00  0.00     0.196 A
HETATM   37  F2  UNL     1      -6.324  29.592  18.509  1.00  0.00    -0.199 F
HETATM   38  C16 UNL     1      -6.265  28.776  16.281  1.00  0.00     0.198 A
HETATM   39  F3  UNL     1      -4.965  29.140  16.217  1.00  0.00    -0.199 F
HETATM   40  C17 UNL     1      -6.879  28.190  15.203  1.00  0.00     0.185 A
HETATM   41  F4  UNL     1      -6.189  27.965  14.052  1.00  0.00    -0.200 F
ENDBRANCH  29  32
ENDBRANCH  28  29
ENDBRANCH  27  28
BRANCH  27  42
HETATM   42  C18 UNL     1     -11.820  24.848  14.360  1.00  0.00     0.005 C
HETATM   43  C19 UNL     1     -11.576  23.436  13.941  1.00  0.00     0.012 C
HETATM   44  C20 UNL     1     -12.994  24.926  15.341  1.00  0.00     0.012 C
ENDBRANCH  27  42
ENDBRANCH  25  27
ENDBRANCH   1  23
TORSDOF 11
ENDMDL