MODEL 5
REMARK VINA RESULT: -9.194714962      1.181      1.595
REMARK  12 active torsions:
REMARK  status: ('A' for Active; 'I' for Inactive)
REMARK    1  A    between atoms: C7_7  and  C8_8
REMARK    2  A    between atoms: C8_8  and  S1_9
REMARK    3  A    between atoms: S1_9  and  N1_12
REMARK    4  A    between atoms: N1_12  and  C9_14
REMARK    5  A    between atoms: C9_14  and  C10_15
REMARK    6  A    between atoms: C10_15  and  C11_16
REMARK    7  A    between atoms: C11_16  and  C12_19
REMARK       I    between atoms: C12_19  and  N2_21
REMARK    8  A    between atoms: N2_21  and  C13_23
REMARK    9  A    between atoms: C13_23  and  C14_24
REMARK   10  A    between atoms: C14_24  and  N3_26
REMARK   11  A    between atoms: C14_24  and  C20_32
REMARK   12  A    between atoms: C20_32  and  C21_33
ROOT
HETATM    1  C12 UNL     1      -4.735  27.211  14.026  1.00  0.00     0.290 C
HETATM    2  O3  UNL     1      -5.394  26.155  14.244  1.00  0.00    -0.267 OA
HETATM    3  N2  UNL     1      -3.626  27.089  13.131  1.00  0.00    -0.354 N
ATOM      4  H2  UNL     1      -3.057  27.903  12.899  1.00  0.00     0.162 HD
ENDROOT
BRANCH   1   5
HETATM    5  C11 UNL     1      -5.023  28.504  14.615  1.00  0.00     0.324 C
HETATM    6  F1  UNL     1      -5.423  29.384  13.583  1.00  0.00    -0.196 F
HETATM    7  F2  UNL     1      -3.778  29.059  14.992  1.00  0.00    -0.196 F
BRANCH   5   8
HETATM    8  C10 UNL     1      -5.983  28.567  15.733  1.00  0.00     0.110 C
BRANCH   8   9
HETATM    9  C9  UNL     1      -7.428  28.438  15.424  1.00  0.00     0.138 C
BRANCH   9  10
HETATM   10  N1  UNL     1      -7.994  27.124  15.569  1.00  0.00    -0.319 N
ATOM     11  H1  UNL     1      -7.825  26.497  16.355  1.00  0.00     0.172 HD
BRANCH  10  12
HETATM   12  S1  UNL     1      -9.025  26.759  14.186  1.00  0.00     0.227 S
HETATM   13  O1  UNL     1      -8.217  27.149  12.994  1.00  0.00    -0.206 OA
HETATM   14  O2  UNL     1     -10.219  27.650  14.355  1.00  0.00    -0.206 OA
BRANCH  12  15
HETATM   15  C8  UNL     1      -9.341  25.062  14.219  1.00  0.00     0.173 C
BRANCH  15  16
HETATM   16  C7  UNL     1     -10.520  24.517  14.871  1.00  0.00    -0.018 C
HETATM   17  C2  UNL     1     -10.753  23.064  14.985  1.00  0.00    -0.035 C
HETATM   18  C1  UNL     1     -10.806  22.303  13.682  1.00  0.00     0.016 C
HETATM   19  C3  UNL     1      -9.951  22.300  15.982  1.00  0.00     0.016 C
HETATM   20  C4  UNL     1     -12.185  23.158  15.588  1.00  0.00    -0.006 C
HETATM   21  C5  UNL     1     -12.872  23.974  14.563  1.00  0.00     0.006 C
HETATM   22  C26 UNL     1     -11.835  24.045  16.778  1.00  0.00     0.006 C
HETATM   23  C6  UNL     1     -11.815  24.966  14.143  1.00  0.00     0.012 C
HETATM   24  C25 UNL     1     -10.732  24.977  16.302  1.00  0.00     0.012 C
ENDBRANCH  15  16
ENDBRANCH  12  15
ENDBRANCH  10  12
ENDBRANCH   9  10
ENDBRANCH   8   9
ENDBRANCH   5   8
ENDBRANCH   1   5
BRANCH   3  25
HETATM   25  C13 UNL     1      -3.324  25.798  12.561  1.00  0.00     0.154 C
BRANCH  25  26
HETATM   26  C14 UNL     1      -1.809  25.570  12.529  1.00  0.00     0.056 C
HETATM   27  C15 UNL     1      -1.241  26.962  12.841  1.00  0.00     0.041 C
BRANCH  26  28
HETATM   28  N3  UNL     1      -1.342  24.982  11.337  1.00  0.00    -0.397 N
HETATM   29  C16 UNL     1      -0.282  25.594  10.631  1.00  0.00     0.144 C
HETATM   30  C17 UNL     1      -0.323  25.281   9.129  1.00  0.00     0.187 C
HETATM   31  O4  UNL     1      -0.407  23.894   9.025  1.00  0.00    -0.388 OA
HETATM   32  C18 UNL     1      -1.614  23.446   9.499  1.00  0.00     0.187 C
HETATM   33  C19 UNL     1      -2.302  24.489  10.406  1.00  0.00     0.144 C
ENDBRANCH  26  28
BRANCH  26  34
HETATM   34  C20 UNL     1      -1.484  24.706  13.735  1.00  0.00     0.084 C
HETATM   35  C22 UNL     1      -0.135  24.035  13.684  1.00  0.00     0.021 C
HETATM   36  C23 UNL     1       0.292  24.652  14.990  1.00  0.00     0.002 C
HETATM   37  C24 UNL     1      -0.969  25.482  14.945  1.00  0.00     0.021 C
BRANCH  34  38
HETATM   38  C21 UNL     1      -2.519  23.736  14.198  1.00  0.00     0.397 C
HETATM   39  F3  UNL     1      -3.127  23.012  13.217  1.00  0.00    -0.170 F
HETATM   40  F4  UNL     1      -1.826  22.745  14.972  1.00  0.00    -0.170 F
HETATM   41  F5  UNL     1      -3.368  24.295  15.121  1.00  0.00    -0.170 F
ENDBRANCH  34  38
ENDBRANCH  26  34
ENDBRANCH  25  26
ENDBRANCH   3  25
TORSDOF 12
ENDMDL