MODEL 2
REMARK VINA RESULT: -11.185348790      0.978      1.304
REMARK  10 active torsions:
REMARK  status: ('A' for Active; 'I' for Inactive)
REMARK    1  A    between atoms: C4_5  and  O1_6
REMARK    2  A    between atoms: O1_6  and  C5_7
REMARK    3  A    between atoms: C8_10  and  N2_11
REMARK       I    between atoms: N2_11  and  C9_12
REMARK    4  A    between atoms: N2_11  and  C21_33
REMARK    5  A    between atoms: C9_12  and  C10_14
REMARK    6  A    between atoms: C10_14  and  C11_15
REMARK    7  A    between atoms: C10_14  and  N4_19
REMARK    8  A    between atoms: C11_15  and  C12_16
REMARK       I    between atoms: N4_19  and  C13_21
REMARK    9  A    between atoms: C13_21  and  C14_23
REMARK   10  A    between atoms: C14_23  and  C15_24
ROOT
HETATM    1  N1  UNL     1     -13.162  21.239  11.731  1.00  0.00    -0.191 NA
HETATM    2  C1  UNL     1     -12.550  21.876  12.454  1.00  0.00     0.101 C
HETATM    3  C2  UNL     1     -11.760  22.662  13.356  1.00  0.00     0.069 A
HETATM    4  C3  UNL     1     -10.425  22.318  13.540  1.00  0.00     0.065 A
HETATM    5  C4  UNL     1      -9.623  23.036  14.389  1.00  0.00     0.116 A
HETATM    6  C26 UNL     1     -10.169  24.110  15.056  1.00  0.00     0.151 A
HETATM    7  F5  UNL     1      -9.424  24.890  15.904  1.00  0.00    -0.203 F
HETATM    8  C27 UNL     1     -11.491  24.458  14.878  1.00  0.00     0.070 A
HETATM    9  C28 UNL     1     -12.310  23.737  14.023  1.00  0.00     0.057 A
HETATM   10 CL1  UNL     1     -14.002  24.161  13.784  1.00  0.00    -0.083 Cl
ENDROOT
BRANCH   5  11
HETATM   11  O1  UNL     1      -8.321  22.671  14.545  1.00  0.00    -0.304 OA
BRANCH  11  12
HETATM   12  C5  UNL     1      -7.226  23.485  14.446  1.00  0.00     0.114 A
HETATM   13  C6  UNL     1      -6.181  23.454  15.339  1.00  0.00     0.043 A
HETATM   14  C7  UNL     1      -5.103  24.304  15.189  1.00  0.00     0.032 A
HETATM   15  C8  UNL     1      -5.000  25.219  14.160  1.00  0.00     0.040 A
HETATM   16  C24 UNL     1      -6.049  25.245  13.267  1.00  0.00     0.075 A
HETATM   17  C25 UNL     1      -7.133  24.404  13.402  1.00  0.00     0.152 A
HETATM   18  F4  UNL     1      -8.169  24.442  12.499  1.00  0.00    -0.203 F
BRANCH  15  19
HETATM   19  N2  UNL     1      -3.865  26.079  14.058  1.00  0.00    -0.311 N
HETATM   20  C9  UNL     1      -2.635  25.617  13.534  1.00  0.00     0.248 C
HETATM   21  O2  UNL     1      -2.589  24.353  13.296  1.00  0.00    -0.271 OA
BRANCH  20  22
HETATM   22  C10 UNL     1      -1.444  26.430  13.250  1.00  0.00     0.185 C
BRANCH  22  23
HETATM   23  C11 UNL     1      -1.002  26.451  11.827  1.00  0.00     0.134 C
BRANCH  23  24
HETATM   24  C12 UNL     1      -2.090  26.616  10.835  1.00  0.00     0.233 C
HETATM   25  N3  UNL     1      -2.437  25.522   9.999  1.00  0.00    -0.062 NA
HETATM   26  O3  UNL     1      -2.713  27.681  10.707  1.00  0.00    -0.277 OA
ENDBRANCH  23  24
ENDBRANCH  22  23
BRANCH  22  27
HETATM   27  N4  UNL     1      -0.341  25.952  14.073  1.00  0.00    -0.347 N
HETATM   28  C13 UNL     1      -0.234  26.275  15.432  1.00  0.00     0.222 C
HETATM   29  O4  UNL     1      -1.117  26.999  15.953  1.00  0.00    -0.273 OA
ATOM     30  H4  UNL     1       0.376  25.364  13.647  1.00  0.00     0.163 HD
BRANCH  28  31
HETATM   31  C14 UNL     1       0.879  25.788  16.259  1.00  0.00     0.144 C
BRANCH  31  32
HETATM   32  C15 UNL     1       1.053  24.312  16.075  1.00  0.00    -0.008 A
HETATM   33  C16 UNL     1       0.065  23.397  16.353  1.00  0.00     0.056 A
HETATM   34  C17 UNL     1       0.289  22.032  16.149  1.00  0.00     0.155 A
HETATM   35  F1  UNL     1      -0.713  21.160  16.436  1.00  0.00    -0.203 F
HETATM   36  C18 UNL     1       1.495  21.589  15.671  1.00  0.00     0.157 A
HETATM   37  F2  UNL     1       1.666  20.258  15.491  1.00  0.00    -0.203 F
HETATM   38  C19 UNL     1       2.491  22.506  15.389  1.00  0.00     0.088 A
HETATM   39  C20 UNL     1       2.266  23.849  15.591  1.00  0.00     0.126 A
HETATM   40  F3  UNL     1       3.256  24.723  15.306  1.00  0.00    -0.205 F
ENDBRANCH  31  32
ENDBRANCH  28  31
ENDBRANCH  22  27
ENDBRANCH  20  22
BRANCH  19  41
HETATM   41  C21 UNL     1      -3.941  27.433  14.543  1.00  0.00     0.093 A
HETATM   42  C22 UNL     1      -4.716  28.377  13.597  1.00  0.00     0.028 A
HETATM   43  C23 UNL     1      -5.225  28.030  14.976  1.00  0.00     0.028 A
ENDBRANCH  19  41
ENDBRANCH  15  19
ENDBRANCH  11  12
ENDBRANCH   5  11
TORSDOF 10
ENDMDL