MODEL 1
REMARK VINA RESULT: -10.275539069      0.000      0.000
REMARK  11 active torsions:
REMARK  status: ('A' for Active; 'I' for Inactive)
REMARK       I    between atoms: C1_2  and  N1_3
REMARK    1  A    between atoms: C1_2  and  C17_30
REMARK    2  A    between atoms: N1_3  and  C2_5
REMARK    3  A    between atoms: C2_5  and  C3_6
REMARK    4  A    between atoms: C2_5  and  C11_24
REMARK       I    between atoms: C3_6  and  N2_8
REMARK    5  A    between atoms: N2_8  and  C4_10
REMARK    6  A    between atoms: N3_14  and  S1_15
REMARK    7  A    between atoms: S1_15  and  C8_18
REMARK    8  A    between atoms: C8_18  and  C9_19
REMARK    9  A    between atoms: C20_33  and  O5_34
REMARK   10  A    between atoms: O5_34  and  C21_35
REMARK   11  A    between atoms: C21_35  and  C22_36
ROOT
HETATM    1  C2  UNL     1      -6.339  28.926  15.530  1.00  0.00     0.181 C
ENDROOT
BRANCH   1   2
HETATM    2  N1  UNL     1      -7.258  27.832  15.440  1.00  0.00    -0.343 N
HETATM    3  C1  UNL     1      -8.638  27.866  15.537  1.00  0.00     0.252 C
HETATM    4  O1  UNL     1      -9.215  28.958  15.724  1.00  0.00    -0.268 OA
ATOM      5  H1  UNL     1      -6.843  26.913  15.286  1.00  0.00     0.163 HD
BRANCH   3   6
HETATM    6  C17 UNL     1      -9.450  26.674  15.428  1.00  0.00     0.033 A
HETATM    7  C18 UNL     1     -10.431  26.547  14.430  1.00  0.00     0.020 A
HETATM    8  C19 UNL     1     -11.225  25.435  14.300  1.00  0.00     0.039 A
HETATM    9  C20 UNL     1     -11.081  24.377  15.168  1.00  0.00     0.090 A
HETATM   10  C23 UNL     1     -10.132  24.466  16.157  1.00  0.00     0.068 A
HETATM   11 CL1  UNL     1      -9.958  23.119  17.259  1.00  0.00    -0.081 Cl
HETATM   12  C24 UNL     1      -9.339  25.587  16.279  1.00  0.00     0.043 A
BRANCH   9  13
HETATM   13  O5  UNL     1     -11.893  23.245  15.030  1.00  0.00    -0.344 OA
BRANCH  13  14
HETATM   14  C21 UNL     1     -12.534  22.997  13.795  1.00  0.00     0.246 C
BRANCH  14  15
HETATM   15  C22 UNL     1     -12.038  21.712  13.194  1.00  0.00     0.377 C
HETATM   16  F4  UNL     1     -10.692  21.676  12.985  1.00  0.00    -0.212 F
HETATM   17  F5  UNL     1     -12.650  21.488  11.953  1.00  0.00    -0.212 F
ENDBRANCH  14  15
ENDBRANCH  13  14
ENDBRANCH   9  13
ENDBRANCH   3   6
ENDBRANCH   1   2
BRANCH   1  18
HETATM   18  C3  UNL     1      -5.290  28.718  14.509  1.00  0.00     0.241 C
HETATM   19  O2  UNL     1      -4.753  29.669  13.924  1.00  0.00    -0.271 OA
HETATM   20  N2  UNL     1      -4.869  27.414  14.176  1.00  0.00    -0.353 N
ATOM     21  H2  UNL     1      -5.306  26.625  14.652  1.00  0.00     0.163 HD
BRANCH  20  22
HETATM   22  C4  UNL     1      -3.848  27.144  13.192  1.00  0.00     0.103 C
HETATM   23  C5  UNL     1      -4.321  26.270  12.065  1.00  0.00     0.028 C
HETATM   24  C6  UNL     1      -3.202  26.208  11.047  1.00  0.00     0.023 C
HETATM   25  C7  UNL     1      -1.841  25.972  11.706  1.00  0.00     0.135 C
HETATM   26  N3  UNL     1      -1.940  25.611  13.054  1.00  0.00    -0.309 N
HETATM   27  C10 UNL     1      -2.711  26.419  13.926  1.00  0.00     0.160 C
BRANCH  26  28
HETATM   28  S1  UNL     1      -1.120  24.314  13.691  1.00  0.00     0.236 S
HETATM   29  O3  UNL     1      -0.498  23.445  12.595  1.00  0.00    -0.205 OA
HETATM   30  O4  UNL     1      -2.177  23.368  14.301  1.00  0.00    -0.205 OA
BRANCH  28  31
HETATM   31  C8  UNL     1       0.042  24.600  14.949  1.00  0.00     0.280 C
BRANCH  31  32
HETATM   32  C9  UNL     1       0.391  23.504  15.873  1.00  0.00     0.402 C
HETATM   33  F1  UNL     1      -0.480  23.310  16.913  1.00  0.00    -0.170 F
HETATM   34  F2  UNL     1       1.589  23.948  16.547  1.00  0.00    -0.170 F
HETATM   35  F3  UNL     1       0.785  22.349  15.271  1.00  0.00    -0.170 F
ENDBRANCH  31  32
ENDBRANCH  28  31
ENDBRANCH  26  28
ENDBRANCH  20  22
ENDBRANCH   1  18
BRANCH   1  36
HETATM   36  C11 UNL     1      -5.714  29.170  16.840  1.00  0.00     0.018 C
HETATM   37  C12 UNL     1      -4.318  28.667  17.005  1.00  0.00     0.007 C
HETATM   38  C13 UNL     1      -3.942  28.672  18.451  1.00  0.00     0.000 C
HETATM   39  C14 UNL     1      -4.704  29.656  19.288  1.00  0.00     0.000 C
HETATM   40  C15 UNL     1      -6.188  29.516  19.209  1.00  0.00     0.000 C
HETATM   41  C16 UNL     1      -6.505  28.632  18.016  1.00  0.00     0.007 C
ENDBRANCH   1  36
TORSDOF 11
ENDMDL