MODEL 2
REMARK VINA RESULT: -10.864862789      2.412      4.260
REMARK  10 active torsions:
REMARK  status: ('A' for Active; 'I' for Inactive)
REMARK       I    between atoms: N1_2  and  C3_4
REMARK    1  A    between atoms: C3_4  and  C4_6
REMARK    2  A    between atoms: C4_6  and  C5_7
REMARK    3  A    between atoms: C4_6  and  N2_17
REMARK    4  A    between atoms: C5_7  and  C6_8
REMARK       I    between atoms: N2_17  and  C12_19
REMARK    5  A    between atoms: C12_19  and  C13_21
REMARK    6  A    between atoms: C13_21  and  C14_22
REMARK    7  A    between atoms: C16_24  and  C17_25
REMARK    8  A    between atoms: C17_25  and  O3_26
REMARK    9  A    between atoms: O3_26  and  C18_27
REMARK   10  A    between atoms: C25_39  and  C26_40
ROOT
HETATM    1  C14 UNL     1      -4.270  24.205  13.591  1.00  0.00    -0.004 C
HETATM    2  C15 UNL     1      -3.866  25.247  14.561  1.00  0.00     0.016 C
HETATM    3  C16 UNL     1      -2.706  26.060  13.986  1.00  0.00    -0.017 C
HETATM    4  C23 UNL     1      -3.332  27.254  13.284  1.00  0.00     0.013 C
HETATM    5  C24 UNL     1      -3.291  26.917  11.783  1.00  0.00     0.021 C
HETATM    6  C25 UNL     1      -3.066  25.391  11.794  1.00  0.00     0.049 C
HETATM    7  C27 UNL     1      -4.356  24.768  12.185  1.00  0.00     0.025 C
HETATM    8  C28 UNL     1      -2.005  25.362  12.894  1.00  0.00     0.032 C
ENDROOT
BRANCH   1   9
HETATM    9  C13 UNL     1      -5.424  23.359  13.940  1.00  0.00     0.107 C
BRANCH   9  10
HETATM   10  C12 UNL     1      -6.748  23.979  13.973  1.00  0.00     0.218 C
HETATM   11  N2  UNL     1      -7.340  24.511  15.130  1.00  0.00    -0.347 N
ATOM     12  H2  UNL     1      -6.791  24.450  15.988  1.00  0.00     0.163 HD
HETATM   13  O2  UNL     1      -7.400  24.033  12.890  1.00  0.00    -0.274 OA
BRANCH  11  14
HETATM   14  C4  UNL     1      -8.646  25.140  15.241  1.00  0.00     0.181 C
BRANCH  14  15
HETATM   15  C3  UNL     1      -8.593  26.427  15.908  1.00  0.00     0.242 C
HETATM   16  N1  UNL     1      -8.016  27.572  15.320  1.00  0.00    -0.359 N
HETATM   17  C1  UNL     1      -8.068  28.882  16.018  1.00  0.00     0.152 C
HETATM   18  C2  UNL     1      -7.290  27.614  14.065  1.00  0.00     0.152 C
HETATM   19  O1  UNL     1      -9.065  26.602  17.086  1.00  0.00    -0.271 OA
ENDBRANCH  14  15
BRANCH  14  20
HETATM   20  C5  UNL     1      -9.644  24.191  15.794  1.00  0.00     0.076 C
BRANCH  20  21
HETATM   21  C6  UNL     1     -10.577  23.550  14.851  1.00  0.00    -0.014 A
HETATM   22  C7  UNL     1     -10.174  22.381  14.202  1.00  0.00     0.055 A
HETATM   23  C8  UNL     1     -11.001  21.791  13.298  1.00  0.00     0.155 A
HETATM   24  F1  UNL     1     -10.613  20.646  12.650  1.00  0.00    -0.203 F
HETATM   25  C9  UNL     1     -12.254  22.314  12.989  1.00  0.00     0.157 A
HETATM   26  F2  UNL     1     -13.068  21.709  12.075  1.00  0.00    -0.203 F
HETATM   27  C10 UNL     1     -12.613  23.460  13.648  1.00  0.00     0.088 A
HETATM   28  C11 UNL     1     -11.810  24.096  14.573  1.00  0.00     0.125 A
HETATM   29  F3  UNL     1     -12.285  25.222  15.211  1.00  0.00    -0.205 F
ENDBRANCH  20  21
ENDBRANCH  14  20
ENDBRANCH  11  14
ENDBRANCH   9  10
ENDBRANCH   1   9
BRANCH   3  30
HETATM   30  C17 UNL     1      -1.838  26.521  15.145  1.00  0.00     0.185 C
BRANCH  30  31
HETATM   31  O3  UNL     1      -0.809  25.808  15.480  1.00  0.00    -0.346 OA
BRANCH  31  32
HETATM   32  C18 UNL     1       0.195  25.063  15.763  1.00  0.00     0.126 A
HETATM   33  C19 UNL     1       1.398  25.645  16.194  1.00  0.00     0.130 A
HETATM   34  N3  UNL     1       2.464  24.912  16.495  1.00  0.00    -0.338 N
HETATM   35  C20 UNL     1       2.442  23.559  16.400  1.00  0.00     0.230 A
ATOM     36  H3  UNL     1       3.317  25.377  16.805  1.00  0.00     0.167 HD
HETATM   37  F4  UNL     1       3.523  22.815  16.704  1.00  0.00    -0.183 F
HETATM   38  C21 UNL     1       1.281  22.962  15.984  1.00  0.00     0.213 A
HETATM   39  F5  UNL     1       1.234  21.594  15.883  1.00  0.00    -0.198 F
HETATM   40  C22 UNL     1       0.171  23.676  15.666  1.00  0.00     0.194 A
HETATM   41  F6  UNL     1      -0.973  23.033  15.262  1.00  0.00    -0.200 F
ENDBRANCH  31  32
ENDBRANCH  30  31
ENDBRANCH   3  30
BRANCH   6  42
HETATM   42  C26 UNL     1      -2.498  24.904  10.521  1.00  0.00     0.181 C
HETATM   43  O4  UNL     1      -2.020  23.761  10.472  1.00  0.00    -0.647 OA
HETATM   44  O5  UNL     1      -2.483  25.691   9.383  1.00  0.00    -0.647 OA
ENDBRANCH   6  42
TORSDOF 10
ENDMDL