MODEL 5
REMARK VINA RESULT: -5.580265054      7.745     10.329
REMARK  8 active torsions:
REMARK  status: ('A' for Active; 'I' for Inactive)
REMARK       I    between atoms: C2_2  and  N1_4
REMARK    1  A    between atoms: N1_4  and  C3_6
REMARK    2  A    between atoms: C3_6  and  C5_8
REMARK    3  A    between atoms: C5_8  and  O3_10
REMARK    4  A    between atoms: O3_10  and  C6_11
REMARK    5  A    between atoms: C6_11  and  O4_12
REMARK    6  A    between atoms: C12_20  and  O6_21
REMARK    7  A    between atoms: C12_20  and  C13_23
REMARK    8  A    between atoms: C16_26  and  O7_28
ROOT
HETATM    1  C6  UNL     1      18.314  42.162 -38.815  1.00  0.00     0.209 C
HETATM    2  C7  UNL     1      19.763  42.513 -38.834  1.00  0.00     0.093 C
HETATM    3  C8  UNL     1      20.090  43.205 -37.527  1.00  0.00     0.092 C
HETATM    4  C9  UNL     1      19.158  44.387 -37.442  1.00  0.00     0.135 C
HETATM    5  O5  UNL     1      19.026  45.053 -36.449  1.00  0.00    -0.297 OA
HETATM    6  C10 UNL     1      18.401  44.665 -38.718  1.00  0.00     0.098 C
HETATM    7  C11 UNL     1      19.443  44.795 -39.801  1.00  0.00     0.054 C
HETATM    8  C12 UNL     1      20.044  43.412 -40.019  1.00  0.00     0.071 C
HETATM    9  C16 UNL     1      17.518  43.441 -38.941  1.00  0.00     0.121 C
HETATM   10  C17 UNL     1      16.471  43.467 -37.849  1.00  0.00     0.052 C
ENDROOT
BRANCH   1  11
HETATM   11  O3  UNL     1      17.951  41.479 -37.616  1.00  0.00    -0.278 OA
BRANCH  11  12
HETATM   12  C5  UNL     1      18.385  40.215 -37.295  1.00  0.00     0.284 C
HETATM   13  O2  UNL     1      18.935  39.530 -38.195  1.00  0.00    -0.263 OA
BRANCH  12  14
HETATM   14  C3  UNL     1      18.225  39.634 -35.923  1.00  0.00     0.180 C
HETATM   15  C4  UNL     1      19.209  38.518 -35.677  1.00  0.00     0.043 C
BRANCH  14  16
HETATM   16  N1  UNL     1      16.902  39.116 -35.764  1.00  0.00    -0.348 N
HETATM   17  C2  UNL     1      16.319  38.829 -34.502  1.00  0.00     0.214 C
HETATM   18  C1  UNL     1      14.949  38.294 -34.370  1.00  0.00     0.117 C
HETATM   19  O1  UNL     1      16.964  39.026 -33.434  1.00  0.00    -0.274 OA
ATOM     20  H1  UNL     1      16.348  38.943 -36.603  1.00  0.00     0.163 HD
ENDBRANCH  14  16
ENDBRANCH  12  14
ENDBRANCH  11  12
ENDBRANCH   1  11
BRANCH   1  21
HETATM   21  O4  UNL     1      17.948  41.341 -39.870  1.00  0.00    -0.362 OA
ATOM     22  H4  UNL     1      17.058  41.576 -40.104  1.00  0.00     0.213 HD
ENDBRANCH   1  21
BRANCH   9  23
HETATM   23  O7  UNL     1      16.864  43.540 -40.170  1.00  0.00    -0.384 OA
ATOM     24  H7  UNL     1      16.857  44.429 -40.505  1.00  0.00     0.210 HD
ENDBRANCH   9  23
BRANCH   8  25
HETATM   25  O6  UNL     1      19.497  42.915 -41.179  1.00  0.00    -0.389 OA
ATOM     26  H6  UNL     1      19.657  41.983 -41.275  1.00  0.00     0.210 HD
ENDBRANCH   8  25
BRANCH   8  27
HETATM   27  C13 UNL     1      21.557  43.503 -40.146  1.00  0.00     0.012 C
HETATM   28  C14 UNL     1      22.055  44.907 -40.246  1.00  0.00     0.012 C
HETATM   29  C15 UNL     1      22.052  42.683 -41.314  1.00  0.00     0.012 C
ENDBRANCH   8  27
TORSDOF 8
ENDMDL