MODEL 5
REMARK VINA RESULT: -6.389719487      1.452      1.826
REMARK  9 active torsions:
REMARK  status: ('A' for Active; 'I' for Inactive)
REMARK    1  A    between atoms: O1_2  and  C2_3
REMARK    2  A    between atoms: C2_3  and  C3_5
REMARK    3  A    between atoms: C3_5  and  C4_6
REMARK    4  A    between atoms: C4_6  and  C5_7
REMARK    5  A    between atoms: C5_7  and  N1_8
REMARK    6  A    between atoms: N3_17  and  N4_19
REMARK    7  A    between atoms: N4_19  and  C11_21
REMARK    8  A    between atoms: C11_21  and  N5_23
REMARK    9  A    between atoms: N5_23  and  N6_25
REMARK       I    between atoms: N6_25  and  C12_27
ROOT
HETATM    1  C3  UNL     1      11.463  46.706 -33.829  1.00  0.00     0.102 C
HETATM    2  N3  UNL     1      12.188  46.604 -34.835  1.00  0.00    -0.297 N
ATOM      3  H3  UNL     1      12.359  47.478 -35.333  1.00  0.00     0.187 HD
ENDROOT
BRANCH   1   4
HETATM    4  C2  UNL     1      11.108  45.583 -32.996  1.00  0.00     0.306 C
HETATM    5  O2  UNL     1      10.084  45.693 -32.256  1.00  0.00    -0.258 OA
BRANCH   4   6
HETATM    6  O1  UNL     1      11.809  44.377 -32.942  1.00  0.00    -0.322 OA
HETATM    7  C1  UNL     1      11.358  43.304 -33.750  1.00  0.00     0.213 C
ENDBRANCH   4   6
ENDBRANCH   1   4
BRANCH   1   8
HETATM    8  C4  UNL     1      10.971  48.083 -33.457  1.00  0.00     0.087 C
BRANCH   8   9
HETATM    9  C5  UNL     1      11.470  49.133 -34.415  1.00  0.00     0.158 C
BRANCH   9  10
HETATM   10  N1  UNL     1      10.423  49.621 -35.278  1.00  0.00    -0.257 N
HETATM   11  N2  UNL     1      10.320  50.845 -35.738  1.00  0.00    -0.300 N
HETATM   12  C6  UNL     1       9.225  50.941 -36.522  1.00  0.00     0.033 A
ATOM     13  H2  UNL     1      10.967  51.607 -35.534  1.00  0.00     0.187 HD
HETATM   14  C7  UNL     1       8.798  52.183 -37.215  1.00  0.00     0.070 C
HETATM   15  C8  UNL     1       8.618  49.711 -36.549  1.00  0.00     0.031 A
HETATM   16  C9  UNL     1       7.396  49.368 -37.280  1.00  0.00     0.056 C
HETATM   17  C10 UNL     1       9.411  48.897 -35.745  1.00  0.00     0.269 A
HETATM   18  O3  UNL     1       9.131  47.686 -35.554  1.00  0.00    -0.266 OA
ENDBRANCH   9  10
ENDBRANCH   8   9
ENDBRANCH   1   8
BRANCH   2  19
HETATM   19  N4  UNL     1      12.793  45.501 -35.378  1.00  0.00    -0.275 N
ATOM     20  H4  UNL     1      13.130  44.746 -34.781  1.00  0.00     0.189 HD
BRANCH  19  21
HETATM   21  C11 UNL     1      12.940  45.430 -36.782  1.00  0.00     0.205 C
HETATM   22  S1  UNL     1      11.611  45.408 -37.714  1.00  0.00    -0.038 SA
BRANCH  21  23
HETATM   23  N5  UNL     1      14.237  45.378 -37.348  1.00  0.00    -0.273 N
ATOM     24  H5  UNL     1      14.888  46.135 -37.142  1.00  0.00     0.189 HD
BRANCH  23  25
HETATM   25  N6  UNL     1      14.664  44.344 -38.172  1.00  0.00    -0.268 N
HETATM   26  C12 UNL     1      16.017  44.304 -38.573  1.00  0.00     0.232 C
HETATM   27  C13 UNL     1      16.526  43.226 -39.450  1.00  0.00     0.119 C
HETATM   28  O4  UNL     1      16.795  45.203 -38.175  1.00  0.00    -0.272 OA
ATOM     29  H6  UNL     1      14.011  43.625 -38.482  1.00  0.00     0.190 HD
ENDBRANCH  23  25
ENDBRANCH  21  23
ENDBRANCH  19  21
ENDBRANCH   2  19
TORSDOF 9
ENDMDL