MODEL 3
REMARK VINA RESULT: -5.136966063      0.411      1.013
REMARK  9 active torsions:
REMARK  status: ('A' for Active; 'I' for Inactive)
REMARK    1  A    between atoms: C3_3  and  O1_4
REMARK    2  A    between atoms: N1_7  and  C5_8
REMARK    3  A    between atoms: C5_8  and  C6_9
REMARK    4  A    between atoms: C6_9  and  N2_10
REMARK    5  A    between atoms: C13_18  and  O3_19
REMARK    6  A    between atoms: C13_18  and  C14_21
REMARK    7  A    between atoms: C14_21  and  O4_22
REMARK    8  A    between atoms: C14_21  and  N3_24
REMARK    9  A    between atoms: N3_24  and  C15_26
ROOT
HETATM    1  C1  UNL     1      17.105  41.242 -37.079  1.00  0.00     0.015 C
HETATM    2  C2  UNL     1      17.475  41.931 -38.010  1.00  0.00    -0.074 C
HETATM    3  C3  UNL     1      17.920  42.760 -39.147  1.00  0.00     0.171 C
HETATM    4  C4  UNL     1      16.697  43.500 -39.664  1.00  0.00     0.181 C
HETATM    5  N1  UNL     1      16.080  44.168 -38.574  1.00  0.00    -0.368 N
HETATM    6  C11 UNL     1      16.870  44.994 -37.796  1.00  0.00     0.066 C
HETATM    7  C12 UNL     1      18.252  44.560 -37.514  1.00  0.00     0.091 C
HETATM    8  C13 UNL     1      18.925  43.719 -38.610  1.00  0.00     0.149 C
ENDROOT
BRANCH   3   9
HETATM    9  O1  UNL     1      18.332  41.952 -40.163  1.00  0.00    -0.373 OA
ATOM     10  H1  UNL     1      19.267  41.799 -40.087  1.00  0.00     0.212 HD
ENDBRANCH   3   9
BRANCH   8  11
HETATM   11  O3  UNL     1      19.884  42.996 -37.883  1.00  0.00    -0.381 OA
ATOM     12  H3  UNL     1      19.973  43.395 -37.026  1.00  0.00     0.211 HD
ENDBRANCH   8  11
BRANCH   8  13
HETATM   13  C14 UNL     1      19.586  44.610 -39.620  1.00  0.00     0.253 C
BRANCH  13  14
HETATM   14  O4  UNL     1      20.002  45.763 -38.936  1.00  0.00    -0.374 OA
ATOM     15  H4  UNL     1      20.729  45.507 -38.380  1.00  0.00     0.212 HD
ENDBRANCH  13  14
BRANCH  13  16
HETATM   16  N3  UNL     1      20.465  44.060 -40.489  1.00  0.00    -0.387 N
ATOM     17  H3  UNL     1      21.069  43.366 -40.049  1.00  0.00     0.156 HD
BRANCH  16  18
HETATM   18  C15 UNL     1      20.729  44.218 -41.806  1.00  0.00     0.017 C
HETATM   19  C16 UNL     1      22.305  44.329 -41.917  1.00  0.00     0.037 C
HETATM   20  C17 UNL     1      20.431  43.127 -42.794  1.00  0.00     0.037 C
HETATM   21  C18 UNL     1      20.287  45.521 -42.404  1.00  0.00     0.037 C
ENDBRANCH  16  18
ENDBRANCH  13  16
ENDBRANCH   8  13
BRANCH   5  22
HETATM   22  C5  UNL     1      14.766  43.834 -38.269  1.00  0.00     0.093 C
BRANCH  22  23
HETATM   23  C6  UNL     1      13.663  44.489 -39.012  1.00  0.00     0.317 C
BRANCH  23  24
HETATM   24  N2  UNL     1      12.744  45.056 -38.009  1.00  0.00     0.097 N
HETATM   25  C7  UNL     1      13.413  46.027 -37.185  1.00  0.00     0.299 C
HETATM   26  C8  UNL     1      12.454  46.469 -36.111  1.00  0.00     0.198 C
HETATM   27  O2  UNL     1      12.322  45.354 -35.249  1.00  0.00    -0.388 OA
HETATM   28  C9  UNL     1      11.550  44.451 -35.920  1.00  0.00     0.198 C
HETATM   29  C10 UNL     1      12.036  44.051 -37.275  1.00  0.00     0.299 C
ENDBRANCH  23  24
ENDBRANCH  22  23
ENDBRANCH   5  22
TORSDOF 9
ENDMDL