MODEL 4
REMARK VINA RESULT: -4.874430133      5.521      9.007
REMARK  11 active torsions:
REMARK  status: ('A' for Active; 'I' for Inactive)
REMARK    1  A    between atoms: C2_2  and  C3_3
REMARK    2  A    between atoms: C3_3  and  O1_4
REMARK    3  A    between atoms: C3_3  and  C5_8
REMARK    4  A    between atoms: O1_4  and  C4_5
REMARK    5  A    between atoms: C6_9  and  O3_10
REMARK    6  A    between atoms: C7_12  and  O4_13
REMARK    7  A    between atoms: C8_15  and  O5_16
REMARK    8  A    between atoms: O5_16  and  C9_17
REMARK       I    between atoms: C9_17  and  N2_19
REMARK    9  A    between atoms: N2_19  and  C10_20
REMARK   10  A    between atoms: N2_19  and  C13_23
REMARK   11  A    between atoms: C16_26  and  O7_27
ROOT
HETATM    1  C5  UNL     1      18.893  43.287 -37.576  1.00  0.00     0.078 C
HETATM    2  C6  UNL     1      20.071  44.137 -37.157  1.00  0.00     0.158 C
HETATM    3  C7  UNL     1      21.259  43.169 -37.039  1.00  0.00     0.179 C
HETATM    4  C8  UNL     1      20.559  41.885 -36.749  1.00  0.00     0.194 C
HETATM    5  C16 UNL     1      19.449  41.927 -37.814  1.00  0.00     0.159 C
ENDROOT
BRANCH   4   6
HETATM    6  O5  UNL     1      21.325  40.743 -36.881  1.00  0.00    -0.293 OA
BRANCH   6   7
HETATM    7  C9  UNL     1      21.388  39.794 -35.884  1.00  0.00     0.364 C
HETATM    8  O6  UNL     1      22.269  39.978 -35.005  1.00  0.00    -0.238 OA
HETATM    9  N2  UNL     1      20.521  38.662 -35.827  1.00  0.00    -0.320 N
BRANCH   9  10
HETATM   10  C10 UNL     1      20.664  37.734 -34.754  1.00  0.00     0.081 C
HETATM   11  C11 UNL     1      22.010  37.064 -34.692  1.00  0.00     0.032 C
HETATM   12  C12 UNL     1      20.461  38.406 -33.388  1.00  0.00     0.032 C
ENDBRANCH   9  10
BRANCH   9  13
HETATM   13  C13 UNL     1      19.505  38.453 -36.845  1.00  0.00     0.081 C
HETATM   14  C14 UNL     1      19.471  37.011 -37.314  1.00  0.00     0.032 C
HETATM   15  C15 UNL     1      18.153  38.750 -36.233  1.00  0.00     0.032 C
ENDBRANCH   9  13
ENDBRANCH   6   7
ENDBRANCH   4   6
BRANCH   3  16
HETATM   16  O4  UNL     1      21.914  43.194 -38.248  1.00  0.00    -0.390 OA
ATOM     17  H4  UNL     1      21.274  42.960 -38.911  1.00  0.00     0.210 HD
ENDBRANCH   3  16
BRANCH   5  18
HETATM   18  O7  UNL     1      20.064  41.754 -39.028  1.00  0.00    -0.392 OA
ATOM     19  H7  UNL     1      19.941  40.899 -39.423  1.00  0.00     0.210 HD
ENDBRANCH   5  18
BRANCH   2  20
HETATM   20  O3  UNL     1      19.835  44.761 -35.935  1.00  0.00    -0.392 OA
ATOM     21  H3  UNL     1      20.642  44.886 -35.449  1.00  0.00     0.210 HD
ENDBRANCH   2  20
BRANCH   1  22
HETATM   22  C3  UNL     1      18.189  43.931 -38.690  1.00  0.00     0.142 C
BRANCH  22  23
HETATM   23  C2  UNL     1      17.110  44.909 -38.303  1.00  0.00     0.029 C
HETATM   24  C1  UNL     1      15.733  44.331 -38.326  1.00  0.00     0.007 C
ENDBRANCH  22  23
BRANCH  22  25
HETATM   25  O1  UNL     1      19.127  44.671 -39.451  1.00  0.00    -0.300 OA
BRANCH  25  26
HETATM   26  C4  UNL     1      19.425  44.375 -40.763  1.00  0.00     0.373 C
HETATM   27  N1  UNL     1      20.302  45.237 -41.474  1.00  0.00    -0.032 NA
HETATM   28  O2  UNL     1      18.906  43.353 -41.273  1.00  0.00    -0.242 OA
ENDBRANCH  25  26
ENDBRANCH  22  25
ENDBRANCH   1  22
TORSDOF 11
ENDMDL