MODEL 3
REMARK VINA RESULT: -5.859253252      2.058      3.035
REMARK  8 active torsions:
REMARK  status: ('A' for Active; 'I' for Inactive)
REMARK    1  A    between atoms: C3_3  and  C4_4
REMARK    2  A    between atoms: C5_5  and  C6_6
REMARK    3  A    between atoms: C8_9  and  O2_10
REMARK    4  A    between atoms: C9_12  and  C10_13
REMARK    5  A    between atoms: C12_17  and  O5_18
REMARK    6  A    between atoms: C14_22  and  C15_23
REMARK    7  A    between atoms: C15_23  and  C16_25
REMARK    8  A    between atoms: C16_25  and  O8_27
ROOT
HETATM    1  C6  UNL     1      17.735  43.589 -39.620  1.00  0.00     0.159 C
HETATM    2  O1  UNL     1      18.722  44.505 -39.946  1.00  0.00    -0.371 OA
HETATM    3  C7  UNL     1      19.902  43.786 -40.123  1.00  0.00     0.181 C
HETATM    4  C8  UNL     1      20.234  43.841 -41.592  1.00  0.00     0.164 C
HETATM    5  C9  UNL     1      21.497  43.114 -41.946  1.00  0.00     0.122 C
HETATM    6  C11 UNL     1      21.636  41.784 -41.266  1.00  0.00     0.078 C
HETATM    7  C12 UNL     1      21.872  41.931 -39.778  1.00  0.00     0.258 C
HETATM    8  O6  UNL     1      20.732  41.806 -39.028  1.00  0.00    -0.353 OA
HETATM    9  C13 UNL     1      19.663  42.390 -39.627  1.00  0.00     0.170 C
HETATM   10  C14 UNL     1      18.514  42.681 -38.644  1.00  0.00     0.122 C
ENDROOT
BRANCH  10  11
HETATM   11  C15 UNL     1      18.934  43.518 -37.515  1.00  0.00     0.164 C
HETATM   12  O7  UNL     1      18.262  44.505 -37.170  1.00  0.00    -0.295 OA
BRANCH  11  13
HETATM   13  C16 UNL     1      20.163  43.251 -36.727  1.00  0.00     0.184 C
HETATM   14  C17 UNL     1      20.462  44.414 -35.775  1.00  0.00     0.047 C
BRANCH  13  15
HETATM   15  O8  UNL     1      20.132  42.083 -36.014  1.00  0.00    -0.388 OA
ATOM     16  H8  UNL     1      19.461  41.471 -36.296  1.00  0.00     0.210 HD
ENDBRANCH  13  15
ENDBRANCH  11  13
ENDBRANCH  10  11
BRANCH   1  17
HETATM   17  C5  UNL     1      16.558  44.182 -39.010  1.00  0.00     0.006 C
HETATM   18  C4  UNL     1      15.364  43.667 -39.218  1.00  0.00    -0.002 C
BRANCH  18  19
HETATM   19  C3  UNL     1      14.188  44.259 -38.609  1.00  0.00    -0.005 C
HETATM   20  C2  UNL     1      14.318  45.081 -37.606  1.00  0.00    -0.031 C
HETATM   21  C1  UNL     1      13.110  45.682 -36.990  1.00  0.00     0.036 C
ENDBRANCH  18  19
ENDBRANCH   1  17
BRANCH   4  22
HETATM   22  O2  UNL     1      19.153  43.437 -42.370  1.00  0.00    -0.392 OA
ATOM     23  H2  UNL     1      18.514  44.134 -42.461  1.00  0.00     0.210 HD
ENDBRANCH   4  22
BRANCH   7  24
HETATM   24  O5  UNL     1      22.782  40.944 -39.341  1.00  0.00    -0.371 OA
ATOM     25  H5  UNL     1      22.325  40.300 -38.811  1.00  0.00     0.212 HD
ENDBRANCH   7  24
BRANCH   5  26
HETATM   26  C10 UNL     1      21.525  42.899 -43.414  1.00  0.00     0.179 C
HETATM   27  O3  UNL     1      21.767  43.826 -44.227  1.00  0.00    -0.648 OA
HETATM   28  O4  UNL     1      21.274  41.628 -43.903  1.00  0.00    -0.648 OA
ENDBRANCH   5  26
TORSDOF 8
ENDMDL