MODEL 2
REMARK VINA RESULT: -4.883037430      3.905      5.410
REMARK  9 active torsions:
REMARK  status: ('A' for Active; 'I' for Inactive)
REMARK    1  A    between atoms: C4_4  and  C5_5
REMARK    2  A    between atoms: C5_5  and  O1_6
REMARK    3  A    between atoms: C5_5  and  C6_8
REMARK    4  A    between atoms: C8_11  and  O3_12
REMARK    5  A    between atoms: C9_14  and  O4_15
REMARK    6  A    between atoms: C10_17  and  O5_18
REMARK    7  A    between atoms: O5_18  and  C11_19
REMARK    8  A    between atoms: C14_23  and  C15_24
REMARK    9  A    between atoms: C16_25  and  C17_26
ROOT
HETATM    1  C1  UNL     1      19.383  45.588 -36.855  1.00  0.00     0.010 C
HETATM    2  C2  UNL     1      18.879  45.226 -38.238  1.00  0.00    -0.010 C
HETATM    3  C3  UNL     1      17.420  44.971 -38.276  1.00  0.00     0.013 C
HETATM    4  C4  UNL     1      17.085  43.533 -38.707  1.00  0.00     0.029 C
HETATM    5  C7  UNL     1      18.009  42.711 -37.913  1.00  0.00     0.035 C
HETATM    6  C8  UNL     1      17.824  41.258 -37.857  1.00  0.00     0.154 C
HETATM    7  C9  UNL     1      19.191  40.795 -37.397  1.00  0.00     0.177 C
HETATM    8  C10 UNL     1      20.158  41.980 -37.661  1.00  0.00     0.171 C
HETATM    9  C12 UNL     1      19.360  42.783 -38.605  1.00  0.00    -0.001 C
HETATM   10  C13 UNL     1      19.292  41.965 -39.909  1.00  0.00     0.019 C
HETATM   11  C14 UNL     1      19.761  44.183 -38.898  1.00  0.00     0.023 C
ENDROOT
BRANCH   4  12
HETATM   12  C5  UNL     1      15.617  43.345 -38.468  1.00  0.00     0.183 C
BRANCH  12  13
HETATM   13  O1  UNL     1      14.913  42.810 -39.515  1.00  0.00    -0.388 OA
ATOM     14  H1  UNL     1      14.519  43.440 -40.106  1.00  0.00     0.210 HD
ENDBRANCH  12  13
BRANCH  12  15
HETATM   15  C6  UNL     1      14.991  44.552 -37.886  1.00  0.00     0.263 C
HETATM   16  O2  UNL     1      14.056  44.478 -37.126  1.00  0.00    -0.304 OA
ENDBRANCH  12  15
ENDBRANCH   4  12
BRANCH   6  17
HETATM   17  O3  UNL     1      16.873  40.795 -36.946  1.00  0.00    -0.392 OA
ATOM     18  H3  UNL     1      16.913  41.170 -36.073  1.00  0.00     0.210 HD
ENDBRANCH   6  17
BRANCH  11  19
HETATM   19  C15 UNL     1      21.142  44.541 -38.532  1.00  0.00    -0.014 C
HETATM   20  C16 UNL     1      22.072  45.078 -39.253  1.00  0.00     0.081 C
BRANCH  20  21
HETATM   21  C17 UNL     1      21.995  45.476 -40.631  1.00  0.00     0.198 C
HETATM   22  O7  UNL     1      22.516  44.930 -41.627  1.00  0.00    -0.645 OA
HETATM   23  O8  UNL     1      21.241  46.637 -40.988  1.00  0.00    -0.645 OA
ENDBRANCH  20  21
ENDBRANCH  11  19
BRANCH   7  24
HETATM   24  O4  UNL     1      19.146  40.511 -36.053  1.00  0.00    -0.390 OA
ATOM     25  H4  UNL     1      19.173  41.323 -35.560  1.00  0.00     0.210 HD
ENDBRANCH   7  24
BRANCH   8  26
HETATM   26  O5  UNL     1      21.376  41.462 -38.155  1.00  0.00    -0.319 OA
BRANCH  26  27
HETATM   27  C11 UNL     1      22.405  41.239 -37.260  1.00  0.00     0.398 C
HETATM   28  O6  UNL     1      22.238  41.144 -36.020  1.00  0.00    -0.276 OA
ENDBRANCH  26  27
ENDBRANCH   8  26
TORSDOF 9
ENDMDL