MODEL 2
REMARK VINA RESULT: -7.034874928      1.106      1.503
REMARK  6 active torsions:
REMARK  status: ('A' for Active; 'I' for Inactive)
REMARK    1  A    between atoms: O1_2  and  N1_3
REMARK    2  A    between atoms: N1_3  and  C2_4
REMARK    3  A    between atoms: C7_9  and  C8_10
REMARK    4  A    between atoms: N2_11  and  N3_13
REMARK       I    between atoms: N3_13  and  C9_15
REMARK    5  A    between atoms: C9_15  and  C10_17
REMARK       I    between atoms: C10_17  and  N4_19
REMARK    6  A    between atoms: N4_19  and  C11_21
ROOT
HETATM    1  N3  UNL     1      12.591  44.994 -36.381  1.00  0.00    -0.262 N
ATOM      2  H3  UNL     1      13.235  44.637 -35.676  1.00  0.00     0.190 HD
HETATM    3  C9  UNL     1      12.944  44.934 -37.740  1.00  0.00     0.327 C
HETATM    4  O2  UNL     1      12.138  45.382 -38.624  1.00  0.00    -0.261 OA
ENDROOT
BRANCH   1   5
HETATM    5  N2  UNL     1      11.375  45.534 -35.989  1.00  0.00    -0.312 N
HETATM    6  C8  UNL     1      11.313  46.763 -35.644  1.00  0.00     0.086 C
ATOM      7  H2  UNL     1      10.536  44.955 -35.977  1.00  0.00     0.185 HD
BRANCH   6   8
HETATM    8  C7  UNL     1       9.995  47.301 -35.232  1.00  0.00     0.047 C
HETATM    9  C2  UNL     1       9.903  47.364 -33.711  1.00  0.00     0.115 C
HETATM   10  C3  UNL     1      11.168  48.018 -33.251  1.00  0.00     0.024 C
HETATM   11  C4  UNL     1      11.365  49.383 -33.790  1.00  0.00     0.002 C
HETATM   12  C5  UNL     1      10.923  49.630 -35.173  1.00  0.00     0.001 C
HETATM   13  C6  UNL     1       9.876  48.714 -35.714  1.00  0.00     0.011 C
BRANCH   9  14
HETATM   14  N1  UNL     1       9.766  46.046 -33.169  1.00  0.00    -0.096 NA
BRANCH  14  15
HETATM   15  O1  UNL     1      10.764  45.715 -32.351  1.00  0.00    -0.291 OA
HETATM   16  C1  UNL     1      11.380  44.520 -32.644  1.00  0.00     0.231 C
ENDBRANCH  14  15
ENDBRANCH   9  14
ENDBRANCH   6   8
ENDBRANCH   1   5
BRANCH   3  17
HETATM   17  C10 UNL     1      14.210  44.377 -38.215  1.00  0.00     0.311 C
HETATM   18  O3  UNL     1      14.190  43.737 -39.294  1.00  0.00    -0.262 OA
HETATM   19  N4  UNL     1      15.419  44.543 -37.505  1.00  0.00    -0.347 N
ATOM     20  H4  UNL     1      15.423  45.066 -36.630  1.00  0.00     0.163 HD
BRANCH  19  21
HETATM   21  C11 UNL     1      16.627  43.986 -38.000  1.00  0.00     0.099 C
HETATM   22  C12 UNL     1      17.750  45.007 -38.137  1.00  0.00     0.041 C
HETATM   23  C13 UNL     1      18.938  44.086 -38.448  1.00  0.00     0.142 C
HETATM   24  S1  UNL     1      18.218  43.201 -39.842  1.00  0.00     0.146 S
HETATM   25  O4  UNL     1      18.596  41.773 -39.840  1.00  0.00    -0.228 OA
HETATM   26  O5  UNL     1      18.558  43.920 -41.099  1.00  0.00    -0.228 OA
HETATM   27  C14 UNL     1      16.483  43.438 -39.424  1.00  0.00     0.165 C
ENDBRANCH  19  21
ENDBRANCH   3  17
TORSDOF 6
ENDMDL