MODEL 1
REMARK VINA RESULT: -4.621225366      0.000      0.000
REMARK  7 active torsions:
REMARK  status: ('A' for Active; 'I' for Inactive)
REMARK    1  A    between atoms: S1_2  and  C2_4
REMARK    2  A    between atoms: S1_2  and  C5_7
REMARK    3  A    between atoms: C8_13  and  C9_14
REMARK    4  A    between atoms: C9_14  and  N2_16
REMARK    5  A    between atoms: N2_16  and  S2_18
REMARK    6  A    between atoms: C12_22  and  O4_23
REMARK    7  A    between atoms: C13_25  and  O5_26
ROOT
HETATM    1  C5  UNL     1      19.225  42.611 -37.163  1.00  0.00     0.129 C
HETATM    2  C6  UNL     1      18.243  41.726 -37.784  1.00  0.00     0.200 C
HETATM    3  C7  UNL     1      17.296  42.346 -38.789  1.00  0.00     0.041 C
HETATM    4  N1  UNL     1      18.783  40.485 -38.345  1.00  0.00    -0.061 N
ATOM      5  H11 UNL     1      19.467  40.674 -39.078  1.00  0.00     0.278 HD
ATOM      6  H12 UNL     1      18.085  39.993 -38.903  1.00  0.00     0.278 HD
HETATM    7  C8  UNL     1      19.332  39.633 -37.320  1.00  0.00     0.240 C
HETATM    8  C12 UNL     1      19.962  40.434 -36.239  1.00  0.00     0.180 C
HETATM    9  C13 UNL     1      20.477  41.754 -36.862  1.00  0.00     0.166 C
ENDROOT
BRANCH   7  10
HETATM   10  C9  UNL     1      18.419  38.527 -36.921  1.00  0.00     0.122 C
HETATM   11  C10 UNL     1      19.108  37.245 -37.484  1.00  0.00     0.035 C
BRANCH  10  12
HETATM   12  N2  UNL     1      18.141  38.375 -35.546  1.00  0.00    -0.313 N
ATOM     13  H2  UNL     1      18.821  37.959 -34.910  1.00  0.00     0.172 HD
BRANCH  12  14
HETATM   14  S2  UNL     1      16.624  38.911 -34.988  1.00  0.00     0.223 S
HETATM   15  C11 UNL     1      15.405  37.800 -35.724  1.00  0.00     0.185 C
HETATM   16  O2  UNL     1      16.221  40.270 -35.384  1.00  0.00    -0.206 OA
HETATM   17  O3  UNL     1      16.474  38.682 -33.489  1.00  0.00    -0.206 OA
ENDBRANCH  12  14
ENDBRANCH  10  12
ENDBRANCH   7  10
BRANCH   8  18
HETATM   18  O4  UNL     1      19.158  40.836 -35.209  1.00  0.00    -0.391 OA
ATOM     19  H4  UNL     1      19.553  41.379 -34.537  1.00  0.00     0.210 HD
ENDBRANCH   8  18
BRANCH   9  20
HETATM   20  O5  UNL     1      21.263  41.526 -37.944  1.00  0.00    -0.392 OA
ATOM     21  H5  UNL     1      21.755  40.714 -37.899  1.00  0.00     0.210 HD
ENDBRANCH   9  20
BRANCH   1  22
HETATM   22  S1  UNL     1      19.653  44.122 -37.861  1.00  0.00    -0.047 S
HETATM   23  C1  UNL     1      18.480  45.146 -38.156  1.00  0.00     0.114 C
HETATM   24  O1  UNL     1      20.142  43.857 -39.288  1.00  0.00    -0.270 OA
BRANCH  22  25
HETATM   25  C2  UNL     1      20.998  44.898 -37.009  1.00  0.00     0.059 C
HETATM   26  C3  UNL     1      20.511  46.002 -36.091  1.00  0.00     0.022 C
HETATM   27  C4  UNL     1      21.960  45.550 -37.987  1.00  0.00     0.022 C
ENDBRANCH  22  25
ENDBRANCH   1  22
TORSDOF 7
ENDMDL