MODEL 1
REMARK VINA RESULT: -5.799577106      0.000      0.000
REMARK  8 active torsions:
REMARK  status: ('A' for Active; 'I' for Inactive)
REMARK    1  A    between atoms: C2_2  and  O1_3
REMARK    2  A    between atoms: O1_3  and  C3_4
REMARK    3  A    between atoms: C3_4  and  C4_6
REMARK    4  A    between atoms: N3_12  and  C6_14
REMARK    5  A    between atoms: C6_14  and  C7_15
REMARK    6  A    between atoms: C6_14  and  C10_26
REMARK       I    between atoms: C7_15  and  N4_17
REMARK    7  A    between atoms: N4_17  and  N5_19
REMARK       I    between atoms: N5_19  and  C8_21
REMARK       I    between atoms: C8_21  and  N6_23
REMARK    8  A    between atoms: C10_26  and  C12_28
ROOT
HETATM    1  C6  UNL     1      17.934  42.932 -38.737  1.00  0.00     0.181 C
ENDROOT
BRANCH   1   2
HETATM    2  N3  UNL     1      17.495  41.686 -38.224  1.00  0.00    -0.356 N
HETATM    3  C5  UNL     1      18.020  41.120 -37.184  1.00  0.00     0.162 A
HETATM    4  N2  UNL     1      19.020  41.522 -36.395  1.00  0.00    -0.279 N
HETATM    5  S1  UNL     1      17.603  39.611 -36.443  1.00  0.00    -0.028 SA
HETATM    6  N1  UNL     1      19.368  40.786 -35.418  1.00  0.00    -0.287 N
ATOM      7  H2  UNL     1      19.497  42.406 -36.572  1.00  0.00     0.189 HD
HETATM    8  C4  UNL     1      18.757  39.644 -35.186  1.00  0.00     0.168 A
ATOM      9  H1  UNL     1      20.128  41.084 -34.808  1.00  0.00     0.188 HD
ATOM     10  H3  UNL     1      16.727  41.211 -38.697  1.00  0.00     0.162 HD
BRANCH   8  11
HETATM   11  C3  UNL     1      19.012  38.658 -34.112  1.00  0.00     0.318 C
HETATM   12  O2  UNL     1      18.249  38.556 -33.140  1.00  0.00    -0.257 OA
BRANCH  11  13
HETATM   13  O1  UNL     1      20.107  37.836 -34.177  1.00  0.00    -0.316 OA
BRANCH  13  14
HETATM   14  C2  UNL     1      21.435  38.260 -34.039  1.00  0.00     0.175 C
HETATM   15  C1  UNL     1      21.714  38.870 -32.683  1.00  0.00     0.034 C
ENDBRANCH  13  14
ENDBRANCH  11  13
ENDBRANCH   8  11
ENDBRANCH   1   2
BRANCH   1  16
HETATM   16  C7  UNL     1      18.735  42.657 -39.961  1.00  0.00     0.259 C
HETATM   17  O3  UNL     1      19.089  41.494 -40.286  1.00  0.00    -0.269 OA
HETATM   18  N4  UNL     1      19.097  43.767 -40.774  1.00  0.00    -0.264 N
ATOM     19  H4  UNL     1      18.810  44.710 -40.513  1.00  0.00     0.190 HD
BRANCH  18  20
HETATM   20  N5  UNL     1      19.851  43.556 -41.936  1.00  0.00    -0.249 N
HETATM   21  C8  UNL     1      20.351  44.623 -42.713  1.00  0.00     0.334 C
HETATM   22  O4  UNL     1      20.125  45.832 -42.370  1.00  0.00    -0.246 OA
HETATM   23  N6  UNL     1      21.106  44.410 -43.879  1.00  0.00    -0.346 N
HETATM   24  C9  UNL     1      21.620  45.501 -44.677  1.00  0.00     0.151 C
ATOM     25  H6  UNL     1      21.298  43.452 -44.172  1.00  0.00     0.163 HD
ATOM     26  H5  UNL     1      20.045  42.599 -42.231  1.00  0.00     0.192 HD
ENDBRANCH  18  20
ENDBRANCH   1  16
BRANCH   1  27
HETATM   27  C10 UNL     1      16.832  43.917 -38.992  1.00  0.00     0.013 C
HETATM   28  C11 UNL     1      15.592  43.288 -39.542  1.00  0.00     0.012 C
BRANCH  27  29
HETATM   29  C12 UNL     1      16.482  44.769 -37.816  1.00  0.00     0.002 C
HETATM   30  C13 UNL     1      14.959  44.712 -37.639  1.00  0.00     0.005 C
ENDBRANCH  27  29
ENDBRANCH   1  27
TORSDOF 8
ENDMDL