MODEL 1
REMARK VINA RESULT: -7.251308451      0.000      0.000
REMARK  10 active torsions:
REMARK  status: ('A' for Active; 'I' for Inactive)
REMARK    1  A    between atoms: N1_1  and  C1_5
REMARK    2  A    between atoms: C1_5  and  C2_6
REMARK    3  A    between atoms: C2_6  and  N2_7
REMARK    4  A    between atoms: C2_6  and  C3_11
REMARK    5  A    between atoms: C3_11  and  C4_12
REMARK    6  A    between atoms: C9_17  and  C10_18
REMARK    7  A    between atoms: C10_18  and  N3_19
REMARK    8  A    between atoms: N3_19  and  C11_22
REMARK    9  A    between atoms: C11_22  and  C12_23
REMARK   10  A    between atoms: C11_22  and  C13_26
ROOT
HETATM    1  C4  UNL     1      -6.566  19.022 -25.075  1.00  0.00    -0.007 C
HETATM    2  C5  UNL     1      -5.604  17.891 -25.036  1.00  0.00     0.005 C
HETATM    3  C6  UNL     1      -6.393  16.606 -25.212  1.00  0.00     0.000 C
HETATM    4  C7  UNL     1      -7.126  16.367 -23.916  1.00  0.00     0.000 C
HETATM    5  C8  UNL     1      -7.363  17.643 -23.158  1.00  0.00     0.007 C
HETATM    6  C9  UNL     1      -7.703  18.760 -24.075  1.00  0.00     0.015 C
ENDROOT
BRANCH   1   7
HETATM    7  C3  UNL     1      -7.193  19.331 -26.385  1.00  0.00     0.039 C
BRANCH   7   8
HETATM    8  C2  UNL     1      -6.343  20.087 -27.340  1.00  0.00     0.209 C
BRANCH   8   9
HETATM    9  C1  UNL     1      -5.273  20.894 -26.545  1.00  0.00     0.262 C
BRANCH   9  10
HETATM   10  N1  UNL     1      -4.503  21.663 -27.484  1.00  0.00    -0.077 N
ATOM     11  H13 UNL     1      -3.504  21.462 -27.433  1.00  0.00     0.274 HD
ATOM     12  H12 UNL     1      -4.653  21.369 -28.450  1.00  0.00     0.274 HD
ATOM     13  H11 UNL     1      -4.714  22.649 -27.336  1.00  0.00     0.274 HD
ENDBRANCH   9  10
ENDBRANCH   8   9
BRANCH   8  14
HETATM   14  N2  UNL     1      -7.122  21.079 -28.082  1.00  0.00    -0.073 N
ATOM     15  H23 UNL     1      -7.740  20.671 -28.783  1.00  0.00     0.274 HD
ATOM     16  H22 UNL     1      -7.849  21.527 -27.525  1.00  0.00     0.274 HD
ATOM     17  H21 UNL     1      -6.442  21.734 -28.468  1.00  0.00     0.274 HD
ENDBRANCH   8  14
ENDBRANCH   7   8
ENDBRANCH   1   7
BRANCH   6  18
HETATM   18  C10 UNL     1      -7.917  20.055 -23.312  1.00  0.00     0.238 C
BRANCH  18  19
HETATM   19  N3  UNL     1      -8.820  19.928 -22.202  1.00  0.00    -0.062 N
ATOM     20  H32 UNL     1      -9.753  19.643 -22.500  1.00  0.00     0.278 HD
ATOM     21  H31 UNL     1      -8.596  19.121 -21.618  1.00  0.00     0.278 HD
BRANCH  19  22
HETATM   22  C11 UNL     1      -8.848  21.180 -21.423  1.00  0.00     0.278 C
BRANCH  22  23
HETATM   23  C12 UNL     1      -7.547  21.616 -20.976  1.00  0.00     0.262 C
HETATM   24  N4  UNL     1      -7.024  22.916 -21.114  1.00  0.00    -0.060 NA
HETATM   25  O1  UNL     1      -6.746  20.798 -20.400  1.00  0.00    -0.275 OA
ENDBRANCH  22  23
BRANCH  22  26
HETATM   26  C13 UNL     1      -9.936  21.054 -20.419  1.00  0.00     0.025 A
HETATM   27  C14 UNL     1     -11.148  21.869 -20.564  1.00  0.00     0.007 A
HETATM   28  C15 UNL     1     -10.208  21.959 -19.325  1.00  0.00     0.007 A
ENDBRANCH  22  26
ENDBRANCH  19  22
ENDBRANCH  18  19
ENDBRANCH   6  18
TORSDOF 10
ENDMDL