MODEL 4
REMARK VINA RESULT: -6.161374214      6.583      9.130
REMARK  10 active torsions:
REMARK  status: ('A' for Active; 'I' for Inactive)
REMARK       I    between atoms: C2_2  and  N1_4
REMARK    1  A    between atoms: N1_4  and  C3_6
REMARK    2  A    between atoms: C3_6  and  C4_7
REMARK    3  A    between atoms: C3_6  and  C6_11
REMARK    4  A    between atoms: C4_7  and  O2_9
REMARK    5  A    between atoms: C6_11  and  O3_12
REMARK    6  A    between atoms: C6_11  and  C7_14
REMARK    7  A    between atoms: C7_14  and  N2_15
REMARK    8  A    between atoms: C7_14  and  C9_19
REMARK    9  A    between atoms: N2_15  and  C8_17
REMARK   10  A    between atoms: C9_19  and  C11_21
ROOT
HETATM    1  C6  UNL     1     -12.549  21.629 -20.155  1.00  0.00     0.166 C
ENDROOT
BRANCH   1   2
HETATM    2  C3  UNL     1     -13.493  22.612 -19.529  1.00  0.00     0.143 C
BRANCH   2   3
HETATM    3  N1  UNL     1     -13.903  22.343 -18.188  1.00  0.00    -0.352 N
HETATM    4  C2  UNL     1     -13.540  23.079 -17.038  1.00  0.00     0.214 C
HETATM    5  C1  UNL     1     -14.049  22.673 -15.713  1.00  0.00     0.117 C
HETATM    6  O1  UNL     1     -12.793  24.089 -17.039  1.00  0.00    -0.274 OA
ATOM      7  H1  UNL     1     -14.518  21.542 -18.046  1.00  0.00     0.163 HD
ENDBRANCH   2   3
BRANCH   2   8
HETATM    8  C4  UNL     1     -14.640  22.804 -20.494  1.00  0.00     0.139 C
HETATM    9  C5  UNL     1     -15.345  24.105 -20.380  1.00  0.00     0.041 C
BRANCH   8  10
HETATM   10  O2  UNL     1     -14.215  22.679 -21.820  1.00  0.00    -0.394 OA
ATOM     11  H2  UNL     1     -14.881  22.979 -22.427  1.00  0.00     0.210 HD
ENDBRANCH   8  10
ENDBRANCH   2   8
ENDBRANCH   1   2
BRANCH   1  12
HETATM   12  O3  UNL     1     -13.180  20.462 -20.571  1.00  0.00    -0.391 OA
ATOM     13  H3  UNL     1     -12.574  19.748 -20.727  1.00  0.00     0.210 HD
ENDBRANCH   1  12
BRANCH   1  14
HETATM   14  C7  UNL     1     -11.303  21.436 -19.411  1.00  0.00     0.118 C
BRANCH  14  15
HETATM   15  N2  UNL     1     -11.120  20.101 -18.837  1.00  0.00    -0.361 N
ATOM     16  H2  UNL     1     -10.525  19.426 -19.318  1.00  0.00     0.162 HD
BRANCH  15  17
HETATM   17  C8  UNL     1     -11.752  19.733 -17.636  1.00  0.00     0.348 C
HETATM   18  O4  UNL     1     -12.986  19.530 -17.538  1.00  0.00    -0.284 OA
ENDBRANCH  15  17
ENDBRANCH  14  15
BRANCH  14  19
HETATM   19  C9  UNL     1     -10.021  21.826 -20.100  1.00  0.00     0.011 C
HETATM   20  C10 UNL     1      -8.885  22.162 -19.193  1.00  0.00     0.012 C
BRANCH  19  21
HETATM   21  C11 UNL     1      -9.705  21.007 -21.289  1.00  0.00    -0.009 C
HETATM   22  C12 UNL     1      -8.923  21.740 -22.376  1.00  0.00     0.005 C
HETATM   23  C13 UNL     1      -8.287  20.376 -22.682  1.00  0.00     0.001 C
HETATM   24  C14 UNL     1      -8.673  19.950 -21.256  1.00  0.00     0.005 C
ENDBRANCH  19  21
ENDBRANCH  14  19
ENDBRANCH   1  14
TORSDOF 10
ENDMDL