MODEL 5
REMARK VINA RESULT: -7.088824791      2.272      6.424
REMARK  11 active torsions:
REMARK  status: ('A' for Active; 'I' for Inactive)
REMARK    1  A    between atoms: N1_1  and  C1_5
REMARK    2  A    between atoms: C1_5  and  N2_6
REMARK    3  A    between atoms: C1_5  and  C2_10
REMARK    4  A    between atoms: C2_10  and  C3_11
REMARK    5  A    between atoms: C3_11  and  C4_12
REMARK    6  A    between atoms: C3_11  and  N3_18
REMARK    7  A    between atoms: C4_12  and  C5_13
REMARK       I    between atoms: N3_18  and  C10_20
REMARK    8  A    between atoms: C10_20  and  C11_22
REMARK    9  A    between atoms: C11_22  and  N4_23
REMARK   10  A    between atoms: C11_22  and  C12_27
REMARK   11  A    between atoms: C12_27  and  C13_28
ROOT
HETATM    1  C3  UNL     1      -7.527  19.516 -23.398  1.00  0.00     0.088 C
ENDROOT
BRANCH   1   2
HETATM    2  C2  UNL     1      -7.899  18.091 -23.616  1.00  0.00     0.087 C
BRANCH   2   3
HETATM    3  C1  UNL     1      -6.977  17.017 -23.212  1.00  0.00     0.380 C
BRANCH   3   4
HETATM    4  N1  UNL     1      -5.564  17.421 -23.437  1.00  0.00    -0.050 N
ATOM      5  H13 UNL     1      -5.116  17.902 -22.657  1.00  0.00     0.276 HD
ATOM      6  H12 UNL     1      -4.890  16.657 -23.469  1.00  0.00     0.276 HD
ATOM      7  H11 UNL     1      -5.650  17.965 -24.296  1.00  0.00     0.276 HD
ENDBRANCH   3   4
BRANCH   3   8
HETATM    8  N2  UNL     1      -7.111  15.898 -24.175  1.00  0.00    -0.050 N
ATOM      9  H23 UNL     1      -6.384  15.844 -24.887  1.00  0.00     0.276 HD
ATOM     10  H22 UNL     1      -6.931  14.969 -23.794  1.00  0.00     0.276 HD
ATOM     11  H21 UNL     1      -8.057  16.052 -24.525  1.00  0.00     0.276 HD
ENDBRANCH   3   8
ENDBRANCH   2   3
ENDBRANCH   1   2
BRANCH   1  12
HETATM   12  C4  UNL     1      -7.514  20.321 -24.617  1.00  0.00     0.029 C
BRANCH  12  13
HETATM   13  C5  UNL     1      -6.952  19.696 -25.853  1.00  0.00    -0.013 C
HETATM   14  C6  UNL     1      -7.410  20.189 -27.145  1.00  0.00     0.005 C
HETATM   15  C7  UNL     1      -6.209  20.727 -27.911  1.00  0.00     0.000 C
HETATM   16  C8  UNL     1      -5.306  21.132 -26.765  1.00  0.00     0.000 C
HETATM   17  C9  UNL     1      -5.446  19.893 -25.874  1.00  0.00     0.005 C
ENDBRANCH  12  13
ENDBRANCH   1  12
BRANCH   1  18
HETATM   18  N3  UNL     1      -8.440  20.025 -22.366  1.00  0.00    -0.355 N
HETATM   19  C10 UNL     1      -8.099  21.079 -21.494  1.00  0.00     0.248 C
HETATM   20  O1  UNL     1      -6.964  21.610 -21.599  1.00  0.00    -0.271 OA
ATOM     21  H3  UNL     1      -9.361  19.597 -22.277  1.00  0.00     0.162 HD
BRANCH  19  22
HETATM   22  C11 UNL     1      -8.990  21.613 -20.449  1.00  0.00     0.275 C
BRANCH  22  23
HETATM   23  N4  UNL     1      -8.478  21.452 -19.116  1.00  0.00    -0.066 N
ATOM     24  H43 UNL     1      -7.767  20.721 -19.088  1.00  0.00     0.275 HD
ATOM     25  H42 UNL     1      -7.908  22.254 -18.850  1.00  0.00     0.275 HD
ATOM     26  H41 UNL     1      -9.201  21.276 -18.418  1.00  0.00     0.275 HD
ENDBRANCH  22  23
BRANCH  22  27
HETATM   27  C12 UNL     1     -10.344  20.949 -20.554  1.00  0.00     0.047 C
BRANCH  27  28
HETATM   28  C13 UNL     1     -11.466  21.942 -20.583  1.00  0.00    -0.012 A
HETATM   29  C14 UNL     1     -12.184  22.108 -19.264  1.00  0.00     0.005 A
HETATM   30  C15 UNL     1     -12.867  21.469 -20.411  1.00  0.00     0.005 A
ENDBRANCH  27  28
ENDBRANCH  22  27
ENDBRANCH  19  22
ENDBRANCH   1  18
TORSDOF 11
ENDMDL