MODEL 5
REMARK VINA RESULT: -7.226783355      1.335      2.085
REMARK  9 active torsions:
REMARK  status: ('A' for Active; 'I' for Inactive)
REMARK    1  A    between atoms: N1_2  and  C2_5
REMARK    2  A    between atoms: C2_5  and  C3_6
REMARK    3  A    between atoms: C2_5  and  C13_23
REMARK    4  A    between atoms: C3_6  and  N2_7
REMARK    5  A    between atoms: N2_7  and  C4_10
REMARK    6  A    between atoms: C4_10  and  C5_11
REMARK    7  A    between atoms: C4_10  and  C12_20
REMARK    8  A    between atoms: C5_11  and  N3_12
REMARK    9  A    between atoms: N3_12  and  C6_14
ROOT
HETATM    1  C4  UNL     1      -7.151  18.557 -25.882  1.00  0.00     0.302 C
ENDROOT
BRANCH   1   2
HETATM    2  N2  UNL     1      -6.365  19.171 -26.955  1.00  0.00    -0.058 N
ATOM      3  H22 UNL     1      -6.760  19.003 -27.881  1.00  0.00     0.278 HD
ATOM      4  H21 UNL     1      -5.469  18.708 -27.105  1.00  0.00     0.278 HD
BRANCH   2   5
HETATM    5  C3  UNL     1      -6.225  20.601 -26.644  1.00  0.00     0.266 C
BRANCH   5   6
HETATM    6  C2  UNL     1      -4.827  21.062 -26.872  1.00  0.00     0.215 C
BRANCH   6   7
HETATM    7  N1  UNL     1      -4.101  21.403 -25.688  1.00  0.00    -0.073 N
HETATM    8  C1  UNL     1      -2.769  21.815 -26.081  1.00  0.00     0.267 C
ATOM      9  H12 UNL     1      -4.093  20.650 -25.000  1.00  0.00     0.277 HD
ATOM     10  H11 UNL     1      -4.579  22.103 -25.120  1.00  0.00     0.277 HD
ENDBRANCH   6   7
BRANCH   6  11
HETATM   11  C13 UNL     1      -4.701  22.094 -27.959  1.00  0.00     0.018 A
HETATM   12  C14 UNL     1      -5.134  23.490 -27.724  1.00  0.00     0.007 A
HETATM   13  C15 UNL     1      -5.869  22.627 -28.692  1.00  0.00     0.007 A
ENDBRANCH   6  11
ENDBRANCH   5   6
ENDBRANCH   2   5
ENDBRANCH   1   2
BRANCH   1  14
HETATM   14  C5  UNL     1      -7.443  19.566 -24.793  1.00  0.00     0.158 C
BRANCH  14  15
HETATM   15  N3  UNL     1      -7.833  18.887 -23.600  1.00  0.00    -0.415 N
ATOM     16  H3  UNL     1      -7.972  17.876 -23.586  1.00  0.00     0.153 HD
BRANCH  15  17
HETATM   17  C6  UNL     1      -8.020  19.673 -22.435  1.00  0.00     0.076 C
HETATM   18  C7  UNL     1      -8.580  21.038 -22.898  1.00  0.00     0.024 C
HETATM   19  C8  UNL     1      -9.374  21.542 -21.712  1.00  0.00     0.002 C
HETATM   20  C9  UNL     1      -8.595  21.215 -20.478  1.00  0.00     0.000 C
HETATM   21  C10 UNL     1      -7.113  21.150 -20.722  1.00  0.00     0.002 C
HETATM   22  C11 UNL     1      -6.745  20.027 -21.701  1.00  0.00     0.024 C
ENDBRANCH  15  17
ENDBRANCH  14  15
ENDBRANCH   1  14
BRANCH   1  23
HETATM   23  C12 UNL     1      -6.296  17.500 -25.286  1.00  0.00     0.206 C
HETATM   24  O1  UNL     1      -6.696  16.310 -25.327  1.00  0.00    -0.646 OA
HETATM   25  O2  UNL     1      -5.070  17.739 -24.672  1.00  0.00    -0.646 OA
ENDBRANCH   1  23
TORSDOF 9
ENDMDL