MODEL 5
REMARK VINA RESULT: -6.395430189      2.208      4.805
REMARK  9 active torsions:
REMARK  status: ('A' for Active; 'I' for Inactive)
REMARK    1  A    between atoms: C2_2  and  C4_4
REMARK    2  A    between atoms: C4_4  and  C5_5
REMARK    3  A    between atoms: C5_5  and  N1_6
REMARK    4  A    between atoms: N1_6  and  C6_9
REMARK    5  A    between atoms: C6_9  and  C7_10
REMARK    6  A    between atoms: C6_9  and  C8_13
REMARK    7  A    between atoms: C8_13  and  O3_14
REMARK    8  A    between atoms: C8_13  and  C9_16
REMARK    9  A    between atoms: C12_19  and  C13_20
ROOT
HETATM    1  C6  UNL     1      -6.762  18.096 -25.931  1.00  0.00     0.314 C
ENDROOT
BRANCH   1   2
HETATM    2  N1  UNL     1      -7.495  19.056 -26.668  1.00  0.00    -0.059 N
ATOM      3  H12 UNL     1      -7.899  19.754 -26.044  1.00  0.00     0.278 HD
ATOM      4  H11 UNL     1      -8.350  18.645 -27.043  1.00  0.00     0.278 HD
BRANCH   2   5
HETATM    5  C5  UNL     1      -6.716  19.710 -27.748  1.00  0.00     0.233 C
BRANCH   5   6
HETATM    6  C4  UNL     1      -6.607  21.167 -27.329  1.00  0.00     0.031 C
BRANCH   6   7
HETATM    7  C2  UNL     1      -5.254  21.737 -27.659  1.00  0.00    -0.021 C
HETATM    8  C1  UNL     1      -5.277  23.122 -28.202  1.00  0.00     0.009 C
HETATM    9  C3  UNL     1      -4.365  21.528 -26.462  1.00  0.00     0.009 C
ENDBRANCH   6   7
ENDBRANCH   5   6
ENDBRANCH   2   5
ENDBRANCH   1   2
BRANCH   1  10
HETATM   10  C7  UNL     1      -7.578  16.978 -25.367  1.00  0.00     0.207 C
HETATM   11  O1  UNL     1      -8.755  17.021 -25.078  1.00  0.00    -0.646 OA
HETATM   12  O2  UNL     1      -6.883  15.784 -25.160  1.00  0.00    -0.646 OA
ENDBRANCH   1  10
BRANCH   1  13
HETATM   13  C8  UNL     1      -6.074  18.638 -24.667  1.00  0.00     0.164 C
BRANCH  13  14
HETATM   14  O3  UNL     1      -5.056  17.648 -24.345  1.00  0.00    -0.393 OA
ATOM     15  H3  UNL     1      -4.781  17.862 -23.461  1.00  0.00     0.210 HD
ENDBRANCH  13  14
BRANCH  13  16
HETATM   16  C9  UNL     1      -6.941  18.766 -23.479  1.00  0.00     0.031 C
HETATM   17  C10 UNL     1      -6.528  18.217 -22.161  1.00  0.00     0.009 C
HETATM   18  C11 UNL     1      -6.295  19.688 -21.723  1.00  0.00     0.016 C
HETATM   19  C12 UNL     1      -7.019  20.197 -22.947  1.00  0.00     0.093 C
BRANCH  19  20
HETATM   20  C13 UNL     1      -8.421  20.657 -22.651  1.00  0.00     0.177 C
HETATM   21  O4  UNL     1      -8.910  21.609 -23.268  1.00  0.00    -0.648 OA
HETATM   22  O5  UNL     1      -9.135  19.969 -21.660  1.00  0.00    -0.648 OA
ENDBRANCH  19  20
ENDBRANCH  13  16
ENDBRANCH   1  13
TORSDOF 9
ENDMDL