MODEL 1
REMARK VINA RESULT: -6.498144670      0.000      0.000
REMARK  10 active torsions:
REMARK  status: ('A' for Active; 'I' for Inactive)
REMARK       I    between atoms: C2_2  and  N1_4
REMARK    1  A    between atoms: N1_4  and  C3_6
REMARK    2  A    between atoms: C3_6  and  C4_7
REMARK    3  A    between atoms: C3_6  and  C8_11
REMARK    4  A    between atoms: C4_7  and  C5_8
REMARK    5  A    between atoms: C8_11  and  O2_12
REMARK    6  A    between atoms: C8_11  and  C9_14
REMARK    7  A    between atoms: C9_14  and  O3_15
REMARK    8  A    between atoms: C9_14  and  C10_17
REMARK    9  A    between atoms: C11_18  and  C12_19
REMARK   10  A    between atoms: C14_21  and  O4_22
ROOT
HETATM    1  C8  UNL     1      -7.458  20.756 -23.145  1.00  0.00     0.173 C
ENDROOT
BRANCH   1   2
HETATM    2  C3  UNL     1      -7.078  19.727 -24.163  1.00  0.00     0.116 C
BRANCH   2   3
HETATM    3  N1  UNL     1      -7.574  18.398 -23.884  1.00  0.00    -0.354 N
HETATM    4  C2  UNL     1      -6.804  17.220 -24.060  1.00  0.00     0.214 C
HETATM    5  C1  UNL     1      -7.371  15.903 -23.757  1.00  0.00     0.117 C
HETATM    6  O1  UNL     1      -5.604  17.302 -24.486  1.00  0.00    -0.274 OA
ATOM      7  H1  UNL     1      -8.529  18.302 -23.541  1.00  0.00     0.162 HD
ENDBRANCH   2   3
BRANCH   2   8
HETATM    8  C4  UNL     1      -7.387  20.162 -25.570  1.00  0.00     0.031 C
BRANCH   8   9
HETATM    9  C5  UNL     1      -6.216  20.037 -26.508  1.00  0.00    -0.021 C
HETATM   10  C6  UNL     1      -6.592  20.871 -27.742  1.00  0.00     0.009 C
HETATM   11  C7  UNL     1      -4.976  20.715 -25.943  1.00  0.00     0.009 C
ENDBRANCH   8   9
ENDBRANCH   2   8
ENDBRANCH   1   2
BRANCH   1  12
HETATM   12  O2  UNL     1      -8.735  21.227 -23.533  1.00  0.00    -0.391 OA
ATOM     13  H2  UNL     1      -8.609  22.133 -23.789  1.00  0.00     0.210 HD
ENDBRANCH   1  12
BRANCH   1  14
HETATM   14  C9  UNL     1      -7.603  20.219 -21.763  1.00  0.00     0.171 C
BRANCH  14  15
HETATM   15  O3  UNL     1      -6.589  20.519 -20.889  1.00  0.00    -0.389 OA
ATOM     16  H3  UNL     1      -6.486  21.437 -20.668  1.00  0.00     0.210 HD
ENDBRANCH  14  15
BRANCH  14  17
HETATM   17  C10 UNL     1      -8.885  20.673 -21.142  1.00  0.00     0.003 C
HETATM   18  C11 UNL     1      -8.967  21.545 -20.185  1.00  0.00    -0.023 C
BRANCH  18  19
HETATM   19  C12 UNL     1     -10.222  21.978 -19.588  1.00  0.00     0.013 C
HETATM   20  C13 UNL     1     -10.866  21.024 -18.582  1.00  0.00     0.040 C
HETATM   21  C14 UNL     1     -12.205  21.612 -19.057  1.00  0.00     0.119 C
HETATM   22  C15 UNL     1     -11.486  21.833 -20.403  1.00  0.00     0.040 C
BRANCH  21  23
HETATM   23  O4  UNL     1     -13.227  20.698 -19.104  1.00  0.00    -0.396 OA
ATOM     24  H4  UNL     1     -13.900  20.906 -19.742  1.00  0.00     0.210 HD
ENDBRANCH  21  23
ENDBRANCH  18  19
ENDBRANCH  14  17
ENDBRANCH   1  14
TORSDOF 10
ENDMDL