MODEL 1
REMARK VINA RESULT: -8.418277749      0.000      0.000
REMARK  9 active torsions:
REMARK  status: ('A' for Active; 'I' for Inactive)
REMARK    1  A    between atoms: C2_2  and  C4_4
REMARK    2  A    between atoms: C4_4  and  C5_5
REMARK    3  A    between atoms: C4_4  and  N1_7
REMARK    4  A    between atoms: N1_7  and  C6_9
REMARK    5  A    between atoms: C6_9  and  C7_10
REMARK    6  A    between atoms: C6_9  and  C8_15
REMARK    7  A    between atoms: C8_15  and  N4_16
REMARK    8  A    between atoms: C8_15  and  C9_20
REMARK    9  A    between atoms: C9_20  and  C10_21
ROOT
HETATM    1  C6  UNL     1      -7.302  18.696 -24.646  1.00  0.00     0.172 C
ENDROOT
BRANCH   1   2
HETATM    2  N1  UNL     1      -6.352  19.520 -25.247  1.00  0.00    -0.399 N
ATOM      3  H1  UNL     1      -5.443  19.539 -24.784  1.00  0.00     0.154 HD
BRANCH   2   4
HETATM    4  C4  UNL     1      -6.448  20.301 -26.357  1.00  0.00     0.142 C
BRANCH   4   5
HETATM    5  C2  UNL     1      -5.182  20.853 -26.943  1.00  0.00     0.006 C
HETATM    6  C1  UNL     1      -5.488  22.050 -27.854  1.00  0.00     0.012 C
HETATM    7  C3  UNL     1      -4.332  21.451 -25.795  1.00  0.00     0.012 C
ENDBRANCH   4   5
BRANCH   4   8
HETATM    8  C5  UNL     1      -7.051  19.457 -27.475  1.00  0.00     0.256 C
HETATM    9  O1  UNL     1      -8.099  19.781 -27.995  1.00  0.00    -0.305 OA
ENDBRANCH   4   8
ENDBRANCH   2   4
ENDBRANCH   1   2
BRANCH   1  10
HETATM   10  C7  UNL     1      -7.338  17.284 -25.022  1.00  0.00     0.111 C
HETATM   11  N2  UNL     1      -8.431  16.610 -24.944  1.00  0.00    -0.389 N
ATOM     12  H22 UNL     1      -9.247  17.131 -24.623  1.00  0.00     0.157 HD
ATOM     13  H21 UNL     1      -8.456  15.625 -25.207  1.00  0.00     0.157 HD
HETATM   14  N3  UNL     1      -6.201  16.559 -25.471  1.00  0.00    -0.086 NA
ENDBRANCH   1  10
BRANCH   1  15
HETATM   15  C8  UNL     1      -7.302  18.856 -23.105  1.00  0.00     0.213 C
BRANCH  15  16
HETATM   16  N4  UNL     1      -6.122  18.031 -22.746  1.00  0.00    -0.073 N
ATOM     17  H43 UNL     1      -6.318  17.196 -22.195  1.00  0.00     0.274 HD
ATOM     18  H42 UNL     1      -5.687  17.525 -23.517  1.00  0.00     0.274 HD
ATOM     19  H41 UNL     1      -5.535  18.731 -22.291  1.00  0.00     0.274 HD
ENDBRANCH  15  16
BRANCH  15  20
HETATM   20  C9  UNL     1      -7.020  20.275 -22.807  1.00  0.00     0.040 C
BRANCH  20  21
HETATM   21  C10 UNL     1      -8.081  21.102 -22.177  1.00  0.00    -0.013 C
HETATM   22  C11 UNL     1      -9.257  20.362 -21.654  1.00  0.00     0.005 C
HETATM   23  C12 UNL     1     -10.175  21.379 -21.000  1.00  0.00     0.000 C
HETATM   24  C13 UNL     1      -9.501  21.766 -19.698  1.00  0.00     0.000 C
HETATM   25  C14 UNL     1      -8.034  22.012 -19.823  1.00  0.00     0.000 C
HETATM   26  C15 UNL     1      -7.545  22.134 -21.248  1.00  0.00     0.005 C
ENDBRANCH  20  21
ENDBRANCH  15  20
ENDBRANCH   1  15
TORSDOF 9
ENDMDL