MODEL 3
REMARK VINA RESULT: -7.531213550      2.019      6.438
REMARK  8 active torsions:
REMARK  status: ('A' for Active; 'I' for Inactive)
REMARK    1  A    between atoms: C2_2  and  C3_3
REMARK    2  A    between atoms: C3_3  and  C4_4
REMARK    3  A    between atoms: C4_4  and  O1_5
REMARK    4  A    between atoms: O1_5  and  C5_6
REMARK    5  A    between atoms: C6_7  and  O2_8
REMARK    6  A    between atoms: C9_11  and  O3_12
REMARK    7  A    between atoms: C12_16  and  O4_17
REMARK    8  A    between atoms: O4_17  and  C13_18
ROOT
HETATM    1  C5  UNL     1     -10.553 -24.090  29.938  1.00  0.00     0.114 A
HETATM    2  C6  UNL     1     -11.754 -23.373  30.023  1.00  0.00     0.104 A
HETATM    3  C8  UNL     1     -11.968 -22.252  29.264  1.00  0.00     0.076 A
HETATM    4  C9  UNL     1     -10.975 -21.848  28.416  1.00  0.00     0.075 A
HETATM    5  C10 UNL     1      -9.767 -22.546  28.319  1.00  0.00    -0.010 A
HETATM    6  C11 UNL     1      -9.557 -23.683  29.102  1.00  0.00     0.052 A
HETATM    7  C12 UNL     1      -8.175 -24.332  29.179  1.00  0.00     0.235 C
HETATM    8  O5  UNL     1      -7.974 -24.528  30.566  1.00  0.00    -0.309 OA
HETATM    9  C16 UNL     1      -7.511 -23.476  31.267  1.00  0.00     0.197 C
HETATM   10  C17 UNL     1      -8.062 -23.569  32.707  1.00  0.00     0.082 C
HETATM   11  C18 UNL     1      -6.021 -23.393  31.468  1.00  0.00     0.072 C
HETATM   12  C19 UNL     1      -5.207 -23.621  30.277  1.00  0.00     0.014 C
HETATM   13  C20 UNL     1      -5.835 -23.190  28.983  1.00  0.00     0.033 C
HETATM   14  C21 UNL     1      -4.938 -23.555  27.808  1.00  0.00    -0.011 C
HETATM   15  C22 UNL     1      -3.540 -23.027  28.198  1.00  0.00     0.010 C
HETATM   16  C23 UNL     1      -5.296 -22.840  26.543  1.00  0.00     0.005 C
HETATM   17  C24 UNL     1      -6.467 -21.951  26.776  1.00  0.00     0.009 C
HETATM   18  C25 UNL     1      -7.569 -22.845  27.367  1.00  0.00     0.034 C
HETATM   19  C26 UNL     1      -8.803 -21.993  27.335  1.00  0.00     0.050 C
HETATM   20  C27 UNL     1      -7.264 -23.204  28.817  1.00  0.00     0.165 C
HETATM   21  O6  UNL     1      -7.744 -22.057  29.546  1.00  0.00    -0.220 OA
HETATM   22  O7  UNL     1      -7.951 -22.280  30.781  1.00  0.00    -0.200 OA
ENDROOT
BRANCH   1  23
HETATM   23  O1  UNL     1     -10.435 -25.210  30.732  1.00  0.00    -0.347 OA
BRANCH  23  24
HETATM   24  C4  UNL     1     -10.956 -26.410  30.263  1.00  0.00     0.179 C
BRANCH  24  25
HETATM   25  C3  UNL     1     -11.743 -27.300  31.119  1.00  0.00     0.053 C
BRANCH  25  26
HETATM   26  C2  UNL     1     -11.595 -26.812  32.549  1.00  0.00    -0.035 C
HETATM   27  C1  UNL     1     -12.624 -26.535  33.311  1.00  0.00     0.007 C
ENDBRANCH  25  26
ENDBRANCH  24  25
ENDBRANCH  23  24
ENDBRANCH   1  23
BRANCH   2  28
HETATM   28  O2  UNL     1     -12.709 -23.851  30.911  1.00  0.00    -0.353 OA
HETATM   29  C7  UNL     1     -13.983 -24.274  30.533  1.00  0.00     0.210 C
ENDBRANCH   2  28
BRANCH   7  30
HETATM   30  O4  UNL     1      -8.169 -25.472  28.555  1.00  0.00    -0.344 OA
BRANCH  30  31
HETATM   31  C13 UNL     1      -7.350 -26.495  28.570  1.00  0.00     0.117 C
HETATM   32  C14 UNL     1      -7.843 -27.876  28.993  1.00  0.00     0.039 C
HETATM   33  C15 UNL     1      -6.622 -26.688  27.263  1.00  0.00     0.039 C
ENDBRANCH  30  31
ENDBRANCH   7  30
BRANCH   4  34
HETATM   34  O3  UNL     1     -11.173 -20.703  27.622  1.00  0.00    -0.360 OA
ATOM     35  H3  UNL     1     -10.786 -20.666  26.756  1.00  0.00     0.217 HD
ENDBRANCH   4  34
TORSDOF 8
ENDMDL