MODEL 5
REMARK VINA RESULT: -7.293680911      1.669      2.304
REMARK  8 active torsions:
REMARK  status: ('A' for Active; 'I' for Inactive)
REMARK    1  A    between atoms: O1_2  and  C2_3
REMARK    2  A    between atoms: C7_8  and  O2_9
REMARK    3  A    between atoms: C8_12  and  N1_13
REMARK    4  A    between atoms: C17_22  and  C18_23
REMARK    5  A    between atoms: C18_23  and  C19_24
REMARK    6  A    between atoms: C21_26  and  O4_27
REMARK    7  A    between atoms: C23_29  and  O5_30
REMARK    8  A    between atoms: C25_32  and  O6_33
ROOT
HETATM    1  C2  UNL     1     -11.734 -22.514  29.435  1.00  0.00     0.102 A
HETATM    2  C3  UNL     1     -10.738 -23.468  29.658  1.00  0.00     0.050 A
HETATM    3  C4  UNL     1      -9.520 -23.376  28.997  1.00  0.00    -0.014 A
HETATM    4  C5  UNL     1      -9.392 -22.289  28.138  1.00  0.00     0.081 A
HETATM    5  C6  UNL     1     -10.369 -21.352  27.918  1.00  0.00     0.076 A
HETATM    6  C7  UNL     1     -11.583 -21.455  28.579  1.00  0.00     0.101 A
HETATM    7  O3  UNL     1      -8.152 -22.177  27.478  1.00  0.00    -0.325 OA
HETATM    8  C8  UNL     1      -7.011 -22.608  28.263  1.00  0.00     0.229 C
HETATM    9  C16 UNL     1      -7.184 -24.056  28.462  1.00  0.00     0.067 C
HETATM   10  C17 UNL     1      -8.485 -24.398  29.204  1.00  0.00     0.049 C
ENDROOT
BRANCH  10  11
HETATM   11  C18 UNL     1      -8.833 -25.751  28.705  1.00  0.00    -0.006 C
BRANCH  11  12
HETATM   12  C19 UNL     1      -8.715 -26.936  29.503  1.00  0.00    -0.034 A
HETATM   13  C20 UNL     1      -9.774 -27.352  30.287  1.00  0.00     0.051 A
HETATM   14  C21 UNL     1      -9.769 -28.484  31.086  1.00  0.00     0.105 A
HETATM   15  C23 UNL     1      -8.597 -29.255  31.089  1.00  0.00     0.135 A
HETATM   16  C25 UNL     1      -7.530 -28.876  30.327  1.00  0.00     0.105 A
HETATM   17  C27 UNL     1      -7.583 -27.756  29.561  1.00  0.00     0.051 A
BRANCH  14  18
HETATM   18  O4  UNL     1     -10.830 -28.897  31.868  1.00  0.00    -0.353 OA
HETATM   19  C22 UNL     1     -12.151 -29.044  31.417  1.00  0.00     0.210 C
ENDBRANCH  14  18
BRANCH  15  20
HETATM   20  O5  UNL     1      -8.587 -30.401  31.890  1.00  0.00    -0.351 OA
HETATM   21  C24 UNL     1      -8.928 -31.633  31.300  1.00  0.00     0.210 C
ENDBRANCH  15  20
BRANCH  16  22
HETATM   22  O6  UNL     1      -6.376 -29.642  30.337  1.00  0.00    -0.353 OA
HETATM   23  C26 UNL     1      -5.796 -30.153  29.147  1.00  0.00     0.210 C
ENDBRANCH  16  22
ENDBRANCH  11  12
ENDBRANCH  10  11
BRANCH   8  24
HETATM   24  N1  UNL     1      -5.861 -22.165  27.564  1.00  0.00    -0.367 N
HETATM   25  C9  UNL     1      -4.772 -21.753  28.392  1.00  0.00     0.125 C
HETATM   26  C10 UNL     1      -3.613 -22.687  28.415  1.00  0.00     0.029 C
HETATM   27  C11 UNL     1      -3.093 -22.738  26.971  1.00  0.00    -0.042 C
HETATM   28  C12 UNL     1      -1.896 -23.687  26.926  1.00  0.00     0.015 C
HETATM   29  C13 UNL     1      -2.717 -21.342  26.597  1.00  0.00     0.015 C
HETATM   30  C14 UNL     1      -4.188 -23.342  26.162  1.00  0.00     0.053 C
HETATM   31  C15 UNL     1      -5.537 -22.735  26.328  1.00  0.00     0.061 C
ENDBRANCH   8  24
BRANCH   1  32
HETATM   32  O1  UNL     1     -12.956 -22.628  30.112  1.00  0.00    -0.353 OA
HETATM   33  C1  UNL     1     -13.441 -23.918  30.495  1.00  0.00     0.210 C
ENDBRANCH   1  32
BRANCH   6  34
HETATM   34  O2  UNL     1     -12.592 -20.522  28.375  1.00  0.00    -0.358 OA
ATOM     35  H2  UNL     1     -13.103 -20.167  29.092  1.00  0.00     0.217 HD
ENDBRANCH   6  34
TORSDOF 8
ENDMDL