MODEL 4
REMARK VINA RESULT: -6.807759846      2.175      4.930
REMARK  10 active torsions:
REMARK  status: ('A' for Active; 'I' for Inactive)
REMARK    1  A    between atoms: C2_2  and  C3_3
REMARK    2  A    between atoms: C5_5  and  C6_6
REMARK    3  A    between atoms: C8_11  and  C9_12
REMARK    4  A    between atoms: C9_12  and  O2_14
REMARK    5  A    between atoms: O2_14  and  C10_15
REMARK    6  A    between atoms: C10_15  and  C11_16
REMARK    7  A    between atoms: C13_18  and  N2_19
REMARK    8  A    between atoms: N2_19  and  N3_21
REMARK    9  A    between atoms: C16_29  and  O4_30
REMARK   10  A    between atoms: C20_35  and  C21_36
ROOT
HETATM    1  C9  UNL     1      -7.400 -22.741  29.599  1.00  0.00     0.311 C
HETATM    2  O1  UNL     1      -8.315 -21.915  29.579  1.00  0.00    -0.258 OA
ENDROOT
BRANCH   1   3
HETATM    3  C8  UNL     1      -7.248 -23.767  30.688  1.00  0.00     0.122 A
HETATM    4  C6  UNL     1      -8.138 -24.793  30.901  1.00  0.00     0.022 A
HETATM    5  S1  UNL     1      -7.438 -25.564  32.280  1.00  0.00    -0.086 SA
HETATM    6  C7  UNL     1      -6.089 -24.558  32.492  1.00  0.00     0.139 A
HETATM    7  N1  UNL     1      -6.231 -23.701  31.527  1.00  0.00    -0.354 N
ATOM      8  H1  UNL     1      -5.540 -22.959  31.413  1.00  0.00     0.166 HD
BRANCH   4   9
HETATM    9  C5  UNL     1      -9.370 -25.188  30.141  1.00  0.00     0.045 C
HETATM   10  C3  UNL     1     -10.670 -24.643  30.616  1.00  0.00    -0.014 C
HETATM   11  C4  UNL     1     -11.335 -23.695  29.624  1.00  0.00     0.021 C
HETATM   12  C24 UNL     1     -11.270 -26.027  30.628  1.00  0.00     0.011 C
HETATM   13  C17 UNL     1      -9.828 -26.551  30.679  1.00  0.00     0.001 C
HETATM   14  C20 UNL     1     -11.790 -26.594  29.361  1.00  0.00     0.019 C
HETATM   15  C18 UNL     1      -9.779 -27.699  29.736  1.00  0.00     0.006 C
HETATM   16  C19 UNL     1     -11.259 -28.042  29.468  1.00  0.00     0.010 C
BRANCH  10  17
HETATM   17  C2  UNL     1     -10.729 -24.082  31.980  1.00  0.00    -0.027 C
HETATM   18  C1  UNL     1     -11.503 -24.631  32.893  1.00  0.00     0.008 C
ENDBRANCH  10  17
BRANCH  14  19
HETATM   19  C21 UNL     1     -13.261 -26.595  29.230  1.00  0.00    -0.089 C
HETATM   20  C22 UNL     1     -14.036 -26.107  30.188  1.00  0.00     0.014 C
HETATM   21  C23 UNL     1     -13.919 -27.153  28.000  1.00  0.00     0.043 C
ENDBRANCH  14  19
ENDBRANCH   4   9
ENDBRANCH   1   3
BRANCH   1  22
HETATM   22  O2  UNL     1      -6.491 -22.685  28.549  1.00  0.00    -0.316 OA
BRANCH  22  23
HETATM   23  C10 UNL     1      -6.861 -22.880  27.194  1.00  0.00     0.188 C
BRANCH  23  24
HETATM   24  C11 UNL     1      -5.602 -22.634  26.333  1.00  0.00     0.067 C
HETATM   25  C12 UNL     1      -4.790 -21.511  26.884  1.00  0.00     0.041 C
HETATM   26  C13 UNL     1      -3.404 -21.845  27.314  1.00  0.00     0.130 C
HETATM   27  C14 UNL     1      -2.882 -22.920  26.364  1.00  0.00     0.144 C
HETATM   28  C15 UNL     1      -1.411 -23.131  26.496  1.00  0.00     0.042 C
HETATM   29  O3  UNL     1      -3.647 -24.052  26.657  1.00  0.00    -0.354 OA
HETATM   30  C16 UNL     1      -4.877 -23.911  26.072  1.00  0.00     0.263 C
BRANCH  26  31
HETATM   31  N2  UNL     1      -3.378 -22.297  28.689  1.00  0.00    -0.315 N
ATOM     32  H2  UNL     1      -2.905 -23.172  28.915  1.00  0.00     0.182 HD
BRANCH  31  33
HETATM   33  N3  UNL     1      -3.915 -21.648  29.599  1.00  0.00    -0.253 N
HETATM   34  N4  UNL     1      -3.935 -20.971  30.638  1.00  0.00    -0.331 N
ATOM     35  H42 UNL     1      -2.937 -20.944  30.848  1.00  0.00     0.178 HD
ATOM     36  H41 UNL     1      -4.377 -20.437  31.387  1.00  0.00     0.178 HD
ATOM     37  H3  UNL     1      -4.903 -21.699  29.352  1.00  0.00     0.207 HD
ENDBRANCH  31  33
ENDBRANCH  26  31
BRANCH  30  38
HETATM   38  O4  UNL     1      -4.829 -24.204  24.688  1.00  0.00    -0.371 OA
ATOM     39  H4  UNL     1      -4.583 -25.109  24.534  1.00  0.00     0.212 HD
ENDBRANCH  30  38
ENDBRANCH  23  24
ENDBRANCH  22  23
ENDBRANCH   1  22
TORSDOF 10
ENDMDL