MODEL 4
REMARK VINA RESULT: -6.651836949      2.642      6.442
REMARK  9 active torsions:
REMARK  status: ('A' for Active; 'I' for Inactive)
REMARK    1  A    between atoms: C2_2  and  C3_3
REMARK    2  A    between atoms: C3_3  and  C4_4
REMARK    3  A    between atoms: C4_4  and  O2_6
REMARK    4  A    between atoms: O2_6  and  C5_7
REMARK    5  A    between atoms: C5_7  and  C6_8
REMARK    6  A    between atoms: C6_8  and  C7_9
REMARK    7  A    between atoms: C7_9  and  O3_10
REMARK    8  A    between atoms: C20_24  and  C21_25
REMARK    9  A    between atoms: C23_27  and  C24_28
ROOT
HETATM    1  C6  UNL     1      -8.545 -23.784  33.891  1.00  0.00     0.004 C
HETATM    2  C8  UNL     1      -9.396 -24.878  34.477  1.00  0.00     0.021 C
HETATM    3  C9  UNL     1     -10.844 -24.773  34.244  1.00  0.00     0.017 C
HETATM    4  C10 UNL     1     -11.574 -25.315  35.482  1.00  0.00     0.013 C
HETATM    5  C11 UNL     1     -11.373 -25.402  32.976  1.00  0.00     0.061 C
HETATM    6  C12 UNL     1     -12.793 -25.888  33.349  1.00  0.00     0.046 C
HETATM    7  C13 UNL     1     -10.633 -26.611  32.529  1.00  0.00     0.038 C
HETATM    8  C14 UNL     1      -9.468 -26.344  31.600  1.00  0.00     0.011 C
HETATM    9  C15 UNL     1      -9.541 -25.047  30.882  1.00  0.00     0.029 C
HETATM   10  C16 UNL     1     -10.991 -24.631  30.802  1.00  0.00     0.063 C
HETATM   11  C17 UNL     1     -11.670 -25.642  29.891  1.00  0.00     0.046 C
HETATM   12  C18 UNL     1     -11.111 -23.299  30.048  1.00  0.00     0.039 C
HETATM   13  C19 UNL     1      -9.865 -23.106  29.263  1.00  0.00     0.014 C
HETATM   14  C20 UNL     1      -8.741 -22.875  30.219  1.00  0.00     0.046 C
HETATM   15  C25 UNL     1      -8.583 -23.971  31.280  1.00  0.00    -0.028 C
HETATM   16  C26 UNL     1      -7.203 -24.550  31.028  1.00  0.00     0.016 C
HETATM   17  C27 UNL     1      -8.762 -23.315  32.560  1.00  0.00     0.024 C
HETATM   18  O6  UNL     1     -11.605 -24.460  31.996  1.00  0.00    -0.369 OA
ENDROOT
BRANCH   1  19
HETATM   19  C5  UNL     1      -7.135 -24.023  34.372  1.00  0.00     0.190 C
BRANCH  19  20
HETATM   20  O2  UNL     1      -6.250 -23.042  33.847  1.00  0.00    -0.321 OA
BRANCH  20  21
HETATM   21  C4  UNL     1      -5.122 -22.619  34.511  1.00  0.00     0.258 C
HETATM   22  O1  UNL     1      -5.235 -22.198  35.704  1.00  0.00    -0.265 OA
BRANCH  21  23
HETATM   23  C3  UNL     1      -3.791 -22.654  33.847  1.00  0.00     0.111 C
BRANCH  23  24
HETATM   24  C2  UNL     1      -3.880 -21.892  32.530  1.00  0.00     0.005 C
HETATM   25  C1  UNL     1      -3.885 -20.415  32.760  1.00  0.00     0.005 C
ENDBRANCH  23  24
ENDBRANCH  21  23
ENDBRANCH  20  21
ENDBRANCH  19  20
ENDBRANCH   1  19
BRANCH   1  26
HETATM   26  C7  UNL     1      -8.932 -22.533  34.756  1.00  0.00     0.175 C
BRANCH  26  27
HETATM   27  O3  UNL     1      -8.261 -22.567  35.949  1.00  0.00    -0.400 OA
ATOM     28  H3  UNL     1      -8.034 -21.684  36.217  1.00  0.00     0.209 HD
ENDBRANCH  26  27
ENDBRANCH   1  26
BRANCH  14  29
HETATM   29  C21 UNL     1      -7.475 -22.510  29.534  1.00  0.00     0.040 A
HETATM   30  C22 UNL     1      -7.190 -22.817  28.221  1.00  0.00     0.070 A
HETATM   31  C23 UNL     1      -5.936 -22.304  27.995  1.00  0.00     0.138 A
HETATM   32  O5  UNL     1      -5.538 -21.745  29.101  1.00  0.00    -0.235 OA
HETATM   33  N1  UNL     1      -6.423 -21.850  30.025  1.00  0.00    -0.264 N
ATOM     34  H1  UNL     1      -6.338 -21.490  30.976  1.00  0.00     0.194 HD
BRANCH  31  35
HETATM   35  C24 UNL     1      -5.182 -22.374  26.731  1.00  0.00     0.297 C
HETATM   36  O4  UNL     1      -5.678 -22.915  25.713  1.00  0.00    -0.299 OA
ENDBRANCH  31  35
ENDBRANCH  14  29
TORSDOF 9
ENDMDL