MODEL 1
REMARK VINA RESULT: -7.369392231      0.000      0.000
REMARK  8 active torsions:
REMARK  status: ('A' for Active; 'I' for Inactive)
REMARK    1  A    between atoms: O1_2  and  C2_3
REMARK    2  A    between atoms: C6_7  and  O2_8
REMARK    3  A    between atoms: O2_8  and  C7_9
REMARK    4  A    between atoms: C7_9  and  C8_10
REMARK    5  A    between atoms: C8_10  and  O3_13
REMARK    6  A    between atoms: O3_13  and  C11_14
REMARK    7  A    between atoms: C11_14  and  C12_15
REMARK    8  A    between atoms: C15_20  and  O6_21
ROOT
HETATM    1  C11 UNL     1      -4.111 -23.355  29.585  1.00  0.00     0.212 C
ENDROOT
BRANCH   1   2
HETATM    2  O3  UNL     1      -3.584 -22.575  28.586  1.00  0.00    -0.375 OA
BRANCH   2   3
HETATM    3  C8  UNL     1      -3.614 -23.103  27.326  1.00  0.00     0.075 C
HETATM    4  C9  UNL     1      -2.252 -23.171  26.664  1.00  0.00     0.048 C
HETATM    5  C10 UNL     1      -4.484 -22.201  26.461  1.00  0.00     0.048 C
BRANCH   3   6
HETATM    6  C7  UNL     1      -4.210 -24.481  27.260  1.00  0.00     0.212 C
BRANCH   6   7
HETATM    7  O2  UNL     1      -5.468 -24.481  26.595  1.00  0.00    -0.347 OA
BRANCH   7   8
HETATM    8  C6  UNL     1      -5.918 -25.743  26.161  1.00  0.00     0.081 A
HETATM    9  C4  UNL     1      -5.720 -26.178  24.859  1.00  0.00    -0.025 A
HETATM   10  C3  UNL     1      -6.166 -27.418  24.444  1.00  0.00     0.047 A
HETATM   11  C5  UNL     1      -5.022 -25.310  23.874  1.00  0.00     0.051 C
HETATM   12  C2  UNL     1      -6.819 -28.240  25.344  1.00  0.00     0.075 A
HETATM   13  C27 UNL     1      -7.031 -27.840  26.643  1.00  0.00    -0.020 A
HETATM   14  C25 UNL     1      -6.573 -26.588  27.035  1.00  0.00    -0.019 A
HETATM   15  C28 UNL     1      -7.731 -28.708  27.625  1.00  0.00     0.052 C
HETATM   16  C26 UNL     1      -6.811 -26.184  28.435  1.00  0.00     0.052 C
BRANCH  12  17
HETATM   17  O1  UNL     1      -7.258 -29.483  24.907  1.00  0.00    -0.355 OA
HETATM   18  C1  UNL     1      -6.418 -30.358  24.168  1.00  0.00     0.210 C
ENDBRANCH  12  17
ENDBRANCH   7   8
ENDBRANCH   6   7
ENDBRANCH   3   6
ENDBRANCH   2   3
ENDBRANCH   1   2
BRANCH   1  19
HETATM   19  C12 UNL     1      -5.009 -22.491  30.462  1.00  0.00     0.116 C
HETATM   20  C13 UNL     1      -4.798 -21.061  29.920  1.00  0.00     0.054 C
HETATM   21  O4  UNL     1      -4.575 -22.576  31.769  1.00  0.00    -0.301 OA
HETATM   22  C14 UNL     1      -5.225 -22.755  32.949  1.00  0.00     0.289 C
HETATM   23  O5  UNL     1      -4.804 -22.023  33.891  1.00  0.00    -0.262 OA
HETATM   24  C15 UNL     1      -6.333 -23.635  33.374  1.00  0.00     0.222 C
HETATM   25  C16 UNL     1      -6.866 -24.492  32.263  1.00  0.00     0.081 C
HETATM   26  C17 UNL     1      -7.213 -23.650  31.061  1.00  0.00    -0.045 A
HETATM   27  C18 UNL     1      -8.550 -23.796  30.715  1.00  0.00     0.015 A
HETATM   28  C22 UNL     1      -6.420 -22.816  30.321  1.00  0.00    -0.015 A
HETATM   29  C19 UNL     1      -9.125 -23.135  29.653  1.00  0.00    -0.051 A
HETATM   30  C20 UNL     1      -8.330 -22.298  28.908  1.00  0.00    -0.051 A
HETATM   31  C24 UNL     1     -10.288 -22.803  28.774  1.00  0.00     0.043 A
HETATM   32  C21 UNL     1      -6.983 -22.148  29.254  1.00  0.00     0.018 A
HETATM   33  C23 UNL     1      -9.421 -21.898  27.972  1.00  0.00     0.043 A
BRANCH  24  34
HETATM   34  O6  UNL     1      -7.360 -22.827  33.851  1.00  0.00    -0.385 OA
ATOM     35  H6  UNL     1      -7.714 -23.237  34.631  1.00  0.00     0.210 HD
ENDBRANCH  24  34
ENDBRANCH   1  19
TORSDOF 8
ENDMDL