MODEL 4
REMARK VINA RESULT: -7.068178487      1.285      2.566
REMARK  8 active torsions:
REMARK  status: ('A' for Active; 'I' for Inactive)
REMARK    1  A    between atoms: C6_6  and  C7_7
REMARK    2  A    between atoms: C7_7  and  C10_10
REMARK    3  A    between atoms: C10_10  and  C11_11
REMARK    4  A    between atoms: C11_11  and  N1_12
REMARK    5  A    between atoms: N2_15  and  C14_16
REMARK    6  A    between atoms: C14_16  and  C15_17
REMARK    7  A    between atoms: C16_21  and  C17_22
REMARK    8  A    between atoms: C21_26  and  O2_27
ROOT
HETATM    1  C14 UNL     1      -3.520 -22.732  33.974  1.00  0.00     0.200 C
ENDROOT
BRANCH   1   2
HETATM    2  N2  UNL     1      -4.537 -23.021  34.929  1.00  0.00    -0.383 N
HETATM    3  C13 UNL     1      -4.728 -24.422  35.075  1.00  0.00     0.152 C
HETATM    4  C12 UNL     1      -5.977 -24.807  34.311  1.00  0.00     0.292 C
HETATM    5  N1  UNL     1      -7.080 -24.201  35.035  1.00  0.00     0.094 N
HETATM    6  C27 UNL     1      -7.015 -22.794  34.814  1.00  0.00     0.316 C
HETATM    7  C26 UNL     1      -5.672 -22.189  34.944  1.00  0.00     0.088 C
BRANCH   5   8
HETATM    8  C11 UNL     1      -8.328 -24.771  34.587  1.00  0.00     0.274 C
BRANCH   8   9
HETATM    9  C10 UNL     1      -8.192 -25.534  33.294  1.00  0.00     0.046 C
BRANCH   9  10
HETATM   10  C7  UNL     1      -9.347 -25.247  32.356  1.00  0.00     0.004 C
HETATM   11  C8  UNL     1     -10.532 -26.113  32.622  1.00  0.00     0.022 C
HETATM   12  C9  UNL     1      -9.764 -23.806  32.607  1.00  0.00     0.022 C
BRANCH  10  13
HETATM   13  C6  UNL     1      -8.918 -25.363  30.940  1.00  0.00     0.067 A
HETATM   14  C4  UNL     1      -9.716 -25.110  29.851  1.00  0.00    -0.029 A
HETATM   15  C3  UNL     1      -8.926 -25.338  28.726  1.00  0.00     0.041 A
HETATM   16  C5  UNL     1     -11.115 -24.686  29.791  1.00  0.00     0.050 C
HETATM   17  C2  UNL     1      -7.703 -25.715  29.206  1.00  0.00     0.050 A
HETATM   18  C1  UNL     1      -6.556 -26.055  28.298  1.00  0.00     0.076 C
HETATM   19  O3  UNL     1      -7.725 -25.721  30.495  1.00  0.00    -0.319 OA
ENDBRANCH  10  13
ENDBRANCH   9  10
ENDBRANCH   8   9
ENDBRANCH   5   8
ENDBRANCH   1   2
BRANCH   1  20
HETATM   20  C15 UNL     1      -3.954 -22.237  32.675  1.00  0.00     0.122 A
HETATM   21  N3  UNL     1      -3.748 -20.997  32.197  1.00  0.00    -0.245 N
HETATM   22  O1  UNL     1      -4.258 -20.879  31.017  1.00  0.00    -0.217 OA
ATOM     23  H3  UNL     1      -3.258 -20.255  32.695  1.00  0.00     0.196 HD
HETATM   24  C16 UNL     1      -4.826 -22.031  30.650  1.00  0.00     0.182 A
HETATM   25  N4  UNL     1      -4.628 -22.851  31.685  1.00  0.00    -0.321 N
ATOM     26  H4  UNL     1      -4.947 -23.819  31.720  1.00  0.00     0.169 HD
BRANCH  24  27
HETATM   27  C17 UNL     1      -5.491 -22.219  29.367  1.00  0.00     0.024 A
HETATM   28  C18 UNL     1      -6.849 -21.965  29.226  1.00  0.00     0.026 A
HETATM   29  C19 UNL     1      -7.491 -22.140  28.010  1.00  0.00    -0.027 A
HETATM   30  C20 UNL     1      -8.942 -21.870  27.851  1.00  0.00     0.051 C
HETATM   31  C21 UNL     1      -6.776 -22.574  26.915  1.00  0.00     0.078 A
HETATM   32  C22 UNL     1      -5.434 -22.828  27.045  1.00  0.00    -0.021 A
HETATM   33  C23 UNL     1      -4.604 -23.299  25.901  1.00  0.00     0.052 C
HETATM   34  C24 UNL     1      -4.791 -22.651  28.268  1.00  0.00    -0.039 A
HETATM   35  C25 UNL     1      -3.325 -22.943  28.352  1.00  0.00     0.050 C
BRANCH  31  36
HETATM   36  O2  UNL     1      -7.362 -22.771  25.662  1.00  0.00    -0.360 OA
ATOM     37  H2  UNL     1      -7.482 -22.066  25.037  1.00  0.00     0.217 HD
ENDBRANCH  31  36
ENDBRANCH  24  27
ENDBRANCH   1  20
TORSDOF 8
ENDMDL