MODEL 4
REMARK VINA RESULT: -6.821674865      2.097      5.737
REMARK  9 active torsions:
REMARK  status: ('A' for Active; 'I' for Inactive)
REMARK    1  A    between atoms: C2_2  and  C3_3
REMARK    2  A    between atoms: C3_3  and  C5_5
REMARK    3  A    between atoms: C6_7  and  C7_8
REMARK    4  A    between atoms: C6_7  and  C12_13
REMARK    5  A    between atoms: C7_8  and  C8_9
REMARK    6  A    between atoms: C12_13  and  C15_16
REMARK    7  A    between atoms: C15_16  and  O2_17
REMARK    8  A    between atoms: O2_17  and  C16_18
REMARK    9  A    between atoms: C24_29  and  O6_30
ROOT
HETATM    1  C5  UNL     1      -8.776 -26.462  32.287  1.00  0.00     0.199 C
HETATM    2  O1  UNL     1      -9.851 -25.840  31.732  1.00  0.00    -0.362 OA
HETATM    3  C6  UNL     1      -9.434 -24.820  30.872  1.00  0.00     0.116 C
HETATM    4  C18 UNL     1      -8.242 -25.404  30.193  1.00  0.00     0.196 C
HETATM    5  O4  UNL     1      -7.106 -24.657  30.450  1.00  0.00    -0.217 OA
HETATM    6  O5  UNL     1      -6.097 -24.608  29.773  1.00  0.00    -0.226 OA
HETATM    7  C19 UNL     1      -6.054 -24.778  28.435  1.00  0.00     0.122 C
HETATM    8  C20 UNL     1      -6.534 -23.555  27.697  1.00  0.00     0.044 C
HETATM    9  C21 UNL     1      -5.667 -23.444  26.468  1.00  0.00     0.003 C
HETATM   10  C22 UNL     1      -4.297 -23.799  27.062  1.00  0.00     0.003 C
HETATM   11  C23 UNL     1      -4.661 -25.017  27.886  1.00  0.00     0.044 C
HETATM   12  C24 UNL     1      -6.952 -25.934  28.086  1.00  0.00     0.163 C
HETATM   13  C25 UNL     1      -8.267 -25.882  28.824  1.00  0.00     0.062 C
HETATM   14  C26 UNL     1      -8.752 -27.345  28.727  1.00  0.00     0.016 C
HETATM   15  C27 UNL     1      -7.952 -26.625  31.082  1.00  0.00     0.197 C
HETATM   16  O7  UNL     1      -7.216 -27.548  30.886  1.00  0.00    -0.291 OA
ENDROOT
BRANCH   3  17
HETATM   17  C7  UNL     1      -8.843 -23.750  31.814  1.00  0.00     0.070 C
BRANCH  17  18
HETATM   18  C8  UNL     1      -9.575 -23.536  33.060  1.00  0.00    -0.022 C
HETATM   19  C9  UNL     1      -8.920 -23.353  34.194  1.00  0.00    -0.091 C
HETATM   20  C10 UNL     1      -9.646 -23.136  35.498  1.00  0.00     0.042 C
HETATM   21  C11 UNL     1      -7.437 -23.296  34.205  1.00  0.00     0.042 C
ENDBRANCH  17  18
ENDBRANCH   3  17
BRANCH   3  22
HETATM   22  C12 UNL     1     -10.643 -24.410  30.201  1.00  0.00     0.009 C
HETATM   23  C13 UNL     1     -11.437 -25.436  29.447  1.00  0.00     0.020 C
HETATM   24  C14 UNL     1     -11.655 -23.669  31.053  1.00  0.00     0.020 C
BRANCH  22  25
HETATM   25  C15 UNL     1     -10.286 -23.334  29.153  1.00  0.00     0.190 C
BRANCH  25  26
HETATM   26  O2  UNL     1     -11.409 -22.632  28.711  1.00  0.00    -0.321 OA
BRANCH  26  27
HETATM   27  C16 UNL     1     -11.498 -21.276  28.571  1.00  0.00     0.254 C
HETATM   28  C17 UNL     1     -12.629 -20.445  29.061  1.00  0.00     0.126 C
HETATM   29  O3  UNL     1     -10.559 -20.677  27.986  1.00  0.00    -0.266 OA
ENDBRANCH  26  27
ENDBRANCH  25  26
ENDBRANCH  22  25
ENDBRANCH   3  22
BRANCH   1  30
HETATM   30  C3  UNL     1      -9.190 -27.643  33.058  1.00  0.00     0.018 C
HETATM   31  C4  UNL     1     -10.347 -28.440  32.483  1.00  0.00     0.013 C
BRANCH  30  32
HETATM   32  C2  UNL     1      -9.248 -27.637  34.525  1.00  0.00     0.002 C
HETATM   33  C1  UNL     1      -8.231 -26.836  35.262  1.00  0.00     0.005 C
ENDBRANCH  30  32
ENDBRANCH   1  30
BRANCH  12  34
HETATM   34  O6  UNL     1      -6.276 -27.147  28.192  1.00  0.00    -0.392 OA
ATOM     35  H6  UNL     1      -5.996 -27.460  27.340  1.00  0.00     0.210 HD
ENDBRANCH  12  34
TORSDOF 9
ENDMDL