MODEL 2
REMARK VINA RESULT: -7.564427721      2.831      7.980
REMARK  7 active torsions:
REMARK  status: ('A' for Active; 'I' for Inactive)
REMARK    1  A    between atoms: O1_2  and  C2_3
REMARK    2  A    between atoms: C2_3  and  C3_4
REMARK    3  A    between atoms: C3_4  and  C4_5
REMARK    4  A    between atoms: C3_4  and  C25_37
REMARK    5  A    between atoms: N2_9  and  C6_11
REMARK    6  A    between atoms: C6_11  and  C8_13
REMARK    7  A    between atoms: C19_26  and  C20_27
ROOT
HETATM    1  C4  UNL     1      -5.625 -23.270  28.932  1.00  0.00     0.089 A
HETATM    2  N1  UNL     1      -6.964 -23.385  28.896  1.00  0.00    -0.331 N
ATOM      3  H1  UNL     1      -7.431 -23.495  27.995  1.00  0.00     0.168 HD
HETATM    4  C5  UNL     1      -7.703 -23.361  30.017  1.00  0.00     0.111 A
HETATM    5  N2  UNL     1      -8.929 -23.443  30.054  1.00  0.00    -0.367 N
ATOM      6  H2  UNL     1      -9.257 -23.409  31.019  1.00  0.00     0.161 HD
HETATM    7  C17 UNL     1      -6.994 -23.209  31.240  1.00  0.00     0.010 A
HETATM    8  C18 UNL     1      -7.863 -23.089  32.416  1.00  0.00     0.054 C
HETATM    9  C19 UNL     1      -5.650 -23.095  31.295  1.00  0.00     0.058 A
HETATM   10  N4  UNL     1      -4.970 -23.128  30.095  1.00  0.00    -0.344 N
ATOM     11  H4  UNL     1      -3.953 -23.044  30.093  1.00  0.00     0.167 HD
ENDROOT
BRANCH   5  12
HETATM   12  C6  UNL     1     -10.006 -23.568  29.183  1.00  0.00     0.113 C
HETATM   13  C7  UNL     1     -10.299 -22.275  28.417  1.00  0.00     0.037 C
BRANCH  12  14
HETATM   14  C8  UNL     1     -11.221 -24.165  29.720  1.00  0.00    -0.027 A
HETATM   15  C9  UNL     1     -12.251 -23.309  30.135  1.00  0.00     0.010 A
HETATM   16  C10 UNL     1     -13.445 -23.736  30.633  1.00  0.00     0.013 A
HETATM   17  C11 UNL     1     -13.661 -25.084  30.743  1.00  0.00    -0.001 A
HETATM   18  C12 UNL     1     -12.682 -25.952  30.352  1.00  0.00     0.086 A
HETATM   19  C16 UNL     1     -14.959 -25.573  31.248  1.00  0.00     0.212 C
HETATM   20  C13 UNL     1     -11.481 -25.515  29.848  1.00  0.00    -0.020 A
HETATM   21  O2  UNL     1     -12.957 -27.313  30.495  1.00  0.00    -0.325 OA
HETATM   22  C14 UNL     1     -10.441 -26.480  29.401  1.00  0.00     0.052 C
HETATM   23  C15 UNL     1     -14.089 -27.739  31.245  1.00  0.00     0.345 C
HETATM   24  O3  UNL     1     -15.187 -26.923  30.978  1.00  0.00    -0.362 OA
ENDBRANCH  12  14
ENDBRANCH   5  12
BRANCH   1  25
HETATM   25  C3  UNL     1      -4.836 -23.307  27.680  1.00  0.00     0.081 C
BRANCH  25  26
HETATM   26  C2  UNL     1      -5.474 -22.511  26.568  1.00  0.00     0.179 C
BRANCH  26  27
HETATM   27  O1  UNL     1      -6.371 -23.296  25.838  1.00  0.00    -0.395 OA
HETATM   28  C1  UNL     1      -5.635 -24.371  25.341  1.00  0.00     0.201 C
ENDBRANCH  26  27
ENDBRANCH  25  26
BRANCH  25  29
HETATM   29  C25 UNL     1      -3.431 -22.905  27.994  1.00  0.00    -0.001 A
HETATM   30  C26 UNL     1      -2.363 -23.735  27.342  1.00  0.00     0.006 A
HETATM   31  C27 UNL     1      -2.515 -22.276  27.050  1.00  0.00     0.006 A
ENDBRANCH  25  29
ENDBRANCH   1  25
BRANCH   9  32
HETATM   32  C20 UNL     1      -4.887 -22.847  32.496  1.00  0.00     0.047 A
HETATM   33  C21 UNL     1      -4.691 -23.544  33.650  1.00  0.00     0.043 A
HETATM   34  C22 UNL     1      -5.072 -24.932  33.959  1.00  0.00     0.071 C
HETATM   35  N3  UNL     1      -3.988 -22.744  34.484  1.00  0.00    -0.265 N
HETATM   36  O4  UNL     1      -3.751 -21.626  33.899  1.00  0.00    -0.242 OA
ATOM     37  H3  UNL     1      -3.692 -22.990  35.429  1.00  0.00     0.194 HD
HETATM   38  C23 UNL     1      -4.254 -21.595  32.697  1.00  0.00     0.087 A
HETATM   39  C24 UNL     1      -4.182 -20.471  31.729  1.00  0.00     0.080 C
ENDBRANCH   9  32
TORSDOF 7
ENDMDL