MODEL 5
REMARK VINA RESULT: -7.734816282      1.271      1.550
REMARK  8 active torsions:
REMARK  status: ('A' for Active; 'I' for Inactive)
REMARK    1  A    between atoms: C2_2  and  C3_3
REMARK    2  A    between atoms: C3_3  and  C4_4
REMARK    3  A    between atoms: C4_4  and  C5_5
REMARK    4  A    between atoms: C12_12  and  C14_14
REMARK    5  A    between atoms: C14_14  and  C15_15
REMARK    6  A    between atoms: C15_15  and  O1_16
REMARK    7  A    between atoms: C15_15  and  C16_18
REMARK    8  A    between atoms: C19_21  and  O2_22
ROOT
HETATM    1  C5  UNL     1      -5.554 -22.519  29.890  1.00  0.00     0.067 C
HETATM    2  C6  UNL     1      -5.365 -23.941  29.338  1.00  0.00     0.048 C
HETATM    3  C7  UNL     1      -6.694 -24.411  29.026  1.00  0.00    -0.027 C
HETATM    4  C8  UNL     1      -6.835 -23.770  27.674  1.00  0.00     0.016 C
HETATM    5  C9  UNL     1      -7.340 -25.678  28.823  1.00  0.00     0.036 C
HETATM    6  C10 UNL     1      -8.835 -25.546  28.972  1.00  0.00    -0.027 C
HETATM    7  C11 UNL     1      -9.658 -24.385  28.753  1.00  0.00     0.007 C
HETATM    8  C12 UNL     1     -10.027 -23.343  29.731  1.00  0.00     0.081 C
HETATM    9  C13 UNL     1     -10.649 -22.213  28.853  1.00  0.00     0.051 C
HETATM   10  O4  UNL     1      -9.065 -22.616  30.437  1.00  0.00    -0.346 OA
HETATM   11  C21 UNL     1      -7.897 -22.676  29.840  1.00  0.00     0.270 C
HETATM   12  O5  UNL     1      -6.802 -21.938  29.913  1.00  0.00    -0.350 OA
HETATM   13  C22 UNL     1      -7.354 -23.987  30.268  1.00  0.00     0.085 C
HETATM   14  C23 UNL     1      -6.464 -23.826  31.514  1.00  0.00     0.083 C
HETATM   15  C24 UNL     1      -7.309 -23.373  32.680  1.00  0.00     0.049 C
HETATM   16  C25 UNL     1      -6.471 -23.835  33.866  1.00  0.00     0.114 C
HETATM   17  C26 UNL     1      -5.892 -25.089  33.360  1.00  0.00     0.259 C
HETATM   18  O6  UNL     1      -5.337 -26.045  33.993  1.00  0.00    -0.265 OA
HETATM   19  O7  UNL     1      -6.041 -25.087  32.002  1.00  0.00    -0.309 OA
HETATM   20  C27 UNL     1      -5.380 -22.805  31.405  1.00  0.00     0.077 C
ENDROOT
BRANCH   8  21
HETATM   21  C14 UNL     1     -11.213 -23.716  30.585  1.00  0.00     0.080 C
BRANCH  21  22
HETATM   22  C15 UNL     1     -10.935 -24.119  31.972  1.00  0.00     0.178 C
BRANCH  22  23
HETATM   23  O1  UNL     1     -10.016 -25.146  32.062  1.00  0.00    -0.389 OA
ATOM     24  H1  UNL     1     -10.018 -25.572  32.911  1.00  0.00     0.210 HD
ENDBRANCH  22  23
BRANCH  22  25
HETATM   25  C16 UNL     1     -12.197 -24.657  32.602  1.00  0.00     0.084 A
HETATM   26  C17 UNL     1     -12.321 -25.565  33.624  1.00  0.00     0.040 A
HETATM   27  C18 UNL     1     -13.653 -25.777  33.889  1.00  0.00     0.066 A
HETATM   28  C19 UNL     1     -14.313 -24.949  32.973  1.00  0.00     0.185 A
HETATM   29  O3  UNL     1     -13.433 -24.326  32.256  1.00  0.00    -0.290 OA
BRANCH  28  30
HETATM   30  O2  UNL     1     -15.706 -24.878  32.922  1.00  0.00    -0.335 OA
HETATM   31  C20 UNL     1     -16.545 -25.612  33.772  1.00  0.00     0.212 C
ENDBRANCH  28  30
ENDBRANCH  22  25
ENDBRANCH  21  22
ENDBRANCH   8  21
BRANCH   1  32
HETATM   32  C4  UNL     1      -4.549 -21.561  29.391  1.00  0.00     0.038 C
BRANCH  32  33
HETATM   33  C3  UNL     1      -3.529 -22.179  28.458  1.00  0.00     0.002 C
BRANCH  33  34
HETATM   34  C2  UNL     1      -3.286 -21.125  27.367  1.00  0.00    -0.004 C
HETATM   35  C1  UNL     1      -2.502 -21.763  26.262  1.00  0.00     0.005 C
ENDBRANCH  33  34
ENDBRANCH  32  33
ENDBRANCH   1  32
TORSDOF 8
ENDMDL