MODEL 5
REMARK VINA RESULT: -7.541674134      3.960      6.922
REMARK  8 active torsions:
REMARK  status: ('A' for Active; 'I' for Inactive)
REMARK    1  A    between atoms: O1_2  and  C2_3
REMARK    2  A    between atoms: C8_9  and  O2_10
REMARK    3  A    between atoms: C13_16  and  O4_17
REMARK    4  A    between atoms: O4_17  and  C14_18
REMARK    5  A    between atoms: C14_18  and  C15_19
REMARK    6  A    between atoms: C15_19  and  C16_20
REMARK    7  A    between atoms: C16_20  and  N1_21
REMARK    8  A    between atoms: C22_27  and  O5_28
ROOT
HETATM    1  C2  UNL     1      -5.129 -23.229  32.447  1.00  0.00     0.102 A
HETATM    2  C3  UNL     1      -4.310 -22.697  31.486  1.00  0.00     0.047 A
HETATM    3  C4  UNL     1      -4.801 -22.290  30.247  1.00  0.00    -0.052 A
HETATM    4  C5  UNL     1      -3.882 -21.716  29.231  1.00  0.00     0.049 C
HETATM    5  C6  UNL     1      -6.164 -22.423  29.965  1.00  0.00    -0.036 A
HETATM    6  C7  UNL     1      -7.010 -22.958  30.921  1.00  0.00     0.042 A
HETATM    7  C8  UNL     1      -6.483 -23.352  32.138  1.00  0.00     0.115 A
HETATM    8  C10 UNL     1      -8.425 -23.068  30.596  1.00  0.00     0.100 A
HETATM    9  O3  UNL     1      -9.267 -23.571  31.482  1.00  0.00    -0.308 OA
HETATM   10  C11 UNL     1     -10.552 -23.690  31.239  1.00  0.00     0.093 A
HETATM   11  C12 UNL     1     -11.381 -24.224  32.204  1.00  0.00     0.077 A
HETATM   12  C13 UNL     1     -12.724 -24.356  31.967  1.00  0.00     0.104 A
HETATM   13  C22 UNL     1     -13.257 -23.955  30.760  1.00  0.00     0.100 A
HETATM   14  C23 UNL     1     -12.466 -23.417  29.768  1.00  0.00     0.057 A
HETATM   15  C24 UNL     1     -11.094 -23.293  30.035  1.00  0.00     0.051 A
HETATM   16  C25 UNL     1     -10.272 -22.761  29.068  1.00  0.00     0.194 A
HETATM   17  O6  UNL     1     -10.725 -22.391  27.970  1.00  0.00    -0.287 OA
HETATM   18  C26 UNL     1      -8.907 -22.654  29.379  1.00  0.00     0.028 A
HETATM   19  C27 UNL     1      -8.041 -22.085  28.343  1.00  0.00     0.050 A
HETATM   20  C28 UNL     1      -6.603 -21.975  28.645  1.00  0.00     0.045 A
ENDROOT
BRANCH  12  21
HETATM   21  O4  UNL     1     -13.595 -24.889  32.912  1.00  0.00    -0.348 OA
BRANCH  21  22
HETATM   22  C14 UNL     1     -13.064 -25.157  34.218  1.00  0.00     0.181 C
BRANCH  22  23
HETATM   23  C15 UNL     1     -14.155 -25.060  35.264  1.00  0.00     0.071 C
BRANCH  23  24
HETATM   24  C16 UNL     1     -15.160 -26.145  35.092  1.00  0.00     0.065 C
BRANCH  24  25
HETATM   25  N1  UNL     1     -16.398 -25.747  34.547  1.00  0.00    -0.374 N
HETATM   26  C17 UNL     1     -17.543 -25.862  35.367  1.00  0.00     0.127 C
HETATM   27  C18 UNL     1     -18.501 -24.728  34.979  1.00  0.00     0.021 C
HETATM   28  C19 UNL     1     -18.896 -24.957  33.564  1.00  0.00     0.007 C
HETATM   29  C20 UNL     1     -17.755 -25.096  32.603  1.00  0.00     0.044 C
HETATM   30  C21 UNL     1     -16.569 -25.824  33.154  1.00  0.00     0.063 C
ENDBRANCH  24  25
ENDBRANCH  23  24
ENDBRANCH  22  23
ENDBRANCH  21  22
ENDBRANCH  12  21
BRANCH  13  31
HETATM   31  O5  UNL     1     -14.626 -24.088  30.516  1.00  0.00    -0.358 OA
ATOM     32  H5  UNL     1     -14.932 -24.581  29.764  1.00  0.00     0.217 HD
ENDBRANCH  13  31
BRANCH   7  33
HETATM   33  O2  UNL     1      -7.299 -23.885  33.098  1.00  0.00    -0.352 OA
HETATM   34  C9  UNL     1      -7.339 -25.314  33.263  1.00  0.00     0.210 C
ENDBRANCH   7  33
BRANCH   1  35
HETATM   35  O1  UNL     1      -4.609 -23.622  33.663  1.00  0.00    -0.353 OA
HETATM   36  C1  UNL     1      -3.540 -22.886  34.217  1.00  0.00     0.210 C
ENDBRANCH   1  35
TORSDOF 8
ENDMDL