MODEL 5
REMARK VINA RESULT: -5.246291641      2.019      3.433
REMARK  0 active torsions:
REMARK  status: ('A' for Active; 'I' for Inactive)
ROOT
HETATM    1  C1  UNL     1      22.359   8.277 -32.987  1.00  0.00     0.002 C
HETATM    2  C2  UNL     1      22.598   9.714 -32.556  1.00  0.00     0.030 C
HETATM    3  C3  UNL     1      24.047   9.903 -32.245  1.00  0.00     0.273 C
HETATM    4  N1  UNL     1      24.464   9.429 -30.970  1.00  0.00     0.098 N
HETATM    5  C4  UNL     1      25.827   9.019 -31.009  1.00  0.00     0.299 C
HETATM    6  C5  UNL     1      26.042   7.551 -31.176  1.00  0.00     0.199 C
HETATM    7  O1  UNL     1      24.882   6.935 -31.588  1.00  0.00    -0.376 OA
HETATM    8  C6  UNL     1      23.801   7.133 -30.781  1.00  0.00     0.094 A
HETATM    9  C7  UNL     1      22.514   6.516 -31.201  1.00  0.00     0.040 C
HETATM   10  C8  UNL     1      21.620   7.479 -31.962  1.00  0.00     0.003 C
HETATM   11  C9  UNL     1      24.024   7.502 -29.369  1.00  0.00     0.079 A
HETATM   12  C10 UNL     1      23.569   8.524 -30.329  1.00  0.00     0.260 A
ENDROOT
TORSDOF 0
ENDMDL