MODEL 5
REMARK VINA RESULT: -5.695950627      1.824      2.591
REMARK  0 active torsions:
REMARK  status: ('A' for Active; 'I' for Inactive)
ROOT
HETATM    1  N1  UNL     1      24.278   7.072 -36.407  1.00  0.00    -0.197 NA
HETATM    2  C1  UNL     1      23.563   6.978 -35.484  1.00  0.00     0.067 C
HETATM    3  C2  UNL     1      22.672   6.870 -34.328  1.00  0.00     0.126 C
HETATM    4  C3  UNL     1      21.245   6.599 -34.750  1.00  0.00     0.139 C
HETATM    5  C4  UNL     1      20.519   7.918 -34.458  1.00  0.00     0.038 C
HETATM    6  C5  UNL     1      21.200   8.285 -33.157  1.00  0.00    -0.001 C
HETATM    7  C6  UNL     1      21.060   7.245 -32.107  1.00  0.00     0.014 C
HETATM    8  C7  UNL     1      22.326   7.471 -31.269  1.00  0.00     0.007 C
HETATM    9  C8  UNL     1      23.341   8.054 -32.223  1.00  0.00     0.007 C
HETATM   10  C9  UNL     1      22.674   8.162 -33.565  1.00  0.00     0.010 C
HETATM   11  C10 UNL     1      20.931   5.854 -32.578  1.00  0.00     0.173 C
HETATM   12  O1  UNL     1      20.715   5.663 -33.907  1.00  0.00    -0.384 OA
ENDROOT
TORSDOF 0
ENDMDL