MODEL 3
REMARK VINA RESULT: -5.462380062      2.140      3.531
REMARK  0 active torsions:
REMARK  status: ('A' for Active; 'I' for Inactive)
ROOT
HETATM    1  N1  UNL     1      23.887   7.890 -28.699  1.00  0.00    -0.193 NA
HETATM    2  C1  UNL     1      23.849   8.096 -29.834  1.00  0.00     0.118 C
HETATM    3  C2  UNL     1      23.802   8.328 -31.255  1.00  0.00     0.335 C
HETATM    4  C3  UNL     1      24.192   9.657 -31.644  1.00  0.00     0.118 C
HETATM    5  N2  UNL     1      24.515  10.733 -31.965  1.00  0.00    -0.193 NA
HETATM    6  C4  UNL     1      24.630   7.277 -31.965  1.00  0.00     0.056 C
HETATM    7  C5  UNL     1      24.293   5.896 -31.536  1.00  0.00     0.011 C
HETATM    8  C6  UNL     1      22.822   5.645 -31.804  1.00  0.00     0.031 C
HETATM    9  C7  UNL     1      22.018   6.813 -31.325  1.00  0.00     0.276 C
HETATM   10  N3  UNL     1      22.480   8.073 -31.827  1.00  0.00     0.126 N
HETATM   11  C8  UNL     1      22.782   8.035 -33.234  1.00  0.00     0.276 C
HETATM   12  C9  UNL     1      24.153   7.456 -33.397  1.00  0.00     0.039 C
ENDROOT
TORSDOF 0
ENDMDL