MODEL 3
REMARK VINA RESULT: -5.399430979      1.983      4.069
REMARK  0 active torsions:
REMARK  status: ('A' for Active; 'I' for Inactive)
ROOT
HETATM    1  N1  UNL     1      20.131   6.007 -35.719  1.00  0.00    -0.197 NA
HETATM    2  C1  UNL     1      20.948   6.814 -35.553  1.00  0.00     0.069 C
HETATM    3  C2  UNL     1      21.977   7.847 -35.320  1.00  0.00     0.131 C
HETATM    4  C3  UNL     1      23.274   7.213 -34.898  1.00  0.00     0.025 C
HETATM    5  C4  UNL     1      23.230   6.523 -33.585  1.00  0.00     0.006 C
HETATM    6  C5  UNL     1      23.483   7.308 -32.377  1.00  0.00    -0.012 C
HETATM    7  C6  UNL     1      22.213   7.271 -31.510  1.00  0.00     0.024 C
HETATM    8  C7  UNL     1      21.094   7.864 -32.381  1.00  0.00     0.122 C
HETATM    9  N2  UNL     1      21.597   8.917 -33.114  1.00  0.00    -0.392 N
HETATM   10  C8  UNL     1      22.650   9.661 -32.506  1.00  0.00     0.122 C
HETATM   11  C9  UNL     1      23.871   8.728 -32.518  1.00  0.00     0.024 C
HETATM   12  C10 UNL     1      21.525   8.977 -34.505  1.00  0.00     0.077 C
ENDROOT
TORSDOF 0
ENDMDL