MODEL 2
REMARK VINA RESULT: -5.527606609      2.530      4.055
REMARK  2 active torsions:
REMARK  status: ('A' for Active; 'I' for Inactive)
REMARK    1  A    between atoms: N1_1  and  N2_4
REMARK    2  A    between atoms: N2_4  and  C1_5
ROOT
HETATM    1  C1  UNL     1      23.550   6.531 -30.862  1.00  0.00     0.172 C
HETATM    2  C2  UNL     1      23.746   7.210 -29.578  1.00  0.00     0.052 C
HETATM    3  C3  UNL     1      24.405   8.524 -29.561  1.00  0.00     0.008 C
HETATM    4  C4  UNL     1      25.172   8.909 -30.775  1.00  0.00    -0.011 C
HETATM    5  C5  UNL     1      24.322   9.822 -31.633  1.00  0.00     0.035 C
HETATM    6  C6  UNL     1      23.147   9.140 -32.212  1.00  0.00     0.273 C
HETATM    7  N3  UNL     1      23.239   7.776 -32.476  1.00  0.00     0.100 N
HETATM    8  C7  UNL     1      22.338   6.929 -31.685  1.00  0.00     0.323 C
HETATM    9  C8  UNL     1      24.316   7.022 -32.021  1.00  0.00     0.268 C
HETATM   10  C9  UNL     1      25.557   7.729 -31.626  1.00  0.00     0.044 C
ENDROOT
BRANCH   1  11
HETATM   11  N2  UNL     1      23.571   5.111 -30.730  1.00  0.00    -0.362 NA
BRANCH  11  12
HETATM   12  N1  UNL     1      23.594   4.000 -30.638  1.00  0.00    -0.285 N
ATOM     13  H12 UNL     1      23.931   4.834 -31.119  1.00  0.00     0.191 HD
ATOM     14  H11 UNL     1      23.607   2.984 -30.545  1.00  0.00     0.191 HD
ENDBRANCH  11  12
ENDBRANCH   1  11
TORSDOF 2
ENDMDL