MODEL 2
REMARK VINA RESULT: -5.136642109      1.663      4.122
REMARK  0 active torsions:
REMARK  status: ('A' for Active; 'I' for Inactive)
ROOT
HETATM    1  C1  UNL     1      20.750  10.217 -33.107  1.00  0.00     0.002 C
HETATM    2  C2  UNL     1      22.066  10.831 -33.424  1.00  0.00     0.002 C
HETATM    3  C3  UNL     1      23.022  10.825 -32.232  1.00  0.00     0.038 C
HETATM    4  C4  UNL     1      23.720   9.461 -32.290  1.00  0.00     0.246 C
HETATM    5  C5  UNL     1      25.008   9.441 -31.551  1.00  0.00     0.203 C
HETATM    6  O1  UNL     1      24.800   9.041 -30.248  1.00  0.00    -0.387 OA
HETATM    7  C6  UNL     1      24.472   7.692 -30.264  1.00  0.00     0.198 C
HETATM    8  C7  UNL     1      23.327   7.365 -31.174  1.00  0.00     0.299 C
HETATM    9  N1  UNL     1      22.752   8.494 -31.829  1.00  0.00     0.097 N
HETATM   10  C8  UNL     1      22.034   8.058 -33.038  1.00  0.00     0.273 C
HETATM   11  C9  UNL     1      20.713   8.738 -33.091  1.00  0.00     0.030 C
ENDROOT
TORSDOF 0
ENDMDL