MODEL 5
REMARK VINA RESULT: -5.047663385      1.914      2.891
REMARK  0 active torsions:
REMARK  status: ('A' for Active; 'I' for Inactive)
ROOT
HETATM    1  C1  UNL     1      24.307   9.446 -31.172  1.00  0.00     0.001 C
HETATM    2  C2  UNL     1      24.382   8.598 -29.898  1.00  0.00     0.001 C
HETATM    3  C3  UNL     1      23.332   7.510 -30.176  1.00  0.00     0.013 C
HETATM    4  C4  UNL     1      23.227   7.420 -31.646  1.00  0.00     0.002 C
HETATM    5  C5  UNL     1      24.266   8.329 -32.222  1.00  0.00     0.013 C
HETATM    6  C6  UNL     1      23.381   6.022 -32.202  1.00  0.00     0.132 C
HETATM    7  N1  UNL     1      22.342   5.966 -33.221  1.00  0.00    -0.196 NA
HETATM    8  C7  UNL     1      21.104   5.559 -32.545  1.00  0.00     0.123 C
HETATM    9  C8  UNL     1      20.822   6.795 -31.681  1.00  0.00     0.051 C
HETATM   10  C9  UNL     1      21.853   7.753 -32.190  1.00  0.00     0.156 C
HETATM   11  O1  UNL     1      22.037   7.269 -33.509  1.00  0.00    -0.297 OA
ENDROOT
TORSDOF 0
ENDMDL