MODEL 5
REMARK VINA RESULT: -5.464747703      1.906      3.011
REMARK  0 active torsions:
REMARK  status: ('A' for Active; 'I' for Inactive)
ROOT
HETATM    1  N1  UNL     1      23.548   3.856 -30.427  1.00  0.00    -0.196 NA
HETATM    2  C1  UNL     1      23.149   4.755 -31.029  1.00  0.00     0.071 C
HETATM    3  C2  UNL     1      22.671   5.890 -31.778  1.00  0.00     0.076 C
HETATM    4  C3  UNL     1      23.070   7.217 -31.207  1.00  0.00     0.031 C
HETATM    5  C4  UNL     1      22.106   8.162 -31.928  1.00  0.00    -0.005 C
HETATM    6  C5  UNL     1      22.829   8.783 -33.053  1.00  0.00     0.035 C
HETATM    7  C6  UNL     1      22.984   7.931 -34.271  1.00  0.00     0.273 C
HETATM    8  N2  UNL     1      22.305   6.665 -34.089  1.00  0.00     0.090 N
HETATM    9  C7  UNL     1      20.938   6.974 -33.774  1.00  0.00     0.277 C
HETATM   10  C8  UNL     1      20.923   7.329 -32.282  1.00  0.00     0.020 C
HETATM   11  C9  UNL     1      21.148   5.962 -31.615  1.00  0.00     0.033 C
HETATM   12  C10 UNL     1      22.951   5.754 -33.238  1.00  0.00     0.296 C
ENDROOT
TORSDOF 0
ENDMDL