MODEL 2
REMARK VINA RESULT: -5.719895203      1.337      2.894
REMARK  0 active torsions:
REMARK  status: ('A' for Active; 'I' for Inactive)
ROOT
HETATM    1  C1  UNL     1      21.974  10.947 -33.353  1.00  0.00     0.003 C
HETATM    2  C2  UNL     1      20.652  10.340 -33.022  1.00  0.00     0.003 C
HETATM    3  C3  UNL     1      20.318   9.135 -33.913  1.00  0.00     0.041 C
HETATM    4  C4  UNL     1      21.143   7.999 -33.639  1.00  0.00     0.094 A
HETATM    5  O1  UNL     1      20.758   7.416 -32.305  1.00  0.00    -0.368 OA
HETATM    6  C5  UNL     1      21.347   6.750 -33.348  1.00  0.00     0.164 A
HETATM    7  C6  UNL     1      22.879   6.901 -33.317  1.00  0.00     0.051 A
HETATM    8  C7  UNL     1      23.467   6.941 -31.932  1.00  0.00     0.176 C
HETATM    9  O2  UNL     1      23.929   8.270 -31.760  1.00  0.00    -0.385 OA
HETATM   10  C8  UNL     1      22.871   8.986 -32.241  1.00  0.00     0.129 C
HETATM   11  C9  UNL     1      23.090  10.448 -32.422  1.00  0.00     0.032 C
HETATM   12  C10 UNL     1      22.606   8.368 -33.576  1.00  0.00     0.060 A
ENDROOT
TORSDOF 0
ENDMDL