MODEL 4
REMARK VINA RESULT: -6.719028489      2.904      5.249
REMARK  11 active torsions:
REMARK  status: ('A' for Active; 'I' for Inactive)
REMARK    1  A    between atoms: C2_2  and  C3_3
REMARK    2  A    between atoms: C5_8  and  C6_9
REMARK    3  A    between atoms: C6_9  and  C7_10
REMARK    4  A    between atoms: C7_10  and  C8_11
REMARK    5  A    between atoms: C8_11  and  N2_12
REMARK    6  A    between atoms: C10_17  and  O2_18
REMARK    7  A    between atoms: O2_18  and  C11_19
REMARK    8  A    between atoms: C11_19  and  C12_20
REMARK    9  A    between atoms: C12_20  and  N5_21
REMARK   10  A    between atoms: C12_20  and  C13_25
REMARK   11  A    between atoms: C13_25  and  O3_26
ROOT
HETATM    1  C3  UNL     1     -26.312  29.202 -17.792  1.00  0.00     0.108 C
HETATM    2  C4  UNL     1     -26.537  30.222 -16.752  1.00  0.00     0.224 C
HETATM    3  O1  UNL     1     -26.183  31.438 -16.839  1.00  0.00    -0.273 OA
HETATM    4  N1  UNL     1     -27.206  29.575 -15.679  1.00  0.00    -0.354 N
ATOM      5  H1  UNL     1     -27.763  30.061 -14.975  1.00  0.00     0.163 HD
HETATM    6  C5  UNL     1     -27.005  28.159 -15.707  1.00  0.00     0.114 C
HETATM    7  C10 UNL     1     -26.359  27.912 -17.042  1.00  0.00     0.157 C
ENDROOT
BRANCH   7   8
HETATM    8  O2  UNL     1     -26.934  26.879 -17.746  1.00  0.00    -0.381 OA
BRANCH   8   9
HETATM    9  C11 UNL     1     -26.007  25.865 -18.004  1.00  0.00     0.203 C
BRANCH   9  10
HETATM   10  C12 UNL     1     -25.313  26.045 -19.313  1.00  0.00     0.230 C
BRANCH  10  11
HETATM   11  N5  UNL     1     -23.916  25.648 -19.244  1.00  0.00    -0.071 N
ATOM     12  H53 UNL     1     -23.382  26.034 -20.023  1.00  0.00     0.274 HD
ATOM     13  H52 UNL     1     -23.436  26.113 -18.474  1.00  0.00     0.274 HD
ATOM     14  H51 UNL     1     -23.811  24.635 -19.188  1.00  0.00     0.274 HD
ENDBRANCH  10  11
BRANCH  10  15
HETATM   15  C13 UNL     1     -26.000  25.286 -20.430  1.00  0.00     0.199 C
BRANCH  15  16
HETATM   16  O3  UNL     1     -27.186  25.950 -20.755  1.00  0.00    -0.399 OA
ATOM     17  H3  UNL     1     -27.471  26.448 -19.998  1.00  0.00     0.209 HD
ENDBRANCH  15  16
ENDBRANCH  10  15
ENDBRANCH   9  10
ENDBRANCH   8   9
ENDBRANCH   7   8
BRANCH   1  18
HETATM   18  C2  UNL     1     -27.350  29.285 -18.889  1.00  0.00     0.012 C
HETATM   19  C1  UNL     1     -26.619  29.403 -20.217  1.00  0.00     0.006 C
ENDBRANCH   1  18
BRANCH   6  20
HETATM   20  C6  UNL     1     -28.276  27.362 -15.549  1.00  0.00     0.029 C
BRANCH  20  21
HETATM   21  C7  UNL     1     -28.109  26.309 -14.482  1.00  0.00     0.022 C
BRANCH  21  22
HETATM   22  C8  UNL     1     -28.070  24.924 -15.035  1.00  0.00     0.122 C
BRANCH  22  23
HETATM   23  N2  UNL     1     -28.803  23.983 -14.240  1.00  0.00    -0.367 N
HETATM   24  C9  UNL     1     -29.209  22.874 -14.760  1.00  0.00     0.196 C
HETATM   25  N3  UNL     1     -28.936  22.577 -16.111  1.00  0.00    -0.067 NA
HETATM   26  N4  UNL     1     -29.932  21.929 -14.005  1.00  0.00    -0.067 NA
ATOM     27  H2  UNL     1     -29.004  24.190 -13.262  1.00  0.00     0.161 HD
ENDBRANCH  22  23
ENDBRANCH  21  22
ENDBRANCH  20  21
ENDBRANCH   6  20
TORSDOF 11
ENDMDL