MODEL 1
REMARK VINA RESULT: -6.834986039      0.000      0.000
REMARK  11 active torsions:
REMARK  status: ('A' for Active; 'I' for Inactive)
REMARK    1  A    between atoms: C2_2  and  N1_3
REMARK    2  A    between atoms: C4_5  and  C5_6
REMARK    3  A    between atoms: C5_6  and  O1_7
REMARK    4  A    between atoms: C6_9  and  O2_10
REMARK    5  A    between atoms: C6_9  and  O3_12
REMARK    6  A    between atoms: O3_12  and  C7_13
REMARK    7  A    between atoms: C7_13  and  C8_14
REMARK    8  A    between atoms: C8_14  and  C9_15
REMARK    9  A    between atoms: C9_15  and  C10_16
REMARK   10  A    between atoms: C10_16  and  C11_17
REMARK   11  A    between atoms: N3_22  and  N4_24
REMARK       I    between atoms: N4_24  and  C13_26
ROOT
HETATM    1  N1  UNL     1     -27.593  28.151 -16.625  1.00  0.00    -0.341 N
HETATM    2  C3  UNL     1     -27.187  28.408 -17.962  1.00  0.00     0.103 A
HETATM    3  C4  UNL     1     -26.730  27.324 -18.549  1.00  0.00     0.028 A
HETATM    4  C6  UNL     1     -26.810  26.216 -17.611  1.00  0.00     0.253 A
HETATM    5  C12 UNL     1     -27.354  26.774 -16.385  1.00  0.00     0.167 A
HETATM    6  N3  UNL     1     -27.610  26.220 -15.244  1.00  0.00    -0.282 N
ATOM      7  H3  UNL     1     -27.997  26.803 -14.502  1.00  0.00     0.188 HD
ENDROOT
BRANCH   4   8
HETATM    8  O2  UNL     1     -27.805  25.341 -18.127  1.00  0.00    -0.356 OA
ATOM      9  H2  UNL     1     -28.640  25.747 -17.924  1.00  0.00     0.214 HD
ENDBRANCH   4   8
BRANCH   4  10
HETATM   10  O3  UNL     1     -25.685  25.454 -17.489  1.00  0.00    -0.345 OA
BRANCH  10  11
HETATM   11  C7  UNL     1     -25.705  24.187 -17.980  1.00  0.00     0.172 C
BRANCH  11  12
HETATM   12  C8  UNL     1     -24.318  23.932 -18.592  1.00  0.00     0.027 C
BRANCH  12  13
HETATM   13  C9  UNL     1     -24.507  23.520 -20.026  1.00  0.00     0.007 C
BRANCH  13  14
HETATM   14  C10 UNL     1     -23.705  22.292 -20.368  1.00  0.00     0.044 C
BRANCH  14  15
HETATM   15  C11 UNL     1     -24.344  21.138 -19.638  1.00  0.00     0.052 C
HETATM   16  N2  UNL     1     -23.939  19.940 -19.793  1.00  0.00    -0.411 N
ATOM     17  H22 UNL     1     -23.161  19.774 -20.432  1.00  0.00     0.155 HD
ATOM     18  H21 UNL     1     -24.371  19.159 -19.299  1.00  0.00     0.155 HD
ENDBRANCH  14  15
ENDBRANCH  13  14
ENDBRANCH  12  13
ENDBRANCH  11  12
ENDBRANCH  10  11
ENDBRANCH   4  10
BRANCH   3  19
HETATM   19  C5  UNL     1     -26.232  27.311 -19.962  1.00  0.00     0.206 C
BRANCH  19  20
HETATM   20  O1  UNL     1     -26.967  26.479 -20.760  1.00  0.00    -0.396 OA
ATOM     21  H1  UNL     1     -27.660  26.940 -21.217  1.00  0.00     0.209 HD
ENDBRANCH  19  20
ENDBRANCH   3  19
BRANCH   1  22
HETATM   22  C2  UNL     1     -28.155  29.162 -15.709  1.00  0.00     0.125 C
HETATM   23  C1  UNL     1     -28.427  30.407 -16.483  1.00  0.00     0.027 C
ENDBRANCH   1  22
BRANCH   6  24
HETATM   24  N4  UNL     1     -27.390  24.887 -14.974  1.00  0.00    -0.272 N
HETATM   25  C13 UNL     1     -28.408  23.906 -15.062  1.00  0.00     0.200 C
HETATM   26  N5  UNL     1     -28.489  22.982 -14.175  1.00  0.00    -0.372 N
HETATM   27  N6  UNL     1     -29.359  23.915 -16.120  1.00  0.00    -0.062 NA
ATOM     28  H52 UNL     1     -27.807  22.974 -13.416  1.00  0.00     0.158 HD
ATOM     29  H51 UNL     1     -29.221  22.275 -14.238  1.00  0.00     0.158 HD
ATOM     30  H4  UNL     1     -26.453  24.594 -14.698  1.00  0.00     0.189 HD
ENDBRANCH   6  24
TORSDOF 11
ENDMDL