MODEL 2
REMARK VINA RESULT: -6.932539015      0.901      1.019
REMARK  11 active torsions:
REMARK  status: ('A' for Active; 'I' for Inactive)
REMARK    1  A    between atoms: N1_2  and  C2_5
REMARK       I    between atoms: N2_7  and  C4_9
REMARK    2  A    between atoms: N4_11  and  C5_13
REMARK    3  A    between atoms: C5_13  and  C6_14
REMARK    4  A    between atoms: C6_14  and  C7_15
REMARK    5  A    between atoms: C7_15  and  C8_16
REMARK    6  A    between atoms: C8_16  and  N5_17
REMARK    7  A    between atoms: C8_16  and  C9_21
REMARK    8  A    between atoms: C9_21  and  C10_22
REMARK    9  A    between atoms: C10_22  and  C11_23
REMARK   10  A    between atoms: C11_23  and  N6_24
REMARK   11  A    between atoms: C13_29  and  N9_30
ROOT
HETATM    1  C2  UNL     1     -28.670  25.094 -15.665  1.00  0.00     0.268 A
HETATM    2  C3  UNL     1     -27.940  24.029 -16.386  1.00  0.00     0.055 A
HETATM    3  N2  UNL     1     -27.055  23.542 -17.208  1.00  0.00    -0.334 N
ATOM      4  H2  UNL     1     -26.960  22.537 -17.358  1.00  0.00     0.168 HD
HETATM    5  C4  UNL     1     -26.232  24.473 -17.884  1.00  0.00     0.188 C
HETATM    6  N3  UNL     1     -24.842  24.498 -17.626  1.00  0.00    -0.064 NA
HETATM    7  N4  UNL     1     -26.763  25.274 -18.719  1.00  0.00    -0.364 N
ATOM      8  H4  UNL     1     -27.770  25.206 -18.862  1.00  0.00     0.162 HD
HETATM    9  C13 UNL     1     -29.022  23.640 -15.445  1.00  0.00     0.267 A
ENDROOT
BRANCH   7  10
HETATM   10  C5  UNL     1     -26.045  26.271 -19.476  1.00  0.00     0.122 C
BRANCH  10  11
HETATM   11  C6  UNL     1     -26.069  27.564 -18.690  1.00  0.00     0.022 C
BRANCH  11  12
HETATM   12  C7  UNL     1     -26.558  28.721 -19.534  1.00  0.00     0.034 C
BRANCH  12  13
HETATM   13  C8  UNL     1     -26.937  29.832 -18.552  1.00  0.00     0.183 C
BRANCH  13  14
HETATM   14  N5  UNL     1     -25.737  30.474 -18.114  1.00  0.00    -0.075 N
ATOM     15  H53 UNL     1     -25.417  30.132 -17.209  1.00  0.00     0.274 HD
ATOM     16  H52 UNL     1     -24.922  30.199 -18.663  1.00  0.00     0.274 HD
ATOM     17  H51 UNL     1     -25.892  31.482 -18.121  1.00  0.00     0.274 HD
ENDBRANCH  13  14
BRANCH  13  18
HETATM   18  C9  UNL     1     -27.701  29.178 -17.427  1.00  0.00     0.034 C
BRANCH  18  19
HETATM   19  C10 UNL     1     -27.230  29.629 -16.076  1.00  0.00     0.022 C
BRANCH  19  20
HETATM   20  C11 UNL     1     -28.144  30.666 -15.460  1.00  0.00     0.122 C
BRANCH  20  21
HETATM   21  N6  UNL     1     -27.472  31.896 -15.172  1.00  0.00    -0.367 N
HETATM   22  C12 UNL     1     -27.395  32.892 -15.976  1.00  0.00     0.196 C
HETATM   23  N7  UNL     1     -27.973  32.910 -17.273  1.00  0.00    -0.067 NA
HETATM   24  N8  UNL     1     -26.690  34.051 -15.546  1.00  0.00    -0.067 NA
ATOM     25  H6  UNL     1     -27.021  31.987 -14.262  1.00  0.00     0.161 HD
ENDBRANCH  20  21
ENDBRANCH  19  20
ENDBRANCH  18  19
ENDBRANCH  13  18
ENDBRANCH  12  13
ENDBRANCH  11  12
ENDBRANCH  10  11
ENDBRANCH   7  10
BRANCH   1  26
HETATM   26  N1  UNL     1     -28.034  25.731 -14.527  1.00  0.00    -0.067 N
HETATM   27  C1  UNL     1     -28.724  26.974 -14.241  1.00  0.00     0.267 C
ATOM     28  H12 UNL     1     -27.032  25.863 -14.664  1.00  0.00     0.277 HD
ATOM     29  H11 UNL     1     -27.985  25.117 -13.714  1.00  0.00     0.277 HD
ENDBRANCH   1  26
BRANCH   9  30
HETATM   30  N9  UNL     1     -28.557  23.000 -14.242  1.00  0.00    -0.068 N
ATOM     31  H93 UNL     1     -27.538  23.035 -14.219  1.00  0.00     0.275 HD
ATOM     32  H92 UNL     1     -28.791  23.587 -13.441  1.00  0.00     0.275 HD
ATOM     33  H91 UNL     1     -28.861  22.045 -14.054  1.00  0.00     0.275 HD
ENDBRANCH   9  30
TORSDOF 11
ENDMDL