MODEL 4
REMARK VINA RESULT: -7.102999562      1.745      6.224
REMARK  11 active torsions:
REMARK  status: ('A' for Active; 'I' for Inactive)
REMARK    1  A    between atoms: C1_2  and  O1_3
REMARK    2  A    between atoms: N2_5  and  C2_7
REMARK    3  A    between atoms: C2_7  and  C3_8
REMARK    4  A    between atoms: C3_8  and  C4_9
REMARK    5  A    between atoms: C4_9  and  C5_10
REMARK    6  A    between atoms: C5_10  and  N3_11
REMARK    7  A    between atoms: N3_11  and  C6_14
REMARK    8  A    between atoms: C6_14  and  C7_15
REMARK    9  A    between atoms: C7_15  and  C8_16
REMARK   10  A    between atoms: C8_16  and  N4_17
REMARK   11  A    between atoms: C12_27  and  O3_28
ROOT
HETATM    1  C8  UNL     1     -24.598  27.909 -18.024  1.00  0.00     0.139 C
ENDROOT
BRANCH   1   2
HETATM    2  C7  UNL     1     -24.939  27.704 -19.496  1.00  0.00     0.048 C
BRANCH   2   3
HETATM    3  C6  UNL     1     -24.276  26.466 -20.002  1.00  0.00     0.234 C
BRANCH   3   4
HETATM    4  N3  UNL     1     -24.393  25.425 -19.034  1.00  0.00    -0.075 N
ATOM      5  H32 UNL     1     -24.415  25.796 -18.084  1.00  0.00     0.277 HD
ATOM      6  H31 UNL     1     -23.536  24.876 -18.967  1.00  0.00     0.277 HD
BRANCH   4   7
HETATM    7  C5  UNL     1     -25.565  24.571 -19.310  1.00  0.00     0.232 C
BRANCH   7   8
HETATM    8  C4  UNL     1     -26.276  24.418 -17.999  1.00  0.00     0.029 C
BRANCH   8   9
HETATM    9  C3  UNL     1     -27.455  25.345 -17.821  1.00  0.00     0.021 C
BRANCH   9  10
HETATM   10  C2  UNL     1     -28.484  24.643 -16.965  1.00  0.00     0.123 C
BRANCH  10  11
HETATM   11  N2  UNL     1     -28.679  25.519 -15.794  1.00  0.00    -0.359 N
HETATM   12  C1  UNL     1     -28.125  25.185 -14.702  1.00  0.00     0.225 C
HETATM   13  N1  UNL     1     -27.353  24.029 -14.584  1.00  0.00    -0.057 NA
ATOM     14  H2  UNL     1     -29.242  26.367 -15.860  1.00  0.00     0.162 HD
BRANCH  12  15
HETATM   15  O1  UNL     1     -28.320  26.030 -13.603  1.00  0.00    -0.335 OA
ATOM     16  H1  UNL     1     -28.126  26.959 -13.664  1.00  0.00     0.220 HD
ENDBRANCH  12  15
ENDBRANCH  10  11
ENDBRANCH   9  10
ENDBRANCH   8   9
ENDBRANCH   7   8
ENDBRANCH   4   7
ENDBRANCH   3   4
ENDBRANCH   2   3
ENDBRANCH   1   2
BRANCH   1  17
HETATM   17  N4  UNL     1     -25.031  29.223 -17.705  1.00  0.00    -0.226 N
HETATM   18  C9  UNL     1     -26.006  29.633 -17.012  1.00  0.00     0.683 A
HETATM   19  N5  UNL     1     -26.942  28.809 -16.359  1.00  0.00    -0.141 N
HETATM   20  N7  UNL     1     -26.144  31.063 -16.892  1.00  0.00    -0.175 N
HETATM   21  C10 UNL     1     -28.027  29.340 -15.580  1.00  0.00     0.340 A
ATOM     22  H5  UNL     1     -26.847  27.797 -16.443  1.00  0.00     0.189 HD
HETATM   23  O2  UNL     1     -28.855  28.589 -15.002  1.00  0.00    -0.246 OA
HETATM   24  N6  UNL     1     -28.120  30.768 -15.492  1.00  0.00    -0.292 N
HETATM   25  C11 UNL     1     -27.199  31.627 -16.133  1.00  0.00     0.146 A
ATOM     26  H6  UNL     1     -28.878  31.178 -14.947  1.00  0.00     0.172 HD
HETATM   27  C12 UNL     1     -27.316  32.932 -16.032  1.00  0.00     0.180 C
ATOM     28  H7  UNL     1     -25.476  31.676 -17.359  1.00  0.00     0.186 HD
ATOM     29  H4  UNL     1     -24.457  29.966 -18.105  1.00  0.00     0.177 HD
BRANCH  27  30
HETATM   30  O3  UNL     1     -28.344  33.507 -15.299  1.00  0.00    -0.369 OA
ATOM     31  H3  UNL     1     -28.808  34.272 -15.618  1.00  0.00     0.216 HD
ENDBRANCH  27  30
ENDBRANCH   1  17
TORSDOF 11
ENDMDL