MODEL 1
REMARK VINA RESULT: -5.889144330      0.000      0.000
REMARK  13 active torsions:
REMARK  status: ('A' for Active; 'I' for Inactive)
REMARK    1  A    between atoms: N2_4  and  C1_6
REMARK    2  A    between atoms: C1_6  and  C2_7
REMARK    3  A    between atoms: C2_7  and  C3_8
REMARK    4  A    between atoms: C3_8  and  N3_9
REMARK    5  A    between atoms: N3_9  and  C4_11
REMARK    6  A    between atoms: C4_11  and  C5_12
REMARK    7  A    between atoms: C4_11  and  C8_19
REMARK    8  A    between atoms: C5_12  and  C6_13
REMARK    9  A    between atoms: C6_13  and  C7_14
REMARK   10  A    between atoms: C7_14  and  N4_15
REMARK   11  A    between atoms: C8_19  and  N5_20
REMARK   12  A    between atoms: C10_22  and  N6_23
REMARK   13  A    between atoms: C11_27  and  O1_28
ROOT
HETATM    1  C4  UNL     1     -27.813  25.928 -16.575  1.00  0.00     0.104 C
ENDROOT
BRANCH   1   2
HETATM    2  N3  UNL     1     -27.224  26.817 -15.599  1.00  0.00    -0.415 N
ATOM      3  H3  UNL     1     -26.325  26.615 -15.163  1.00  0.00     0.153 HD
BRANCH   2   4
HETATM    4  C3  UNL     1     -27.962  27.983 -15.281  1.00  0.00     0.115 C
BRANCH   4   5
HETATM    5  C2  UNL     1     -27.748  29.100 -16.309  1.00  0.00     0.040 C
BRANCH   5   6
HETATM    6  C1  UNL     1     -26.427  29.751 -15.872  1.00  0.00     0.140 C
BRANCH   6   7
HETATM    7  N2  UNL     1     -25.369  29.478 -16.780  1.00  0.00    -0.343 N
HETATM    8  N1  UNL     1     -25.419  29.971 -17.924  1.00  0.00    -0.349 N
ATOM      9  H12 UNL     1     -26.211  30.557 -18.188  1.00  0.00     0.176 HD
ATOM     10  H11 UNL     1     -24.659  29.774 -18.576  1.00  0.00     0.176 HD
ATOM     11  H2  UNL     1     -24.583  28.890 -16.501  1.00  0.00     0.179 HD
ENDBRANCH   6   7
ENDBRANCH   5   6
ENDBRANCH   4   5
ENDBRANCH   2   4
ENDBRANCH   1   2
BRANCH   1  12
HETATM   12  C5  UNL     1     -28.845  25.072 -15.845  1.00  0.00     0.028 C
BRANCH  12  13
HETATM   13  C6  UNL     1     -28.805  23.659 -16.434  1.00  0.00     0.029 C
BRANCH  13  14
HETATM   14  C7  UNL     1     -29.229  22.691 -15.358  1.00  0.00     0.230 C
BRANCH  14  15
HETATM   15  N4  UNL     1     -28.552  22.894 -14.116  1.00  0.00    -0.079 N
ATOM     16  H43 UNL     1     -27.542  22.819 -14.238  1.00  0.00     0.274 HD
ATOM     17  H42 UNL     1     -28.614  23.870 -13.825  1.00  0.00     0.274 HD
ATOM     18  H41 UNL     1     -28.875  22.273 -13.374  1.00  0.00     0.274 HD
ENDBRANCH  14  15
ENDBRANCH  13  14
ENDBRANCH  12  13
ENDBRANCH   1  12
BRANCH   1  19
HETATM   19  C8  UNL     1     -26.755  25.070 -17.207  1.00  0.00     0.285 C
BRANCH  19  20
HETATM   20  N5  UNL     1     -26.043  25.608 -18.285  1.00  0.00     0.017 N
HETATM   21  C9  UNL     1     -26.679  25.370 -19.592  1.00  0.00     0.295 C
HETATM   22  C10 UNL     1     -26.128  26.317 -20.630  1.00  0.00     0.241 C
HETATM   23  C11 UNL     1     -24.609  26.244 -20.477  1.00  0.00     0.173 C
HETATM   24  C12 UNL     1     -24.347  26.380 -18.995  1.00  0.00     0.165 C
HETATM   25  C13 UNL     1     -24.677  25.068 -18.351  1.00  0.00     0.286 C
HETATM   26  N7  UNL     1     -25.532  26.859 -18.273  1.00  0.00    -0.037 NA
BRANCH  22  27
HETATM   27  N6  UNL     1     -26.482  25.848 -21.955  1.00  0.00    -0.071 N
ATOM     28  H63 UNL     1     -27.467  26.007 -22.169  1.00  0.00     0.274 HD
ATOM     29  H62 UNL     1     -26.076  26.427 -22.689  1.00  0.00     0.274 HD
ATOM     30  H61 UNL     1     -26.221  24.866 -22.052  1.00  0.00     0.274 HD
ENDBRANCH  22  27
BRANCH  23  31
HETATM   31  O1  UNL     1     -24.269  24.941 -20.875  1.00  0.00    -0.392 OA
ATOM     32  H1  UNL     1     -23.352  24.991 -21.119  1.00  0.00     0.210 HD
ENDBRANCH  23  31
ENDBRANCH  19  20
ENDBRANCH   1  19
TORSDOF 13
ENDMDL