MODEL 1
REMARK VINA RESULT: -6.902041253      0.000      0.000
REMARK  11 active torsions:
REMARK  status: ('A' for Active; 'I' for Inactive)
REMARK    1  A    between atoms: N1_2  and  N2_3
REMARK    2  A    between atoms: N1_2  and  C2_7
REMARK    3  A    between atoms: C2_7  and  C3_8
REMARK    4  A    between atoms: C3_8  and  C4_9
REMARK    5  A    between atoms: C5_13  and  C6_14
REMARK    6  A    between atoms: C6_14  and  N4_15
REMARK       I    between atoms: N4_15  and  C7_17
REMARK    7  A    between atoms: N6_19  and  C8_21
REMARK    8  A    between atoms: C8_21  and  C9_22
REMARK    9  A    between atoms: C9_22  and  C10_23
REMARK   10  A    between atoms: C10_23  and  C11_24
REMARK   11  A    between atoms: C11_24  and  N7_25
ROOT
HETATM    1  C4  UNL     1     -27.537  27.974 -16.006  1.00  0.00     0.281 C
HETATM    2  N3  UNL     1     -27.465  27.073 -17.158  1.00  0.00    -0.040 N
ATOM      3  H31 UNL     1     -26.759  27.301 -17.859  1.00  0.00     0.280 HD
ATOM      4  H32 UNL     1     -28.246  27.123 -17.812  1.00  0.00     0.280 HD
HETATM    5  C5  UNL     1     -27.289  25.789 -16.463  1.00  0.00     0.305 C
HETATM    6  N8  UNL     1     -28.324  25.874 -15.450  1.00  0.00    -0.330 N
ATOM      7  H8  UNL     1     -28.843  25.096 -15.043  1.00  0.00     0.164 HD
HETATM    8  C12 UNL     1     -28.475  27.260 -15.134  1.00  0.00     0.250 C
HETATM    9  O2  UNL     1     -29.249  27.768 -14.285  1.00  0.00    -0.271 OA
ENDROOT
BRANCH   5  10
HETATM   10  C6  UNL     1     -27.497  24.638 -17.399  1.00  0.00     0.176 C
BRANCH  10  11
HETATM   11  N4  UNL     1     -26.307  24.280 -18.110  1.00  0.00    -0.361 N
HETATM   12  C7  UNL     1     -25.976  24.741 -19.402  1.00  0.00     0.184 C
HETATM   13  N5  UNL     1     -26.762  25.736 -20.019  1.00  0.00    -0.064 NA
HETATM   14  N6  UNL     1     -24.970  24.273 -20.039  1.00  0.00    -0.365 N
ATOM     15  H6  UNL     1     -24.734  24.610 -20.972  1.00  0.00     0.162 HD
ATOM     16  H4  UNL     1     -25.652  23.647 -17.649  1.00  0.00     0.162 HD
BRANCH  14  17
HETATM   17  C8  UNL     1     -24.172  23.241 -19.385  1.00  0.00     0.122 C
BRANCH  17  18
HETATM   18  C9  UNL     1     -23.719  22.190 -20.339  1.00  0.00     0.021 C
BRANCH  18  19
HETATM   19  C10 UNL     1     -24.082  20.832 -19.807  1.00  0.00     0.029 C
BRANCH  19  20
HETATM   20  C11 UNL     1     -23.023  19.824 -20.095  1.00  0.00     0.229 C
BRANCH  20  21
HETATM   21  N7  UNL     1     -21.775  20.138 -19.384  1.00  0.00    -0.079 N
ATOM     22  H73 UNL     1     -21.492  21.107 -19.534  1.00  0.00     0.274 HD
ATOM     23  H72 UNL     1     -21.918  20.172 -18.374  1.00  0.00     0.274 HD
ATOM     24  H71 UNL     1     -21.029  19.489 -19.635  1.00  0.00     0.274 HD
ENDBRANCH  20  21
ENDBRANCH  19  20
ENDBRANCH  18  19
ENDBRANCH  17  18
ENDBRANCH  14  17
ENDBRANCH  10  11
ENDBRANCH   5  10
BRANCH   1  25
HETATM   25  C3  UNL     1     -27.993  29.347 -16.405  1.00  0.00     0.082 C
BRANCH  25  26
HETATM   26  C2  UNL     1     -27.100  30.435 -15.860  1.00  0.00     0.344 C
BRANCH  26  27
HETATM   27  N1  UNL     1     -27.812  31.693 -15.984  1.00  0.00     0.099 N
HETATM   28  C1  UNL     1     -27.611  32.252 -17.301  1.00  0.00     0.389 C
HETATM   29  O1  UNL     1     -29.156  31.534 -15.815  1.00  0.00    -0.043 OA
BRANCH  27  30
HETATM   30  N2  UNL     1     -27.339  32.543 -14.978  1.00  0.00    -0.211 N
ATOM     31  H22 UNL     1     -26.712  32.235 -14.234  1.00  0.00     0.192 HD
ATOM     32  H21 UNL     1     -27.695  33.492 -15.084  1.00  0.00     0.192 HD
ENDBRANCH  27  30
ENDBRANCH  26  27
ENDBRANCH  25  26
ENDBRANCH   1  25
TORSDOF 11
ENDMDL