MODEL 3
REMARK VINA RESULT: -6.621849861      2.988      7.001
REMARK  10 active torsions:
REMARK  status: ('A' for Active; 'I' for Inactive)
REMARK    1  A    between atoms: N1_1  and  C1_5
REMARK    2  A    between atoms: C1_5  and  C2_6
REMARK    3  A    between atoms: C2_6  and  C3_7
REMARK    4  A    between atoms: C3_7  and  C4_8
REMARK    5  A    between atoms: C4_8  and  C5_9
REMARK    6  A    between atoms: C7_14  and  C8_15
REMARK    7  A    between atoms: C8_15  and  C9_16
REMARK    8  A    between atoms: C9_16  and  N3_17
REMARK    9  A    between atoms: C11_22  and  C12_23
REMARK   10  A    between atoms: C12_23  and  N6_24
ROOT
HETATM    1  C5  UNL     1     -26.544  27.442 -17.154  1.00  0.00     0.176 C
HETATM    2  N2  UNL     1     -25.429  27.727 -18.002  1.00  0.00    -0.347 N
ATOM      3  H2  UNL     1     -25.256  28.714 -18.193  1.00  0.00     0.163 HD
HETATM    4  C6  UNL     1     -24.534  26.812 -18.609  1.00  0.00     0.224 C
HETATM    5  O1  UNL     1     -23.367  27.268 -18.779  1.00  0.00    -0.273 OA
HETATM    6  C7  UNL     1     -24.739  25.443 -19.065  1.00  0.00     0.104 C
HETATM    7  C11 UNL     1     -26.146  25.164 -19.539  1.00  0.00     0.122 C
HETATM    8  N7  UNL     1     -27.124  25.289 -18.509  1.00  0.00    -0.352 N
ATOM      9  H7  UNL     1     -27.930  24.671 -18.610  1.00  0.00     0.163 HD
HETATM   10  C13 UNL     1     -27.162  26.131 -17.368  1.00  0.00     0.240 C
HETATM   11  O2  UNL     1     -27.832  25.679 -16.386  1.00  0.00    -0.271 OA
ENDROOT
BRANCH   1  12
HETATM   12  C4  UNL     1     -27.632  28.489 -17.248  1.00  0.00     0.035 C
BRANCH  12  13
HETATM   13  C3  UNL     1     -27.899  29.160 -15.934  1.00  0.00     0.004 C
BRANCH  13  14
HETATM   14  C2  UNL     1     -28.394  30.581 -16.101  1.00  0.00     0.027 C
BRANCH  14  15
HETATM   15  C1  UNL     1     -27.215  31.498 -15.821  1.00  0.00     0.229 C
BRANCH  15  16
HETATM   16  N1  UNL     1     -27.671  32.836 -15.473  1.00  0.00    -0.079 N
ATOM     17  H13 UNL     1     -28.540  33.075 -15.949  1.00  0.00     0.274 HD
ATOM     18  H12 UNL     1     -28.005  32.882 -14.510  1.00  0.00     0.274 HD
ATOM     19  H11 UNL     1     -26.941  33.525 -15.652  1.00  0.00     0.274 HD
ENDBRANCH  15  16
ENDBRANCH  14  15
ENDBRANCH  13  14
ENDBRANCH  12  13
ENDBRANCH   1  12
BRANCH   6  20
HETATM   20  C8  UNL     1     -24.393  24.391 -18.032  1.00  0.00     0.036 C
BRANCH  20  21
HETATM   21  C9  UNL     1     -23.301  23.463 -18.528  1.00  0.00     0.123 C
BRANCH  21  22
HETATM   22  N3  UNL     1     -23.851  22.157 -18.745  1.00  0.00    -0.367 N
HETATM   23  C10 UNL     1     -24.175  21.756 -19.920  1.00  0.00     0.196 C
HETATM   24  N4  UNL     1     -24.711  20.454 -20.044  1.00  0.00    -0.067 NA
HETATM   25  N5  UNL     1     -23.986  22.623 -21.018  1.00  0.00    -0.067 NA
ATOM     26  H3  UNL     1     -23.987  21.533 -17.950  1.00  0.00     0.161 HD
ENDBRANCH  21  22
ENDBRANCH  20  21
ENDBRANCH   6  20
BRANCH   7  27
HETATM   27  C12 UNL     1     -26.491  25.982 -20.781  1.00  0.00     0.255 C
BRANCH  27  28
HETATM   28  N6  UNL     1     -25.669  25.456 -21.864  1.00  0.00    -0.077 N
ATOM     29  H63 UNL     1     -25.118  26.172 -22.338  1.00  0.00     0.274 HD
ATOM     30  H62 UNL     1     -24.887  24.889 -21.538  1.00  0.00     0.274 HD
ATOM     31  H61 UNL     1     -26.300  24.954 -22.489  1.00  0.00     0.274 HD
ENDBRANCH  27  28
ENDBRANCH   7  27
TORSDOF 10
ENDMDL