MODEL 5
REMARK VINA RESULT: -6.295265257      3.001      3.918
REMARK  10 active torsions:
REMARK  status: ('A' for Active; 'I' for Inactive)
REMARK    1  A    between atoms: C3_4  and  C4_5
REMARK    2  A    between atoms: C4_5  and  C5_6
REMARK    3  A    between atoms: C5_6  and  O1_7
REMARK    4  A    between atoms: C5_6  and  C6_9
REMARK    5  A    between atoms: C6_9  and  N2_10
REMARK    6  A    between atoms: C9_19  and  C10_20
REMARK    7  A    between atoms: C10_20  and  C11_21
REMARK    8  A    between atoms: C11_21  and  C12_22
REMARK    9  A    between atoms: C12_22  and  C13_23
REMARK   10  A    between atoms: C13_23  and  N6_24
ROOT
HETATM    1  C1  UNL     1     -28.233  23.535 -16.419  1.00  0.00     0.311 C
HETATM    2  N1  UNL     1     -27.484  24.748 -16.507  1.00  0.00     0.100 N
HETATM    3  C2  UNL     1     -28.271  25.936 -16.353  1.00  0.00     0.298 C
HETATM    4  C3  UNL     1     -27.343  27.019 -15.821  1.00  0.00     0.115 C
HETATM    5  N5  UNL     1     -26.363  27.231 -16.856  1.00  0.00    -0.353 N
ATOM      6  H5  UNL     1     -25.698  28.003 -16.820  1.00  0.00     0.163 HD
HETATM    7  C8  UNL     1     -26.378  26.296 -17.937  1.00  0.00     0.251 C
HETATM    8  O2  UNL     1     -26.102  26.704 -19.116  1.00  0.00    -0.271 OA
HETATM    9  C9  UNL     1     -26.707  24.864 -17.727  1.00  0.00     0.313 C
ENDROOT
BRANCH   4  10
HETATM   10  C4  UNL     1     -28.065  28.249 -15.411  1.00  0.00     0.060 C
BRANCH  10  11
HETATM   11  C5  UNL     1     -27.516  29.508 -16.042  1.00  0.00     0.138 C
BRANCH  11  12
HETATM   12  O1  UNL     1     -26.242  29.789 -15.553  1.00  0.00    -0.394 OA
ATOM     13  H1  UNL     1     -25.651  30.009 -16.263  1.00  0.00     0.210 HD
ENDBRANCH  11  12
BRANCH  11  14
HETATM   14  C6  UNL     1     -28.417  30.656 -15.580  1.00  0.00     0.153 C
BRANCH  14  15
HETATM   15  N2  UNL     1     -27.519  31.772 -15.292  1.00  0.00    -0.364 N
HETATM   16  C7  UNL     1     -27.472  32.802 -16.074  1.00  0.00     0.197 C
HETATM   17  N3  UNL     1     -26.575  33.848 -15.729  1.00  0.00    -0.067 NA
HETATM   18  N4  UNL     1     -28.286  32.887 -17.235  1.00  0.00    -0.067 NA
ATOM     19  H2  UNL     1     -26.922  31.738 -14.466  1.00  0.00     0.161 HD
ENDBRANCH  14  15
ENDBRANCH  11  14
ENDBRANCH  10  11
ENDBRANCH   4  10
BRANCH   9  20
HETATM   20  C10 UNL     1     -25.463  24.031 -17.659  1.00  0.00     0.046 C
BRANCH  20  21
HETATM   21  C11 UNL     1     -25.081  23.385 -18.943  1.00  0.00     0.004 C
BRANCH  21  22
HETATM   22  C12 UNL     1     -23.606  23.121 -19.001  1.00  0.00     0.027 C
BRANCH  22  23
HETATM   23  C13 UNL     1     -23.166  22.082 -17.992  1.00  0.00     0.229 C
BRANCH  23  24
HETATM   24  N6  UNL     1     -23.173  20.748 -18.576  1.00  0.00    -0.079 N
ATOM     25  H63 UNL     1     -23.216  20.024 -17.859  1.00  0.00     0.274 HD
ATOM     26  H62 UNL     1     -24.055  20.550 -19.049  1.00  0.00     0.274 HD
ATOM     27  H61 UNL     1     -22.375  20.615 -19.197  1.00  0.00     0.274 HD
ENDBRANCH  23  24
ENDBRANCH  22  23
ENDBRANCH  21  22
ENDBRANCH  20  21
ENDBRANCH   9  20
TORSDOF 10
ENDMDL