MODEL 2
REMARK VINA RESULT: -6.686665232      4.006      6.222
REMARK  11 active torsions:
REMARK  status: ('A' for Active; 'I' for Inactive)
REMARK    1  A    between atoms: N1_1  and  C1_5
REMARK    2  A    between atoms: C1_5  and  C2_6
REMARK    3  A    between atoms: C2_6  and  C3_7
REMARK    4  A    between atoms: C3_7  and  N2_8
REMARK    5  A    between atoms: N2_8  and  C4_11
REMARK    6  A    between atoms: C4_11  and  C5_12
REMARK    7  A    between atoms: C5_12  and  C6_13
REMARK    8  A    between atoms: C6_13  and  N3_14
REMARK    9  A    between atoms: N3_14  and  C7_16
REMARK   10  A    between atoms: N5_20  and  C9_21
REMARK   11  A    between atoms: C9_21  and  C10_22
ROOT
HETATM    1  C7  UNL     1     -26.232  25.286 -18.068  1.00  0.00     0.133 A
HETATM    2  N4  UNL     1     -25.537  24.483 -17.259  1.00  0.00    -0.337 N
ATOM      3  H4  UNL     1     -25.717  24.464 -16.255  1.00  0.00     0.168 HD
HETATM    4  C8  UNL     1     -24.591  23.698 -17.808  1.00  0.00     0.186 A
HETATM    5  N5  UNL     1     -24.314  23.678 -19.105  1.00  0.00    -0.319 N
HETATM    6  C11 UNL     1     -25.007  24.481 -19.927  1.00  0.00     0.140 A
HETATM    7  N7  UNL     1     -24.952  24.675 -21.259  1.00  0.00    -0.336 N
ATOM      8  H7  UNL     1     -24.319  24.197 -21.901  1.00  0.00     0.168 HD
HETATM    9  C12 UNL     1     -25.877  25.608 -21.611  1.00  0.00     0.182 A
HETATM   10  N8  UNL     1     -26.496  25.979 -20.475  1.00  0.00    -0.346 N
ATOM     11  H8  UNL     1     -27.244  26.669 -20.413  1.00  0.00     0.167 HD
HETATM   12  C13 UNL     1     -25.983  25.309 -19.445  1.00  0.00     0.122 A
ENDROOT
BRANCH   1  13
HETATM   13  N3  UNL     1     -27.145  26.067 -17.653  1.00  0.00    -0.374 N
ATOM     14  H3  UNL     1     -28.114  25.837 -17.869  1.00  0.00     0.161 HD
BRANCH  13  15
HETATM   15  C6  UNL     1     -26.883  27.244 -16.904  1.00  0.00     0.123 C
BRANCH  15  16
HETATM   16  C5  UNL     1     -27.715  27.392 -15.641  1.00  0.00     0.047 C
BRANCH  16  17
HETATM   17  C4  UNL     1     -28.353  26.075 -15.331  1.00  0.00     0.234 C
BRANCH  17  18
HETATM   18  N2  UNL     1     -27.687  25.373 -14.269  1.00  0.00    -0.075 N
ATOM     19  H22 UNL     1     -28.096  25.571 -13.356  1.00  0.00     0.277 HD
ATOM     20  H21 UNL     1     -26.752  25.739 -14.091  1.00  0.00     0.277 HD
BRANCH  18  21
HETATM   21  C3  UNL     1     -27.675  23.964 -14.568  1.00  0.00     0.233 C
BRANCH  21  22
HETATM   22  C2  UNL     1     -28.773  23.617 -15.582  1.00  0.00     0.055 C
BRANCH  22  23
HETATM   23  C1  UNL     1     -29.648  22.509 -15.019  1.00  0.00     0.231 C
BRANCH  23  24
HETATM   24  N1  UNL     1     -29.111  22.144 -13.725  1.00  0.00    -0.079 N
ATOM     25  H13 UNL     1     -29.112  21.136 -13.564  1.00  0.00     0.274 HD
ATOM     26  H12 UNL     1     -28.104  22.289 -13.656  1.00  0.00     0.274 HD
ATOM     27  H11 UNL     1     -29.636  22.659 -13.017  1.00  0.00     0.274 HD
ENDBRANCH  23  24
ENDBRANCH  22  23
ENDBRANCH  21  22
ENDBRANCH  18  21
ENDBRANCH  17  18
ENDBRANCH  16  17
ENDBRANCH  15  16
ENDBRANCH  13  15
ENDBRANCH   1  13
BRANCH   5  28
HETATM   28  C9  UNL     1     -23.296  22.840 -19.708  1.00  0.00     0.230 C
BRANCH  28  29
HETATM   29  C10 UNL     1     -23.567  21.415 -19.411  1.00  0.00     0.249 C
HETATM   30  N6  UNL     1     -24.645  20.738 -20.043  1.00  0.00    -0.061 NA
HETATM   31  O1  UNL     1     -22.838  20.816 -18.601  1.00  0.00    -0.275 OA
ENDBRANCH  28  29
ENDBRANCH   5  28
TORSDOF 11
ENDMDL