MODEL 5
REMARK VINA RESULT: -6.448710314      3.166      5.369
REMARK  11 active torsions:
REMARK  status: ('A' for Active; 'I' for Inactive)
REMARK    1  A    between atoms: C2_2  and  C3_3
REMARK    2  A    between atoms: C3_3  and  C4_4
REMARK    3  A    between atoms: C4_4  and  C5_5
REMARK    4  A    between atoms: C5_5  and  C6_6
REMARK    5  A    between atoms: C6_6  and  O1_7
REMARK    6  A    between atoms: O1_7  and  N1_8
REMARK    7  A    between atoms: N2_10  and  C7_12
REMARK    8  A    between atoms: C7_12  and  C8_13
REMARK    9  A    between atoms: C9_14  and  N3_15
REMARK   10  A    between atoms: C11_23  and  O2_24
REMARK   11  A    between atoms: C12_26  and  O3_27
ROOT
HETATM    1  C8  UNL     1     -24.744  24.427 -17.975  1.00  0.00     0.088 C
HETATM    2  C9  UNL     1     -23.877  23.213 -18.101  1.00  0.00     0.297 C
HETATM    3  N6  UNL     1     -22.622  23.709 -18.617  1.00  0.00    -0.025 N
ATOM      4  H61 UNL     1     -22.168  23.051 -19.250  1.00  0.00     0.282 HD
ATOM      5  H62 UNL     1     -21.891  23.744 -17.908  1.00  0.00     0.282 HD
HETATM    6  C11 UNL     1     -22.865  24.982 -19.224  1.00  0.00     0.350 C
HETATM    7  C12 UNL     1     -24.381  25.168 -19.270  1.00  0.00     0.183 C
ENDROOT
BRANCH   1   8
HETATM    8  C7  UNL     1     -26.214  24.126 -17.953  1.00  0.00     0.152 C
BRANCH   8   9
HETATM    9  N2  UNL     1     -26.732  24.660 -16.709  1.00  0.00    -0.316 N
HETATM   10  N1  UNL     1     -26.824  24.026 -15.639  1.00  0.00    -0.212 N
ATOM     11  H1  UNL     1     -26.521  23.052 -15.596  1.00  0.00     0.215 HD
ATOM     12  H2  UNL     1     -27.046  25.630 -16.709  1.00  0.00     0.182 HD
BRANCH  10  13
HETATM   13  O1  UNL     1     -27.327  24.631 -14.530  1.00  0.00    -0.265 OA
BRANCH  13  14
HETATM   14  C6  UNL     1     -28.572  25.338 -14.610  1.00  0.00     0.203 C
BRANCH  14  15
HETATM   15  C5  UNL     1     -28.306  26.692 -13.951  1.00  0.00     0.029 C
BRANCH  15  16
HETATM   16  C4  UNL     1     -28.498  27.756 -15.010  1.00  0.00     0.002 C
BRANCH  16  17
HETATM   17  C3  UNL     1     -27.208  28.063 -15.689  1.00  0.00    -0.000 C
BRANCH  17  18
HETATM   18  C2  UNL     1     -26.840  29.517 -15.708  1.00  0.00    -0.005 C
HETATM   19  C1  UNL     1     -28.138  30.312 -15.658  1.00  0.00     0.005 C
ENDBRANCH  17  18
ENDBRANCH  16  17
ENDBRANCH  15  16
ENDBRANCH  14  15
ENDBRANCH  13  14
ENDBRANCH  10  13
ENDBRANCH   8   9
ENDBRANCH   1   8
BRANCH   2  20
HETATM   20  N3  UNL     1     -24.405  22.248 -19.025  1.00  0.00    -0.339 N
HETATM   21  C10 UNL     1     -23.861  21.128 -19.295  1.00  0.00     0.198 C
HETATM   22  N4  UNL     1     -22.647  20.725 -18.683  1.00  0.00    -0.067 NA
HETATM   23  N5  UNL     1     -24.477  20.262 -20.224  1.00  0.00    -0.067 NA
ATOM     24  H3  UNL     1     -25.279  22.476 -19.501  1.00  0.00     0.163 HD
ENDBRANCH   2  20
BRANCH   7  25
HETATM   25  O3  UNL     1     -24.936  24.468 -20.342  1.00  0.00    -0.391 OA
ATOM     26  H3  UNL     1     -24.262  23.908 -20.709  1.00  0.00     0.210 HD
ENDBRANCH   7  25
BRANCH   6  27
HETATM   27  O2  UNL     1     -22.290  25.134 -20.466  1.00  0.00    -0.368 OA
ATOM     28  H2  UNL     1     -22.636  25.863 -20.969  1.00  0.00     0.212 HD
ENDBRANCH   6  27
TORSDOF 11
ENDMDL