MODEL 4
REMARK VINA RESULT: -6.416248668      1.700      2.786
REMARK  3 active torsions:
REMARK  status: ('A' for Active; 'I' for Inactive)
REMARK    1  A    between atoms: C3_4  and  C4_5
REMARK    2  A    between atoms: C4_5  and  C5_6
REMARK       I    between atoms: C5_6  and  N1_8
REMARK    3  A    between atoms: N1_8  and  C6_10
ROOT
HETATM    1  C4  UNL     1      93.815  21.479  64.768  1.00  0.00     0.112 C
ENDROOT
BRANCH   1   2
HETATM    2  C3  UNL     1      94.470  22.369  63.745  1.00  0.00     0.058 C
HETATM    3  C2  UNL     1      94.505  23.840  64.147  1.00  0.00     0.050 C
HETATM    4  C1  UNL     1      93.399  24.677  63.610  1.00  0.00     0.034 C
HETATM    5 CL1  UNL     1      94.646  24.051  65.911  1.00  0.00    -0.118 Cl
HETATM    6  C13 UNL     1      95.827  23.906  63.465  1.00  0.00     0.009 C
HETATM    7  C12 UNL     1      95.987  22.428  63.821  1.00  0.00     0.128 C
HETATM    8  C14 UNL     1      96.767  24.833  64.180  1.00  0.00     0.020 C
HETATM    9  C15 UNL     1      95.841  24.090  61.989  1.00  0.00     0.020 C
HETATM   10 CL2  UNL     1      96.647  22.146  65.438  1.00  0.00    -0.100 Cl
HETATM   11 CL3  UNL     1      96.841  21.477  62.620  1.00  0.00    -0.100 Cl
ENDBRANCH   1   2
BRANCH   1  12
HETATM   12  C5  UNL     1      92.698  20.752  64.160  1.00  0.00     0.218 C
HETATM   13  O1  UNL     1      91.769  20.219  64.859  1.00  0.00    -0.274 OA
HETATM   14  N1  UNL     1      92.556  20.582  62.755  1.00  0.00    -0.356 N
ATOM     15  H1  UNL     1      93.272  20.990  62.154  1.00  0.00     0.162 HD
BRANCH  14  16
HETATM   16  C6  UNL     1      91.473  19.875  62.119  1.00  0.00     0.084 C
HETATM   17  C7  UNL     1      91.862  18.507  61.642  1.00  0.00     0.025 C
HETATM   18  C8  UNL     1      92.261  18.467  60.192  1.00  0.00     0.002 C
HETATM   19  C9  UNL     1      91.220  19.076  59.285  1.00  0.00     0.000 C
HETATM   20  C10 UNL     1      90.180  19.852  60.053  1.00  0.00     0.002 C
HETATM   21  C11 UNL     1      90.909  20.736  61.036  1.00  0.00     0.025 C
ENDBRANCH  14  16
ENDBRANCH   1  12
TORSDOF 3
ENDMDL