MODEL 3
REMARK VINA RESULT: -8.286375476      1.112      1.626
REMARK  3 active torsions:
REMARK  status: ('A' for Active; 'I' for Inactive)
REMARK    1  A    between atoms: C3_3  and  C4_4
REMARK    2  A    between atoms: C11_14  and  C12_15
REMARK    3  A    between atoms: C12_15  and  C13_16
ROOT
HETATM    1  C1  UNL     1      91.611  19.992  64.976  1.00  0.00     0.069 C
HETATM    2  C2  UNL     1      92.421  21.148  64.566  1.00  0.00     0.015 C
HETATM    3  C3  UNL     1      92.790  21.399  63.325  1.00  0.00    -0.025 C
HETATM    4  C10 UNL     1      93.644  22.574  62.949  1.00  0.00     0.055 C
HETATM    5  C11 UNL     1      93.229  23.768  63.882  1.00  0.00     0.083 C
HETATM    6  C18 UNL     1      93.612  23.233  65.186  1.00  0.00     0.226 C
HETATM    7  O1  UNL     1      94.484  23.629  65.936  1.00  0.00    -0.273 OA
HETATM    8  N1  UNL     1      92.826  22.077  65.594  1.00  0.00    -0.330 N
ATOM      9  H1  UNL     1      92.570  21.929  66.571  1.00  0.00     0.168 HD
ENDROOT
BRANCH   3  10
HETATM   10  C4  UNL     1      92.419  20.535  62.222  1.00  0.00    -0.023 A
HETATM   11  C5  UNL     1      91.331  20.820  61.423  1.00  0.00     0.057 A
HETATM   12  C6  UNL     1      90.976  20.041  60.353  1.00  0.00     0.157 A
HETATM   13  F1  UNL     1      89.913  20.337  59.587  1.00  0.00    -0.203 F
HETATM   14  C7  UNL     1      91.732  18.935  60.066  1.00  0.00     0.176 A
HETATM   15  F2  UNL     1      91.371  18.167  58.999  1.00  0.00    -0.201 F
HETATM   16  C8  UNL     1      92.833  18.601  60.831  1.00  0.00     0.076 A
HETATM   17 CL1  UNL     1      93.772  17.181  60.432  1.00  0.00    -0.081 Cl
HETATM   18  C9  UNL     1      93.154  19.426  61.912  1.00  0.00     0.039 A
ENDBRANCH   3  10
BRANCH   5  19
HETATM   19  C12 UNL     1      93.823  24.977  63.321  1.00  0.00     0.019 C
BRANCH  19  20
HETATM   20  C13 UNL     1      93.322  25.431  62.008  1.00  0.00    -0.014 C
HETATM   21  C14 UNL     1      94.580  25.629  61.125  1.00  0.00     0.005 C
HETATM   22  C15 UNL     1      94.336  26.888  60.380  1.00  0.00     0.000 C
HETATM   23  C16 UNL     1      92.838  27.075  60.395  1.00  0.00     0.000 C
HETATM   24  C17 UNL     1      92.596  26.723  61.901  1.00  0.00     0.005 C
ENDBRANCH  19  20
ENDBRANCH   5  19
TORSDOF 3
ENDMDL