MODEL 2
REMARK VINA RESULT: -7.386795459      1.609      2.145
REMARK  3 active torsions:
REMARK  status: ('A' for Active; 'I' for Inactive)
REMARK    1  A    between atoms: C2_2  and  C3_3
REMARK       I    between atoms: C3_3  and  N1_5
REMARK    2  A    between atoms: N1_5  and  C4_7
REMARK    3  A    between atoms: C4_7  and  C5_8
ROOT
HETATM    1  C3  UNL     1      93.278  23.319  63.589  1.00  0.00     0.235 C
HETATM    2  O1  UNL     1      93.392  23.906  64.688  1.00  0.00    -0.272 OA
HETATM    3  N1  UNL     1      93.828  23.698  62.356  1.00  0.00    -0.339 N
ATOM      4  H1  UNL     1      93.644  23.074  61.571  1.00  0.00     0.167 HD
ENDROOT
BRANCH   3   5
HETATM    5  C4  UNL     1      94.599  24.832  62.078  1.00  0.00     0.073 C
BRANCH   5   6
HETATM    6  C5  UNL     1      94.010  26.060  61.491  1.00  0.00    -0.007 C
HETATM    7  C6  UNL     1      94.767  26.476  60.221  1.00  0.00     0.019 C
HETATM    8  C7  UNL     1      94.211  27.785  59.759  1.00  0.00    -0.013 C
HETATM    9  C8  UNL     1      92.729  27.823  59.578  1.00  0.00     0.009 C
HETATM   10  C12 UNL     1      94.556  28.867  60.783  1.00  0.00     0.009 C
HETATM   11  C9  UNL     1      92.016  27.409  60.871  1.00  0.00    -0.013 C
HETATM   12  C10 UNL     1      92.352  28.403  61.919  1.00  0.00     0.009 C
HETATM   13  C14 UNL     1      92.570  26.027  61.219  1.00  0.00     0.019 C
HETATM   14  C11 UNL     1      93.863  28.499  62.061  1.00  0.00    -0.013 C
HETATM   15  C13 UNL     1      94.344  27.176  62.512  1.00  0.00     0.019 C
ENDBRANCH   5   6
ENDBRANCH   3   5
BRANCH   1  16
HETATM   16  C2  UNL     1      92.429  22.057  63.676  1.00  0.00     0.103 C
HETATM   17  C1  UNL     1      91.288  22.284  64.621  1.00  0.00     0.032 C
HETATM   18  C15 UNL     1      91.864  21.834  62.298  1.00  0.00     0.025 C
HETATM   19  C16 UNL     1      91.351  20.441  62.063  1.00  0.00     0.002 C
HETATM   20  C17 UNL     1      92.287  19.382  62.593  1.00  0.00     0.006 C
HETATM   21  C18 UNL     1      92.659  19.603  64.021  1.00  0.00     0.080 C
HETATM   22  C19 UNL     1      93.310  20.965  64.150  1.00  0.00     0.259 C
HETATM   23  F1  UNL     1      93.665  21.197  65.464  1.00  0.00    -0.205 F
HETATM   24  F2  UNL     1      94.502  20.892  63.438  1.00  0.00    -0.205 F
ENDBRANCH   1  16
TORSDOF 3
ENDMDL