MODEL 2
REMARK VINA RESULT: -6.091077709      4.134      6.532
REMARK  4 active torsions:
REMARK  status: ('A' for Active; 'I' for Inactive)
REMARK    1  A    between atoms: C2_2  and  C4_4
REMARK    2  A    between atoms: C8_8  and  C9_9
REMARK    3  A    between atoms: C9_9  and  O1_10
REMARK    4  A    between atoms: C9_9  and  C10_12
ROOT
HETATM    1  C9  UNL     1      93.437  21.877  63.394  1.00  0.00     0.157 C
ENDROOT
BRANCH   1   2
HETATM    2  C8  UNL     1      91.980  21.659  63.280  1.00  0.00     0.023 C
HETATM    3  C4  UNL     1      91.540  20.369  62.690  1.00  0.00    -0.004 C
HETATM    4  C5  UNL     1      92.048  19.351  63.666  1.00  0.00     0.005 C
HETATM    5  C6  UNL     1      91.592  19.968  64.987  1.00  0.00     0.001 C
HETATM    6  C7  UNL     1      91.419  21.464  64.704  1.00  0.00     0.008 C
BRANCH   3   7
HETATM    7  C2  UNL     1      91.855  20.118  61.277  1.00  0.00    -0.018 C
HETATM    8  C1  UNL     1      90.575  20.150  60.473  1.00  0.00     0.010 C
HETATM    9  C3  UNL     1      92.356  18.663  61.193  1.00  0.00     0.010 C
ENDBRANCH   3   7
ENDBRANCH   1   2
BRANCH   1  10
HETATM   10  O1  UNL     1      94.143  21.630  62.214  1.00  0.00    -0.390 OA
ATOM     11  H1  UNL     1      93.700  21.043  61.613  1.00  0.00     0.210 HD
ENDBRANCH   1  10
BRANCH   1  12
HETATM   12  C10 UNL     1      93.803  23.280  63.760  1.00  0.00    -0.009 A
HETATM   13  C11 UNL     1      93.573  24.373  62.975  1.00  0.00     0.056 A
HETATM   14  C12 UNL     1      93.970  25.630  63.429  1.00  0.00     0.155 A
HETATM   15  F1  UNL     1      93.738  26.721  62.641  1.00  0.00    -0.203 F
HETATM   16  C13 UNL     1      94.589  25.804  64.649  1.00  0.00     0.156 A
HETATM   17  F2  UNL     1      94.959  27.062  65.046  1.00  0.00    -0.203 F
HETATM   18  C14 UNL     1      94.819  24.694  65.437  1.00  0.00     0.065 A
HETATM   19  C15 UNL     1      94.432  23.442  65.002  1.00  0.00     0.022 A
HETATM   20 BR1  UNL     1      94.777  21.945  66.140  1.00  0.00    -0.050 Br
ENDBRANCH   1  12
TORSDOF 4
ENDMDL