MODEL 1
REMARK VINA RESULT: -7.069514316      0.000      0.000
REMARK  3 active torsions:
REMARK  status: ('A' for Active; 'I' for Inactive)
REMARK    1  A    between atoms: C3_4  and  C4_5
REMARK    2  A    between atoms: C4_5  and  N1_6
REMARK    3  A    between atoms: C4_5  and  C8_13
ROOT
HETATM    1  C4  UNL     1      92.907  18.639  60.925  1.00  0.00     0.120 C
ENDROOT
BRANCH   1   2
HETATM    2  C3  UNL     1      93.074  19.375  62.167  1.00  0.00    -0.030 A
HETATM    3  C2  UNL     1      92.201  19.310  63.221  1.00  0.00     0.053 A
HETATM    4  C1  UNL     1      92.444  20.047  64.359  1.00  0.00     0.140 A
HETATM    5  F1  UNL     1      91.573  19.990  65.426  1.00  0.00    -0.204 F
HETATM    6  C16 UNL     1      93.539  20.859  64.486  1.00  0.00     0.094 A
HETATM    7  C15 UNL     1      94.430  20.941  63.441  1.00  0.00     0.059 A
HETATM    8 CL2  UNL     1      93.840  21.793  65.935  1.00  0.00    -0.079 Cl
HETATM    9  C14 UNL     1      94.169  20.196  62.315  1.00  0.00     0.035 A
HETATM   10 CL1  UNL     1      95.867  21.973  63.544  1.00  0.00    -0.082 Cl
ENDBRANCH   1   2
BRANCH   1  11
HETATM   11  N1  UNL     1      92.864  17.212  61.184  1.00  0.00    -0.371 N
HETATM   12  C5  UNL     1      93.683  16.386  60.631  1.00  0.00     0.074 C
HETATM   13  C6  UNL     1      93.912  14.940  60.665  1.00  0.00     0.095 C
HETATM   14  N2  UNL     1      94.742  16.545  59.725  1.00  0.00    -0.380 N
HETATM   15  C7  UNL     1      95.308  15.302  60.202  1.00  0.00     0.128 C
ATOM     16  H2  UNL     1      95.003  17.242  59.027  1.00  0.00     0.160 HD
ATOM     17  H1  UNL     1      92.160  16.850  61.828  1.00  0.00     0.161 HD
ENDBRANCH   1  11
BRANCH   1  18
HETATM   18  C8  UNL     1      91.786  19.053  60.044  1.00  0.00     0.013 C
HETATM   19  C9  UNL     1      90.581  18.169  60.087  1.00  0.00     0.007 C
HETATM   20  C10 UNL     1      89.494  18.826  59.227  1.00  0.00     0.000 C
HETATM   21  C11 UNL     1      90.085  19.795  58.248  1.00  0.00     0.000 C
HETATM   22  C12 UNL     1      90.784  20.954  58.892  1.00  0.00     0.000 C
HETATM   23  C13 UNL     1      91.423  20.517  60.193  1.00  0.00     0.007 C
ENDBRANCH   1  18
TORSDOF 3
ENDMDL