MODEL 3
REMARK VINA RESULT: -6.543043809      1.745      1.967
REMARK  3 active torsions:
REMARK  status: ('A' for Active; 'I' for Inactive)
REMARK    1  A    between atoms: C9_14  and  C10_15
REMARK    2  A    between atoms: C10_15  and  C11_16
REMARK    3  A    between atoms: C11_16  and  N2_17
ROOT
HETATM    1  C1  UNL     1      91.559  19.771  64.833  1.00  0.00     0.068 C
HETATM    2  C2  UNL     1      92.817  20.559  65.047  1.00  0.00     0.013 A
HETATM    3  N1  UNL     1      93.492  20.747  66.169  1.00  0.00    -0.359 N
ATOM      4  H1  UNL     1      93.233  20.358  67.076  1.00  0.00     0.166 HD
HETATM    5  C3  UNL     1      94.580  21.529  65.945  1.00  0.00     0.046 A
HETATM    6  C4  UNL     1      95.559  21.981  66.794  1.00  0.00     0.056 A
HETATM    7  C5  UNL     1      96.590  22.771  66.351  1.00  0.00     0.059 A
HETATM    8 CL1  UNL     1      97.848  23.355  67.446  1.00  0.00    -0.082 Cl
HETATM    9  C6  UNL     1      96.590  23.086  65.015  1.00  0.00     0.078 A
HETATM   10 CL2  UNL     1      97.877  24.098  64.372  1.00  0.00    -0.081 Cl
HETATM   11  C7  UNL     1      95.634  22.660  64.117  1.00  0.00     0.070 A
HETATM   12 CL3  UNL     1      95.690  23.072  62.436  1.00  0.00    -0.081 Cl
HETATM   13  C8  UNL     1      94.592  21.858  64.584  1.00  0.00     0.022 A
HETATM   14  C9  UNL     1      93.495  21.254  64.028  1.00  0.00    -0.020 A
ENDROOT
BRANCH  14  15
HETATM   15  C10 UNL     1      93.060  21.287  62.633  1.00  0.00     0.072 C
BRANCH  15  16
HETATM   16  C11 UNL     1      93.399  19.986  61.902  1.00  0.00     0.277 C
BRANCH  16  17
HETATM   17  N2  UNL     1      92.491  19.838  60.805  1.00  0.00     0.088 N
HETATM   18  C12 UNL     1      92.193  18.493  60.431  1.00  0.00     0.272 C
HETATM   19  C13 UNL     1      91.039  18.682  59.463  1.00  0.00     0.032 C
HETATM   20  C14 UNL     1      90.243  19.765  60.163  1.00  0.00     0.032 C
HETATM   21  C15 UNL     1      91.253  20.541  60.986  1.00  0.00     0.272 C
ENDBRANCH  16  17
ENDBRANCH  15  16
ENDBRANCH  14  15
TORSDOF 3
ENDMDL