MODEL 2
REMARK VINA RESULT: -6.505772709      1.739      2.269
REMARK  3 active torsions:
REMARK  status: ('A' for Active; 'I' for Inactive)
REMARK       I    between atoms: C1_2  and  N1_3
REMARK    1  A    between atoms: C1_2  and  C7_10
REMARK    2  A    between atoms: N1_3  and  C2_5
REMARK    3  A    between atoms: C7_10  and  C8_11
ROOT
HETATM    1  C7  UNL     1      92.227  22.541  63.488  1.00  0.00     0.068 A
HETATM    2  C14 UNL     1      90.898  22.887  64.087  1.00  0.00     0.026 A
HETATM    3  C15 UNL     1      91.928  22.225  64.958  1.00  0.00     0.026 A
ENDROOT
BRANCH   1   4
HETATM    4  C1  UNL     1      93.225  23.624  63.310  1.00  0.00     0.231 C
HETATM    5  O1  UNL     1      94.356  23.406  63.871  1.00  0.00    -0.272 OA
HETATM    6  N1  UNL     1      93.023  24.808  62.599  1.00  0.00    -0.355 N
ATOM      7  H1  UNL     1      92.126  24.980  62.147  1.00  0.00     0.162 HD
BRANCH   6   8
HETATM    8  C2  UNL     1      94.079  25.796  62.498  1.00  0.00     0.084 C
HETATM    9  C3  UNL     1      94.765  25.625  61.165  1.00  0.00     0.025 C
HETATM   10  C4  UNL     1      94.200  26.644  60.234  1.00  0.00     0.002 C
HETATM   11  C5  UNL     1      93.021  27.230  60.981  1.00  0.00     0.002 C
HETATM   12  C6  UNL     1      93.519  27.196  62.410  1.00  0.00     0.025 C
ENDBRANCH   6   8
ENDBRANCH   1   4
BRANCH   1  13
HETATM   13  C8  UNL     1      92.228  21.416  62.518  1.00  0.00    -0.037 A
HETATM   14  C9  UNL     1      93.182  20.423  62.474  1.00  0.00     0.034 A
HETATM   15  C10 UNL     1      93.132  19.359  61.574  1.00  0.00     0.058 A
HETATM   16 CL1  UNL     1      94.370  18.127  61.560  1.00  0.00    -0.082 Cl
HETATM   17  C11 UNL     1      92.102  19.257  60.676  1.00  0.00     0.077 A
HETATM   18 CL2  UNL     1      91.983  17.942  59.519  1.00  0.00    -0.081 Cl
HETATM   19  C12 UNL     1      91.138  20.239  60.705  1.00  0.00     0.058 A
HETATM   20 CL3  UNL     1      89.810  20.102  59.541  1.00  0.00    -0.082 Cl
HETATM   21  C13 UNL     1      91.190  21.286  61.591  1.00  0.00     0.034 A
ENDBRANCH   1  13
TORSDOF 3
ENDMDL