MODEL 1
REMARK VINA RESULT: -7.011774596      0.000      0.000
REMARK  6 active torsions:
REMARK  status: ('A' for Active; 'I' for Inactive)
REMARK    1  A    between atoms: S1_2  and  C2_3
REMARK    2  A    between atoms: C2_3  and  C3_4
REMARK    3  A    between atoms: C3_4  and  C4_5
REMARK    4  A    between atoms: C8_11  and  N2_12
REMARK    5  A    between atoms: C9_15  and  N3_16
REMARK    6  A    between atoms: C10_19  and  O5_20
ROOT
HETATM    1  C4  UNL     1      14.836  15.033   4.664  1.00  0.00     0.097 C
HETATM    2  C5  UNL     1      16.121  15.343   3.906  1.00  0.00     0.062 C
HETATM    3  N1  UNL     1      14.705  13.610   4.692  1.00  0.00    -0.363 N
ATOM      4  H1  UNL     1      15.220  13.067   5.385  1.00  0.00     0.162 HD
HETATM    5  C6  UNL     1      13.864  12.951   3.763  1.00  0.00     0.043 A
HETATM    6  C7  UNL     1      13.866  11.549   3.721  1.00  0.00     0.068 A
HETATM    7  C8  UNL     1      13.065  10.866   2.833  1.00  0.00     0.140 A
HETATM    8  C9  UNL     1      12.275  11.627   2.001  1.00  0.00     0.169 A
HETATM    9  C10 UNL     1      12.268  13.004   2.036  1.00  0.00     0.112 A
HETATM   10  C11 UNL     1      13.075  13.704   2.930  1.00  0.00     0.026 A
HETATM   11  C12 UNL     1      13.097  15.166   2.994  1.00  0.00     0.113 C
HETATM   12  C13 UNL     1      11.740  15.798   2.795  1.00  0.00     0.037 C
HETATM   13  N4  UNL     1      13.701  15.715   4.137  1.00  0.00    -0.389 N
ATOM     14  H4  UNL     1      13.343  16.566   4.571  1.00  0.00     0.156 HD
ENDROOT
BRANCH   1  15
HETATM   15  C3  UNL     1      15.035  15.519   6.087  1.00  0.00     0.063 C
BRANCH  15  16
HETATM   16  C2  UNL     1      15.938  16.727   6.020  1.00  0.00     0.077 C
BRANCH  16  17
HETATM   17  S1  UNL     1      15.125  18.241   6.513  1.00  0.00    -0.173 SA
HETATM   18  C1  UNL     1      13.484  17.839   7.163  1.00  0.00     0.089 C
ENDBRANCH  16  17
ENDBRANCH  15  16
ENDBRANCH   1  15
BRANCH   7  19
HETATM   19  N2  UNL     1      13.049   9.445   2.765  1.00  0.00    -0.113 N
HETATM   20  O1  UNL     1      14.084   8.874   2.376  1.00  0.00    -0.532 OA
HETATM   21  O2  UNL     1      11.979   8.656   3.094  1.00  0.00    -0.532 OA
ENDBRANCH   7  19
BRANCH   9  22
HETATM   22  O5  UNL     1      11.469  13.723   1.193  1.00  0.00    -0.357 OA
ATOM     23  H5  UNL     1      11.803  14.050   0.365  1.00  0.00     0.217 HD
ENDBRANCH   9  22
BRANCH   8  24
HETATM   24  N3  UNL     1      11.431  10.931   1.070  1.00  0.00    -0.110 N
HETATM   25  O3  UNL     1      10.193  11.185   1.165  1.00  0.00    -0.532 OA
HETATM   26  O4  UNL     1      11.914  10.059   0.142  1.00  0.00    -0.532 OA
ENDBRANCH   8  24
TORSDOF 6
ENDMDL