MODEL 1
REMARK VINA RESULT: -6.371855217      0.000      0.000
REMARK  7 active torsions:
REMARK  status: ('A' for Active; 'I' for Inactive)
REMARK    1  A    between atoms: C2_2  and  C3_3
REMARK    2  A    between atoms: C4_7  and  N2_8
REMARK    3  A    between atoms: N2_8  and  N3_9
REMARK    4  A    between atoms: C5_11  and  C6_12
REMARK    5  A    between atoms: C7_14  and  O1_15
REMARK    6  A    between atoms: C8_17  and  N4_18
REMARK    7  A    between atoms: C11_25  and  N6_26
ROOT
HETATM    1  N3  UNL     1      15.166  10.385   4.291  1.00  0.00    -0.245 N
ATOM      2  H3  UNL     1      14.890   9.472   3.928  1.00  0.00     0.201 HD
HETATM    3  C5  UNL     1      16.143  10.112   4.982  1.00  0.00     0.140 C
ENDROOT
BRANCH   1   4
HETATM    4  N2  UNL     1      14.315  11.150   3.779  1.00  0.00    -0.315 NA
BRANCH   4   5
HETATM    5  C4  UNL     1      13.499  11.979   3.369  1.00  0.00     0.216 A
HETATM    6  S1  UNL     1      12.045  11.651   2.435  1.00  0.00     0.023 SA
HETATM    7  N1  UNL     1      11.555  13.231   2.134  1.00  0.00    -0.325 N
HETATM    8  C3  UNL     1      12.512  13.959   2.745  1.00  0.00     0.046 A
ATOM      9  H1  UNL     1      10.738  13.557   1.618  1.00  0.00     0.174 HD
HETATM   10  C11 UNL     1      13.491  13.364   3.374  1.00  0.00     0.104 A
BRANCH   8  11
HETATM   11  C2  UNL     1      12.323  15.482   2.599  1.00  0.00     0.055 C
HETATM   12  C1  UNL     1      10.905  15.884   2.618  1.00  0.00     0.011 C
ENDBRANCH   8  11
BRANCH  10  13
HETATM   13  N6  UNL     1      14.635  13.910   4.094  1.00  0.00    -0.385 N
HETATM   14  C12 UNL     1      14.718  14.014   5.500  1.00  0.00     0.149 C
HETATM   15  C13 UNL     1      15.775  14.371   3.300  1.00  0.00     0.149 C
ENDBRANCH  10  13
ENDBRANCH   4   5
ENDBRANCH   1   4
BRANCH   3  16
HETATM   16  C6  UNL     1      16.567   8.671   5.057  1.00  0.00     0.033 A
HETATM   17  S2  UNL     1      16.015   7.246   4.359  1.00  0.00    -0.061 SA
HETATM   18  C7  UNL     1      17.159   6.150   5.081  1.00  0.00     0.137 A
HETATM   19  C8  UNL     1      17.933   6.951   5.860  1.00  0.00     0.095 A
HETATM   20  C9  UNL     1      17.660   8.254   5.867  1.00  0.00    -0.012 A
HETATM   21  C10 UNL     1      18.403   9.256   6.712  1.00  0.00     0.052 C
BRANCH  18  22
HETATM   22  O1  UNL     1      17.184   4.747   4.862  1.00  0.00    -0.352 OA
ATOM     23  H1  UNL     1      16.431   4.174   4.935  1.00  0.00     0.218 HD
ENDBRANCH  18  22
BRANCH  19  24
HETATM   24  N4  UNL     1      18.834   6.168   6.752  1.00  0.00    -0.303 N
HETATM   25  N5  UNL     1      18.534   5.312   7.519  1.00  0.00    -0.345 N
ATOM     26  H52 UNL     1      17.537   5.099   7.559  1.00  0.00     0.176 HD
ATOM     27  H51 UNL     1      19.151   4.776   8.130  1.00  0.00     0.176 HD
ATOM     28  H4  UNL     1      19.828   6.395   6.698  1.00  0.00     0.186 HD
ENDBRANCH  19  24
ENDBRANCH   3  16
TORSDOF 7
ENDMDL