MODEL 3
REMARK VINA RESULT: -8.150392598      1.597      2.194
REMARK  8 active torsions:
REMARK  status: ('A' for Active; 'I' for Inactive)
REMARK    1  A    between atoms: N1_1  and  C1_4
REMARK    2  A    between atoms: C2_9  and  N4_10
REMARK    3  A    between atoms: N4_10  and  N5_12
REMARK    4  A    between atoms: N5_12  and  C3_14
REMARK    5  A    between atoms: C4_15  and  O1_16
REMARK    6  A    between atoms: N7_20  and  C5_21
REMARK    7  A    between atoms: C5_21  and  C6_22
REMARK    8  A    between atoms: C7_23  and  C8_24
ROOT
HETATM    1  C3  UNL     1      16.029  16.731   6.212  1.00  0.00     0.170 A
HETATM    2  C4  UNL     1      14.656  16.627   6.361  1.00  0.00     0.189 A
HETATM    3  N6  UNL     1      14.209  15.835   5.358  1.00  0.00    -0.273 N
ATOM      4  H6  UNL     1      13.235  15.574   5.205  1.00  0.00     0.189 HD
HETATM    5  N7  UNL     1      15.230  15.449   4.608  1.00  0.00    -0.250 N
HETATM    6  C14 UNL     1      16.351  15.978   5.101  1.00  0.00     0.294 A
HETATM    7  O2  UNL     1      17.538  15.864   4.691  1.00  0.00    -0.264 OA
ENDROOT
BRANCH   1   8
HETATM    8  N5  UNL     1      16.853  17.483   7.079  1.00  0.00    -0.290 N
ATOM      9  H5  UNL     1      16.824  17.305   8.083  1.00  0.00     0.187 HD
BRANCH   8  10
HETATM   10  N4  UNL     1      17.624  18.373   6.625  1.00  0.00    -0.278 N
ATOM     11  H4  UNL     1      18.613  18.390   6.871  1.00  0.00     0.189 HD
BRANCH  10  12
HETATM   12  C2  UNL     1      17.052  19.366   5.743  1.00  0.00     0.181 A
HETATM   13  N3  UNL     1      17.376  19.639   4.490  1.00  0.00    -0.277 N
HETATM   14  N2  UNL     1      16.766  20.555   3.854  1.00  0.00    -0.278 N
ATOM     15  H3  UNL     1      18.120  19.113   4.031  1.00  0.00     0.189 HD
HETATM   16  C1  UNL     1      15.796  21.230   4.480  1.00  0.00     0.160 A
ATOM     17  H2  UNL     1      17.011  20.770   2.888  1.00  0.00     0.189 HD
HETATM   18  S1  UNL     1      15.798  20.493   6.020  1.00  0.00    -0.014 SA
BRANCH  16  19
HETATM   19  N1  UNL     1      15.057  22.203   3.997  1.00  0.00    -0.378 N
ATOM     20  H12 UNL     1      15.322  23.081   3.550  1.00  0.00     0.158 HD
ATOM     21  H11 UNL     1      14.038  22.260   3.977  1.00  0.00     0.158 HD
ENDBRANCH  16  19
ENDBRANCH  10  12
ENDBRANCH   8  10
ENDBRANCH   1   8
BRANCH   2  22
HETATM   22  O1  UNL     1      13.906  17.235   7.362  1.00  0.00    -0.343 OA
ATOM     23  H1  UNL     1      13.001  17.034   7.571  1.00  0.00     0.219 HD
ENDBRANCH   2  22
BRANCH   5  24
HETATM   24  C5  UNL     1      15.121  14.598   3.451  1.00  0.00     0.179 C
BRANCH  24  25
HETATM   25  C6  UNL     1      13.755  13.973   3.399  1.00  0.00    -0.009 C
HETATM   26  C7  UNL     1      13.639  12.714   3.057  1.00  0.00    -0.024 C
BRANCH  26  27
HETATM   27  C8  UNL     1      12.360  11.953   2.960  1.00  0.00     0.008 C
HETATM   28  C9  UNL     1      11.662  12.318   1.677  1.00  0.00     0.008 C
HETATM   29  C10 UNL     1      10.918  11.130   1.164  1.00  0.00     0.001 C
HETATM   30  C11 UNL     1      11.951  10.120   0.695  1.00  0.00     0.000 C
HETATM   31  C12 UNL     1      12.908   9.779   1.818  1.00  0.00     0.001 C
HETATM   32  C13 UNL     1      12.518  10.482   3.097  1.00  0.00     0.008 C
ENDBRANCH  26  27
ENDBRANCH  24  25
ENDBRANCH   5  24
TORSDOF 8
ENDMDL