MODEL 4
REMARK VINA RESULT: -6.860878175      3.348      5.625
REMARK  8 active torsions:
REMARK  status: ('A' for Active; 'I' for Inactive)
REMARK    1  A    between atoms: C2_2  and  C3_7
REMARK    2  A    between atoms: N1_3  and  O1_5
REMARK    3  A    between atoms: C5_9  and  C6_10
REMARK    4  A    between atoms: C6_10  and  O3_15
REMARK    5  A    between atoms: N2_11  and  O2_13
REMARK    6  A    between atoms: O3_15  and  C7_16
REMARK    7  A    between atoms: C7_16  and  C8_17
REMARK    8  A    between atoms: C12_21  and  N3_22
ROOT
HETATM    1  C3  UNL     1      15.195  13.196   4.471  1.00  0.00     0.007 A
HETATM    2  C4  UNL     1      14.104  12.672   3.836  1.00  0.00     0.033 A
HETATM    3  C5  UNL     1      13.999  11.317   3.478  1.00  0.00     0.051 A
HETATM    4  C12 UNL     1      15.003  10.440   3.756  1.00  0.00     0.118 A
HETATM    5  C13 UNL     1      16.135  10.979   4.413  1.00  0.00     0.057 A
HETATM    6  C14 UNL     1      16.208  12.296   4.746  1.00  0.00     0.026 A
HETATM    7  S1  UNL     1      17.671  12.908   5.576  1.00  0.00    -0.052 SA
ENDROOT
BRANCH   3   8
HETATM    8  C6  UNL     1      12.805  10.929   2.708  1.00  0.00     0.175 C
HETATM    9  N2  UNL     1      12.671   9.802   2.198  1.00  0.00    -0.247 N
ATOM     10  H2  UNL     1      13.460   9.176   2.358  1.00  0.00     0.196 HD
BRANCH   9  11
HETATM   11  O2  UNL     1      11.683   9.262   1.481  1.00  0.00    -0.288 OA
ATOM     12  H2  UNL     1      11.568   8.392   1.116  1.00  0.00     0.244 HD
ENDBRANCH   9  11
BRANCH   8  13
HETATM   13  O3  UNL     1      11.789  11.848   2.543  1.00  0.00    -0.333 OA
BRANCH  13  14
HETATM   14  C7  UNL     1      11.455  12.445   1.339  1.00  0.00     0.182 C
BRANCH  14  15
HETATM   15  C8  UNL     1      11.482  13.954   1.355  1.00  0.00     0.010 C
HETATM   16  C9  UNL     1      12.867  14.554   1.496  1.00  0.00     0.007 C
HETATM   17  C10 UNL     1      12.267  15.500   2.518  1.00  0.00     0.001 C
HETATM   18  C11 UNL     1      11.201  14.450   2.764  1.00  0.00     0.007 C
ENDBRANCH  14  15
ENDBRANCH  13  14
ENDBRANCH   8  13
ENDBRANCH   3   8
BRANCH   4  19
HETATM   19  N3  UNL     1      15.016   9.061   3.464  1.00  0.00    -0.115 N
HETATM   20  O4  UNL     1      14.810   8.075   4.151  1.00  0.00    -0.532 OA
HETATM   21  O5  UNL     1      15.432   8.755   2.148  1.00  0.00    -0.532 OA
ENDBRANCH   4  19
BRANCH   1  22
HETATM   22  C2  UNL     1      15.348  14.594   4.858  1.00  0.00     0.039 C
HETATM   23  C1  UNL     1      14.801  15.135   6.124  1.00  0.00     0.071 C
HETATM   24  N1  UNL     1      15.945  15.395   4.059  1.00  0.00    -0.273 N
ATOM     25  H1  UNL     1      16.331  15.039   3.184  1.00  0.00     0.194 HD
BRANCH  24  26
HETATM   26  O1  UNL     1      16.073  16.713   4.357  1.00  0.00    -0.290 OA
ATOM     27  H1  UNL     1      15.941  17.379   3.693  1.00  0.00     0.244 HD
ENDBRANCH  24  26
ENDBRANCH   1  22
TORSDOF 8
ENDMDL