MODEL 2
REMARK VINA RESULT: -6.560254368      4.407      7.108
REMARK  7 active torsions:
REMARK  status: ('A' for Active; 'I' for Inactive)
REMARK    1  A    between atoms: C2_2  and  C3_3
REMARK    2  A    between atoms: C3_3  and  N1_5
REMARK    3  A    between atoms: C5_6  and  N2_7
REMARK    4  A    between atoms: C7_9  and  O1_10
REMARK    5  A    between atoms: N3_12  and  C8_13
REMARK    6  A    between atoms: C8_13  and  C9_14
REMARK    7  A    between atoms: N4_15  and  O2_17
ROOT
HETATM    1  N2  UNL     1      16.629  16.395   6.170  1.00  0.00    -0.278 N
HETATM    2  C6  UNL     1      15.404  16.759   6.648  1.00  0.00     0.157 A
HETATM    3  C7  UNL     1      15.268  18.113   6.668  1.00  0.00     0.161 A
HETATM    4  N3  UNL     1      16.449  18.599   6.187  1.00  0.00    -0.298 N
HETATM    5  C10 UNL     1      17.242  17.551   5.898  1.00  0.00     0.188 A
HETATM    6  S1  UNL     1      18.754  17.663   5.296  1.00  0.00    -0.040 SA
ENDROOT
BRANCH   1   7
HETATM    7  C5  UNL     1      17.111  15.065   6.012  1.00  0.00     0.141 A
HETATM    8  N1  UNL     1      16.778  14.206   5.017  1.00  0.00    -0.303 N
HETATM    9  C13 UNL     1      17.472  13.054   5.263  1.00  0.00     0.180 A
HETATM   10  N5  UNL     1      18.200  13.230   6.380  1.00  0.00    -0.333 N
HETATM   11  S2  UNL     1      17.382  11.729   4.317  1.00  0.00    -0.040 SA
HETATM   12  C11 UNL     1      18.004  14.464   6.875  1.00  0.00     0.052 A
ATOM     13  H5  UNL     1      18.813  12.527   6.792  1.00  0.00     0.168 HD
HETATM   14  C12 UNL     1      18.599  15.086   8.085  1.00  0.00     0.072 C
BRANCH   8  15
HETATM   15  C3  UNL     1      15.892  14.452   3.942  1.00  0.00     0.089 C
HETATM   16  C4  UNL     1      16.226  15.706   3.146  1.00  0.00     0.033 C
BRANCH  15  17
HETATM   17  C2  UNL     1      14.427  14.469   4.319  1.00  0.00     0.021 C
HETATM   18  C1  UNL     1      13.689  13.391   3.578  1.00  0.00     0.007 C
ENDBRANCH  15  17
ENDBRANCH   8  15
ENDBRANCH   1   7
BRANCH   3  19
HETATM   19  O1  UNL     1      14.156  18.810   7.091  1.00  0.00    -0.345 OA
ATOM     20  H1  UNL     1      13.984  19.102   7.979  1.00  0.00     0.219 HD
ENDBRANCH   3  19
BRANCH   4  21
HETATM   21  C8  UNL     1      16.737  20.011   6.037  1.00  0.00     0.180 C
BRANCH  21  22
HETATM   22  C9  UNL     1      15.952  20.576   4.911  1.00  0.00     0.107 C
HETATM   23  N4  UNL     1      16.492  20.740   3.744  1.00  0.00    -0.283 N
ATOM     24  H4  UNL     1      17.468  20.470   3.624  1.00  0.00     0.192 HD
BRANCH  23  25
HETATM   25  O2  UNL     1      15.832  21.250   2.676  1.00  0.00    -0.291 OA
ATOM     26  H2  UNL     1      15.256  22.003   2.723  1.00  0.00     0.244 HD
ENDBRANCH  23  25
ENDBRANCH  21  22
ENDBRANCH   4  21
TORSDOF 7
ENDMDL