MODEL 1
REMARK VINA RESULT: -8.288219285      0.000      0.000
REMARK  8 active torsions:
REMARK  status: ('A' for Active; 'I' for Inactive)
REMARK    1  A    between atoms: C2_2  and  C3_3
REMARK    2  A    between atoms: C3_3  and  O1_4
REMARK    3  A    between atoms: O1_4  and  C4_5
REMARK    4  A    between atoms: C7_9  and  N1_10
REMARK    5  A    between atoms: C9_14  and  O5_15
REMARK    6  A    between atoms: C11_18  and  O6_19
REMARK    7  A    between atoms: C14_23  and  O7_24
REMARK    8  A    between atoms: C16_26  and  O8_27
ROOT
HETATM    1  C4  UNL     1      16.215  11.398   4.946  1.00  0.00     0.102 A
HETATM    2  C5  UNL     1      16.742  10.077   5.187  1.00  0.00     0.039 A
HETATM    3  C6  UNL     1      17.857   9.696   5.888  1.00  0.00     0.160 A
HETATM    4  O2  UNL     1      17.914   8.402   5.831  1.00  0.00    -0.299 OA
HETATM    5  C7  UNL     1      16.889   7.896   5.131  1.00  0.00     0.228 A
HETATM    6  C8  UNL     1      16.122   8.974   4.714  1.00  0.00     0.070 A
HETATM    7  C9  UNL     1      14.931   9.040   3.960  1.00  0.00     0.095 A
HETATM    8  C10 UNL     1      14.436  10.334   3.741  1.00  0.00     0.048 A
HETATM    9  C11 UNL     1      13.252  10.481   2.983  1.00  0.00     0.088 A
HETATM   10  C12 UNL     1      12.708  11.704   2.706  1.00  0.00     0.008 A
HETATM   11  C13 UNL     1      11.467  11.844   1.885  1.00  0.00     0.054 C
HETATM   12  C14 UNL     1      13.338  12.831   3.191  1.00  0.00     0.111 A
HETATM   13  C16 UNL     1      14.490  12.712   3.937  1.00  0.00     0.113 A
HETATM   14  C17 UNL     1      15.062  11.461   4.222  1.00  0.00     0.051 A
ENDROOT
BRANCH   1  15
HETATM   15  O1  UNL     1      16.963  12.334   5.475  1.00  0.00    -0.321 OA
BRANCH  15  16
HETATM   16  C3  UNL     1      17.932  13.129   5.727  1.00  0.00     0.141 C
BRANCH  16  17
HETATM   17  C2  UNL     1      18.551  14.249   4.976  1.00  0.00     0.014 C
HETATM   18  C1  UNL     1      19.796  14.530   5.010  1.00  0.00     0.013 C
ENDBRANCH  16  17
ENDBRANCH  15  16
ENDBRANCH   1  15
BRANCH  13  19
HETATM   19  O8  UNL     1      15.078  13.833   4.406  1.00  0.00    -0.357 OA
ATOM     20  H8  UNL     1      15.947  13.769   4.782  1.00  0.00     0.217 HD
ENDBRANCH  13  19
BRANCH   5  21
HETATM   21  N1  UNL     1      16.678   6.530   4.890  1.00  0.00    -0.089 N
HETATM   22  O3  UNL     1      16.414   5.937   3.879  1.00  0.00    -0.530 OA
HETATM   23  O4  UNL     1      16.774   5.699   6.043  1.00  0.00    -0.530 OA
ENDBRANCH   5  21
BRANCH   7  24
HETATM   24  O5  UNL     1      14.338   7.941   3.499  1.00  0.00    -0.359 OA
ATOM     25  H5  UNL     1      14.150   7.829   2.575  1.00  0.00     0.217 HD
ENDBRANCH   7  24
BRANCH   9  26
HETATM   26  O6  UNL     1      12.658   9.316   2.532  1.00  0.00    -0.359 OA
ATOM     27  H6  UNL     1      13.011   8.941   1.734  1.00  0.00     0.217 HD
ENDBRANCH   9  26
BRANCH  12  28
HETATM   28  O7  UNL     1      12.810  14.097   2.929  1.00  0.00    -0.352 OA
HETATM   29  C15 UNL     1      13.433  14.845   1.882  1.00  0.00     0.210 C
ENDBRANCH  12  28
TORSDOF 8
ENDMDL