MODEL 4
REMARK VINA RESULT: -6.583121965      3.092      4.991
REMARK  8 active torsions:
REMARK  status: ('A' for Active; 'I' for Inactive)
REMARK    1  A    between atoms: C2_2  and  N1_5
REMARK       I    between atoms: N1_5  and  C5_7
REMARK    2  A    between atoms: C5_7  and  C6_9
REMARK    3  A    between atoms: C6_9  and  S1_10
REMARK    4  A    between atoms: S1_10  and  S2_11
REMARK    5  A    between atoms: S2_11  and  C7_12
REMARK    6  A    between atoms: C9_15  and  O3_16
REMARK    7  A    between atoms: C10_19  and  C11_20
REMARK    8  A    between atoms: C13_23  and  O6_24
ROOT
HETATM    1  C7  UNL     1      14.292  12.140   4.052  1.00  0.00     0.157 A
HETATM    2  O2  UNL     1      14.702  10.901   4.164  1.00  0.00    -0.294 OA
HETATM    3  C8  UNL     1      14.034  10.123   3.343  1.00  0.00     0.151 A
HETATM    4  C9  UNL     1      13.862   8.842   2.886  1.00  0.00     0.220 A
HETATM    5  O4  UNL     1      12.923   8.888   1.994  1.00  0.00    -0.282 OA
HETATM    6  C10 UNL     1      12.448  10.074   1.808  1.00  0.00     0.132 A
HETATM    7  C12 UNL     1      13.137  10.914   2.662  1.00  0.00     0.076 A
HETATM    8  C13 UNL     1      13.294  12.205   3.107  1.00  0.00     0.123 A
ENDROOT
BRANCH   1   9
HETATM    9  S2  UNL     1      14.979  13.471   5.016  1.00  0.00    -0.029 SA
BRANCH   9  10
HETATM   10  S1  UNL     1      16.950  13.792   4.279  1.00  0.00    -0.081 SA
BRANCH  10  11
HETATM   11  C6  UNL     1      18.072  13.091   5.503  1.00  0.00     0.189 C
BRANCH  11  12
HETATM   12  C5  UNL     1      18.102  11.617   5.317  1.00  0.00     0.228 C
HETATM   13  N1  UNL     1      18.253  10.711   6.415  1.00  0.00    -0.352 N
ATOM     14  H1  UNL     1      18.343  11.102   7.353  1.00  0.00     0.163 HD
HETATM   15  O1  UNL     1      17.995  11.081   4.176  1.00  0.00    -0.273 OA
BRANCH  13  16
HETATM   16  C2  UNL     1      18.286   9.294   6.271  1.00  0.00     0.022 C
HETATM   17  C1  UNL     1      18.293   8.668   7.661  1.00  0.00     0.037 C
HETATM   18  C3  UNL     1      17.095   8.733   5.502  1.00  0.00     0.037 C
HETATM   19  C4  UNL     1      19.532   8.846   5.506  1.00  0.00     0.037 C
ENDBRANCH  13  16
ENDBRANCH  11  12
ENDBRANCH  10  11
ENDBRANCH   9  10
ENDBRANCH   1   9
BRANCH   8  20
HETATM   20  O6  UNL     1      12.593  13.314   2.685  1.00  0.00    -0.357 OA
ATOM     21  H6  UNL     1      12.576  13.703   1.818  1.00  0.00     0.218 HD
ENDBRANCH   8  20
BRANCH   4  22
HETATM   22  O3  UNL     1      14.573   7.740   3.319  1.00  0.00    -0.339 OA
ATOM     23  H3  UNL     1      15.006   7.111   2.754  1.00  0.00     0.220 HD
ENDBRANCH   4  22
BRANCH   6  24
HETATM   24  C11 UNL     1      11.404  10.549   0.912  1.00  0.00     0.296 C
HETATM   25  O5  UNL     1      10.674  11.491   1.309  1.00  0.00    -0.299 OA
ENDBRANCH   6  24
TORSDOF 8
ENDMDL