MODEL 2
REMARK VINA RESULT: -6.841896639      3.249      7.135
REMARK  9 active torsions:
REMARK  status: ('A' for Active; 'I' for Inactive)
REMARK    1  A    between atoms: C2_2  and  O1_4
REMARK    2  A    between atoms: O1_4  and  C4_5
REMARK    3  A    between atoms: C5_7  and  C6_8
REMARK    4  A    between atoms: C10_15  and  N3_16
REMARK    5  A    between atoms: N3_16  and  C11_18
REMARK    6  A    between atoms: C13_20  and  N4_21
REMARK    7  A    between atoms: N4_21  and  O2_23
REMARK    8  A    between atoms: C14_25  and  O3_26
REMARK    9  A    between atoms: C15_28  and  O4_29
ROOT
HETATM    1  C6  UNL     1      15.486  14.939   4.466  1.00  0.00     0.083 A
HETATM    2  N1  UNL     1      15.005  15.936   5.287  1.00  0.00    -0.361 N
ATOM      3  H1  UNL     1      13.999  15.984   5.449  1.00  0.00     0.165 HD
HETATM    4  C7  UNL     1      15.776  16.832   5.875  1.00  0.00     0.113 A
HETATM    5  C8  UNL     1      17.139  16.809   5.688  1.00  0.00     0.089 A
HETATM    6  C9  UNL     1      17.898  17.813   6.355  1.00  0.00     0.103 C
HETATM    7  N2  UNL     1      18.491  18.639   6.893  1.00  0.00    -0.191 NA
HETATM    8  C10 UNL     1      17.679  15.845   4.887  1.00  0.00     0.085 A
HETATM    9  C13 UNL     1      16.805  14.903   4.279  1.00  0.00     0.110 A
ENDROOT
BRANCH   8  10
HETATM   10  N3  UNL     1      18.879  15.740   4.662  1.00  0.00    -0.367 N
ATOM     11  H3  UNL     1      19.032  16.131   3.732  1.00  0.00     0.165 HD
BRANCH  10  12
HETATM   12  C11 UNL     1      20.106  15.327   5.114  1.00  0.00     0.057 C
HETATM   13  C12 UNL     1      19.990  14.517   6.397  1.00  0.00     0.054 C
ENDBRANCH  10  12
ENDBRANCH   8  10
BRANCH   9  14
HETATM   14  N4  UNL     1      17.418  13.872   3.501  1.00  0.00    -0.265 N
ATOM     15  H4  UNL     1      17.512  13.970   2.490  1.00  0.00     0.194 HD
BRANCH  14  16
HETATM   16  O2  UNL     1      17.831  12.863   4.076  1.00  0.00    -0.289 OA
ATOM     17  H2  UNL     1      17.403  12.032   3.903  1.00  0.00     0.244 HD
ENDBRANCH  14  16
ENDBRANCH   9  14
BRANCH   1  18
HETATM   18  C5  UNL     1      14.455  14.072   3.839  1.00  0.00     0.072 A
HETATM   19  S1  UNL     1      14.340  12.352   4.129  1.00  0.00    -0.057 SA
HETATM   20  C4  UNL     1      12.975  11.992   3.213  1.00  0.00     0.153 A
HETATM   21  C15 UNL     1      12.624  13.206   2.696  1.00  0.00     0.141 A
HETATM   22  C14 UNL     1      13.395  14.273   3.026  1.00  0.00     0.122 A
BRANCH  20  23
HETATM   23  O1  UNL     1      12.345  10.743   3.024  1.00  0.00    -0.306 OA
BRANCH  23  24
HETATM   24  C2  UNL     1      12.706   9.949   1.923  1.00  0.00     0.041 C
HETATM   25  C1  UNL     1      13.813   9.242   2.031  1.00  0.00     0.046 C
HETATM   26  C3  UNL     1      11.893   9.906   0.705  1.00  0.00     0.076 C
ENDBRANCH  23  24
ENDBRANCH  20  23
BRANCH  21  27
HETATM   27  O4  UNL     1      11.476  13.266   1.847  1.00  0.00    -0.355 OA
ATOM     28  H4  UNL     1      10.865  13.983   1.974  1.00  0.00     0.218 HD
ENDBRANCH  21  27
BRANCH  22  29
HETATM   29  O3  UNL     1      13.071  15.567   2.521  1.00  0.00    -0.357 OA
ATOM     30  H3  UNL     1      12.245  15.741   2.086  1.00  0.00     0.218 HD
ENDBRANCH  22  29
ENDBRANCH   1  18
TORSDOF 9
ENDMDL