MODEL 1
REMARK VINA RESULT: -6.697406760      0.000      0.000
REMARK  10 active torsions:
REMARK  status: ('A' for Active; 'I' for Inactive)
REMARK    1  A    between atoms: O1_2  and  C2_3
REMARK    2  A    between atoms: C2_3  and  C3_5
REMARK    3  A    between atoms: C5_7  and  C6_8
REMARK    4  A    between atoms: C6_8  and  C7_9
REMARK    5  A    between atoms: C7_9  and  C8_10
REMARK    6  A    between atoms: C8_10  and  O3_11
REMARK    7  A    between atoms: N1_13  and  O4_15
REMARK    8  A    between atoms: C9_18  and  N2_19
REMARK       I    between atoms: N2_19  and  C10_21
REMARK    9  A    between atoms: C10_21  and  O6_23
REMARK   10  A    between atoms: O6_23  and  C11_24
ROOT
HETATM    1  C3  UNL     1      16.964  12.445   4.373  1.00  0.00     0.074 A
HETATM    2  C4  UNL     1      17.684  13.575   4.521  1.00  0.00     0.041 A
HETATM    3  C5  UNL     1      17.028  14.761   4.656  1.00  0.00     0.032 A
HETATM    4  S1  UNL     1      15.402  14.278   4.572  1.00  0.00    -0.069 SA
HETATM    5  C9  UNL     1      15.614  12.536   4.356  1.00  0.00     0.095 A
ENDROOT
BRANCH   3   6
HETATM    6  C6  UNL     1      17.567  16.131   4.802  1.00  0.00     0.051 C
HETATM    7  N1  UNL     1      17.371  16.950   3.795  1.00  0.00    -0.272 N
ATOM      8  H1  UNL     1      17.719  17.907   3.837  1.00  0.00     0.194 HD
BRANCH   6   9
HETATM    9  C7  UNL     1      18.349  16.665   5.891  1.00  0.00     0.086 C
BRANCH   9  10
HETATM   10  C8  UNL     1      17.877  16.482   7.277  1.00  0.00     0.170 C
BRANCH  10  11
HETATM   11  O3  UNL     1      16.593  16.905   7.540  1.00  0.00    -0.400 OA
ATOM     12  H3  UNL     1      16.490  17.493   8.278  1.00  0.00     0.209 HD
ENDBRANCH  10  11
ENDBRANCH   9  10
ENDBRANCH   6   9
BRANCH   7  13
HETATM   13  O4  UNL     1      16.698  16.514   2.694  1.00  0.00    -0.290 OA
ATOM     14  H4  UNL     1      17.105  16.580   1.839  1.00  0.00     0.244 HD
ENDBRANCH   7  13
ENDBRANCH   3   6
BRANCH   1  15
HETATM   15  C2  UNL     1      17.639  11.122   4.460  1.00  0.00     0.295 C
HETATM   16  O2  UNL     1      18.825  10.919   4.666  1.00  0.00    -0.259 OA
BRANCH  15  17
HETATM   17  O1  UNL     1      16.858   9.977   4.292  1.00  0.00    -0.322 OA
HETATM   18  C1  UNL     1      16.791   8.965   5.295  1.00  0.00     0.213 C
ENDBRANCH  15  17
ENDBRANCH   1  15
BRANCH   5  19
HETATM   19  N2  UNL     1      14.505  11.743   4.037  1.00  0.00    -0.296 N
HETATM   20  C10 UNL     1      13.403  11.869   3.202  1.00  0.00     0.366 C
HETATM   21  O5  UNL     1      13.043  12.812   2.463  1.00  0.00    -0.238 OA
ATOM     22  H2  UNL     1      14.508  10.856   4.540  1.00  0.00     0.171 HD
BRANCH  20  23
HETATM   23  O6  UNL     1      12.458  10.783   3.106  1.00  0.00    -0.294 OA
BRANCH  23  24
HETATM   24  C11 UNL     1      12.601   9.754   2.180  1.00  0.00     0.061 C
HETATM   25  C12 UNL     1      14.064   9.456   1.864  1.00  0.00     0.046 C
HETATM   26  C13 UNL     1      12.037   8.501   2.814  1.00  0.00     0.046 C
HETATM   27  C14 UNL     1      11.847   9.989   0.896  1.00  0.00     0.046 C
ENDBRANCH  23  24
ENDBRANCH  20  23
ENDBRANCH   5  19
TORSDOF 10
ENDMDL