MODEL 3
REMARK VINA RESULT: -6.454238733      4.193      6.360
REMARK  6 active torsions:
REMARK  status: ('A' for Active; 'I' for Inactive)
REMARK    1  A    between atoms: C2_2  and  C3_3
REMARK    2  A    between atoms: C3_3  and  C4_4
REMARK    3  A    between atoms: C4_4  and  N1_5
REMARK    4  A    between atoms: C5_6  and  O1_7
REMARK    5  A    between atoms: C8_11  and  S1_12
REMARK    6  A    between atoms: S1_12  and  S2_13
ROOT
HETATM    1  N1  UNL     1      16.910   9.620   4.970  1.00  0.00    -0.319 N
HETATM    2  C5  UNL     1      15.747   9.112   4.543  1.00  0.00     0.153 A
HETATM    3  C6  UNL     1      14.944  10.165   4.046  1.00  0.00     0.049 A
HETATM    4  C7  UNL     1      15.663  11.313   4.191  1.00  0.00     0.124 A
HETATM    5  C8  UNL     1      16.878  10.949   4.766  1.00  0.00     0.119 A
HETATM    6  O2  UNL     1      15.161  12.551   3.800  1.00  0.00    -0.293 OA
HETATM    7  C10 UNL     1      13.879  12.587   3.247  1.00  0.00     0.137 C
HETATM    8  N2  UNL     1      13.476  13.561   2.526  1.00  0.00    -0.382 N
ATOM      9  H21 UNL     1      12.541  13.588   2.122  1.00  0.00     0.158 HD
ATOM     10  H22 UNL     1      14.119  14.334   2.353  1.00  0.00     0.158 HD
HETATM   11  C11 UNL     1      12.940  11.458   3.499  1.00  0.00     0.189 C
HETATM   12  C12 UNL     1      11.854  11.483   2.495  1.00  0.00     0.074 C
HETATM   13  N3  UNL     1      10.999  11.501   1.714  1.00  0.00    -0.196 NA
HETATM   14  C13 UNL     1      13.597  10.135   3.456  1.00  0.00     0.158 C
HETATM   15  C14 UNL     1      13.714   9.648   2.068  1.00  0.00     0.070 C
HETATM   16  N4  UNL     1      13.804   9.263   0.977  1.00  0.00    -0.197 NA
ENDROOT
BRANCH   2  17
HETATM   17  O1  UNL     1      15.321   7.791   4.548  1.00  0.00    -0.345 OA
ATOM     18  H1  UNL     1      14.434   7.451   4.562  1.00  0.00     0.219 HD
ENDBRANCH   2  17
BRANCH   5  19
HETATM   19  S1  UNL     1      18.192  12.067   5.171  1.00  0.00    -0.037 SA
BRANCH  19  20
HETATM   20  S2  UNL     1      17.365  13.841   6.001  1.00  0.00    -0.095 SA
HETATM   21  C9  UNL     1      17.444  15.131   4.754  1.00  0.00     0.103 C
ENDBRANCH  19  20
ENDBRANCH   5  19
BRANCH   1  22
HETATM   22  C4  UNL     1      17.989   8.825   5.549  1.00  0.00     0.132 C
BRANCH  22  23
HETATM   23  C3  UNL     1      17.760   8.640   7.049  1.00  0.00     0.020 C
BRANCH  23  24
HETATM   24  C2  UNL     1      17.953   7.163   7.339  1.00  0.00    -0.003 C
HETATM   25  C1  UNL     1      18.307   6.482   6.036  1.00  0.00     0.005 C
ENDBRANCH  23  24
ENDBRANCH  22  23
ENDBRANCH   1  22
TORSDOF 6
ENDMDL