MODEL 4
REMARK VINA RESULT: -8.284262705      1.067      1.955
REMARK  7 active torsions:
REMARK  status: ('A' for Active; 'I' for Inactive)
REMARK    1  A    between atoms: C2_2  and  N1_3
REMARK    2  A    between atoms: C2_2  and  C3_7
REMARK    3  A    between atoms: C3_7  and  O1_8
REMARK    4  A    between atoms: O1_8  and  C4_9
REMARK    5  A    between atoms: C6_11  and  O2_12
REMARK    6  A    between atoms: C12_20  and  C13_21
REMARK    7  A    between atoms: C12_20  and  C14_23
ROOT
HETATM    1  C4  UNL     1      16.638  10.137   5.106  1.00  0.00     0.074 A
HETATM    2  C5  UNL     1      17.545  10.953   4.508  1.00  0.00     0.074 A
HETATM    3  C6  UNL     1      17.213  12.095   3.862  1.00  0.00     0.077 A
HETATM    4  C7  UNL     1      15.883  12.533   3.759  1.00  0.00     0.010 A
HETATM    5  C8  UNL     1      14.963  11.735   4.350  1.00  0.00     0.080 A
HETATM    6  C9  UNL     1      15.299  10.557   5.016  1.00  0.00     0.074 A
HETATM    7  O3  UNL     1      13.578  11.922   4.406  1.00  0.00    -0.350 OA
HETATM    8  C10 UNL     1      12.753  12.508   3.380  1.00  0.00     0.176 C
HETATM    9  C11 UNL     1      13.557  13.055   2.287  1.00  0.00     0.044 C
HETATM   10  C12 UNL     1      14.448  14.256   2.573  1.00  0.00     0.024 C
HETATM   11  C20 UNL     1      15.804  13.800   3.004  1.00  0.00     0.061 C
ENDROOT
BRANCH  10  12
HETATM   12  C13 UNL     1      14.731  14.698   1.113  1.00  0.00     0.237 C
HETATM   13  F1  UNL     1      15.597  15.723   1.007  1.00  0.00    -0.254 F
ENDBRANCH  10  12
BRANCH  10  14
HETATM   14  C14 UNL     1      13.756  15.243   3.365  1.00  0.00     0.022 A
HETATM   15  C15 UNL     1      14.271  15.779   4.534  1.00  0.00     0.098 A
HETATM   16  N2  UNL     1      15.509  15.376   5.007  1.00  0.00    -0.098 NA
HETATM   17  C16 UNL     1      13.616  16.729   5.309  1.00  0.00     0.182 A
HETATM   18  F2  UNL     1      14.205  17.198   6.449  1.00  0.00    -0.201 F
HETATM   19  C17 UNL     1      12.379  17.194   4.932  1.00  0.00     0.198 A
HETATM   20  F3  UNL     1      11.734  18.119   5.678  1.00  0.00    -0.199 F
HETATM   21  C18 UNL     1      11.818  16.699   3.781  1.00  0.00     0.197 A
HETATM   22  F4  UNL     1      10.602  17.154   3.404  1.00  0.00    -0.199 F
HETATM   23  C19 UNL     1      12.513  15.736   3.020  1.00  0.00     0.167 A
HETATM   24  F5  UNL     1      11.862  15.340   1.941  1.00  0.00    -0.202 F
ENDBRANCH  10  14
BRANCH   3  25
HETATM   25  O2  UNL     1      18.200  12.900   3.260  1.00  0.00    -0.360 OA
ATOM     26  H2  UNL     1      18.075  13.258   2.389  1.00  0.00     0.217 HD
ENDBRANCH   3  25
BRANCH   1  27
HETATM   27  O1  UNL     1      16.907   8.969   5.769  1.00  0.00    -0.349 OA
BRANCH  27  28
HETATM   28  C3  UNL     1      16.692   7.682   5.336  1.00  0.00     0.207 C
BRANCH  28  29
HETATM   29  C2  UNL     1      17.717   6.668   5.750  1.00  0.00     0.203 C
HETATM   30  C1  UNL     1      17.449   6.352   7.217  1.00  0.00     0.042 C
BRANCH  29  31
HETATM   31  N1  UNL     1      17.581   5.464   4.937  1.00  0.00    -0.073 N
ATOM     32  H13 UNL     1      18.235   5.457   4.154  1.00  0.00     0.274 HD
ATOM     33  H12 UNL     1      17.923   4.636   5.425  1.00  0.00     0.274 HD
ATOM     34  H11 UNL     1      16.616   5.351   4.628  1.00  0.00     0.274 HD
ENDBRANCH  29  31
ENDBRANCH  28  29
ENDBRANCH  27  28
ENDBRANCH   1  27
TORSDOF 7
ENDMDL