MODEL 1
REMARK VINA RESULT: -8.576578778      0.000      0.000
REMARK  7 active torsions:
REMARK  status: ('A' for Active; 'I' for Inactive)
REMARK    1  A    between atoms: C5_6  and  O1_7
REMARK    2  A    between atoms: O1_7  and  C6_8
REMARK    3  A    between atoms: C7_11  and  C8_12
REMARK    4  A    between atoms: C8_12  and  C9_13
REMARK    5  A    between atoms: C14_19  and  C15_20
REMARK    6  A    between atoms: C14_19  and  C16_23
REMARK    7  A    between atoms: C18_25  and  O2_27
ROOT
HETATM    1  C8  UNL     1      14.560  13.193   3.556  1.00  0.00     0.117 A
HETATM    2  C10 UNL     1      15.708  13.513   4.478  1.00  0.00     0.054 A
HETATM    3  C11 UNL     1      15.142  14.361   5.553  1.00  0.00     0.034 A
HETATM    4  C12 UNL     1      13.698  14.472   5.222  1.00  0.00     0.129 A
HETATM    5  C13 UNL     1      13.892  15.951   4.942  1.00  0.00     0.050 C
HETATM    6  C14 UNL     1      15.278  15.839   5.510  1.00  0.00     0.056 C
HETATM    7  O3  UNL     1      13.451  13.776   4.094  1.00  0.00    -0.367 OA
ENDROOT
BRANCH   1   8
HETATM    8  C7  UNL     1      14.307  11.720   3.497  1.00  0.00     0.015 A
HETATM    9  C5  UNL     1      13.341  11.113   2.736  1.00  0.00     0.108 A
HETATM   10  C4  UNL     1      13.189   9.704   2.692  1.00  0.00     0.081 A
HETATM   11  C3  UNL     1      14.048   8.946   3.444  1.00  0.00     0.036 A
HETATM   12  N1  UNL     1      12.169   9.124   1.888  1.00  0.00    -0.099 NA
HETATM   13  C2  UNL     1      15.032   9.519   4.222  1.00  0.00    -0.059 A
HETATM   14  C1  UNL     1      15.953   8.677   5.031  1.00  0.00     0.048 C
HETATM   15  C20 UNL     1      15.155  10.897   4.244  1.00  0.00     0.020 A
BRANCH   9  16
HETATM   16  O1  UNL     1      12.445  11.786   1.975  1.00  0.00    -0.287 OA
BRANCH  16  17
HETATM   17  C6  UNL     1      11.197  12.312   2.161  1.00  0.00     0.505 C
HETATM   18  F1  UNL     1      10.236  11.645   1.375  1.00  0.00    -0.184 F
HETATM   19  F2  UNL     1      10.744  12.368   3.470  1.00  0.00    -0.184 F
ENDBRANCH  16  17
ENDBRANCH   9  16
ENDBRANCH   1   8
BRANCH   1  20
HETATM   20  C9  UNL     1      14.791  13.757   2.181  1.00  0.00     0.265 C
HETATM   21  F3  UNL     1      13.755  14.637   1.883  1.00  0.00    -0.252 F
ENDBRANCH   1  20
BRANCH   6  22
HETATM   22  C15 UNL     1      15.321  16.364   6.951  1.00  0.00     0.364 C
HETATM   23  F4  UNL     1      16.242  15.671   7.712  1.00  0.00    -0.214 F
HETATM   24  F5  UNL     1      14.077  16.119   7.549  1.00  0.00    -0.214 F
ENDBRANCH   6  22
BRANCH   6  25
HETATM   25  C16 UNL     1      16.315  16.447   4.624  1.00  0.00     0.208 C
HETATM   26  C17 UNL     1      16.868  17.739   5.138  1.00  0.00     0.102 C
HETATM   27  C18 UNL     1      18.285  17.161   5.089  1.00  0.00     0.223 C
HETATM   28  C19 UNL     1      19.064  17.282   6.363  1.00  0.00     0.078 C
HETATM   29  N2  UNL     1      17.653  15.874   4.894  1.00  0.00    -0.038 N
ATOM     30  H22 UNL     1      17.739  15.178   5.635  1.00  0.00     0.281 HD
ATOM     31  H21 UNL     1      18.054  15.240   4.203  1.00  0.00     0.281 HD
BRANCH  27  32
HETATM   32  O2  UNL     1      18.966  17.638   3.958  1.00  0.00    -0.365 OA
ATOM     33  H2  UNL     1      19.588  16.989   3.651  1.00  0.00     0.212 HD
ENDBRANCH  27  32
ENDBRANCH   6  25
TORSDOF 7
ENDMDL