MODEL 5
REMARK VINA RESULT: -8.454476291      1.068      1.894
REMARK  8 active torsions:
REMARK  status: ('A' for Active; 'I' for Inactive)
REMARK    1  A    between atoms: N1_1  and  C1_5
REMARK    2  A    between atoms: N2_10  and  C6_11
REMARK    3  A    between atoms: C6_11  and  C7_12
REMARK    4  A    between atoms: C9_14  and  O1_15
REMARK    5  A    between atoms: O1_15  and  C10_16
REMARK    6  A    between atoms: C18_29  and  C19_30
REMARK    7  A    between atoms: C19_30  and  O2_31
REMARK    8  A    between atoms: C19_30  and  O3_33
ROOT
HETATM    1  C7  UNL     1      14.008  17.362   5.657  1.00  0.00    -0.030 A
HETATM    2  C8  UNL     1      14.243  16.341   4.771  1.00  0.00     0.049 A
HETATM    3  C9  UNL     1      13.261  15.897   3.866  1.00  0.00     0.115 A
HETATM    4  C16 UNL     1      12.036  16.510   3.881  1.00  0.00     0.150 A
HETATM    5  F5  UNL     1      11.027  16.139   3.034  1.00  0.00    -0.203 F
HETATM    6  C17 UNL     1      11.808  17.546   4.784  1.00  0.00     0.057 A
HETATM    7  C18 UNL     1      12.769  17.974   5.663  1.00  0.00     0.006 A
ENDROOT
BRANCH   1   8
HETATM    8  C6  UNL     1      14.984  17.805   6.609  1.00  0.00     0.143 C
BRANCH   8   9
HETATM    9  N2  UNL     1      16.053  18.525   5.995  1.00  0.00    -0.248 NA
HETATM   10  C5  UNL     1      16.432  19.741   6.786  1.00  0.00     0.104 C
HETATM   11  C4  UNL     1      17.773  19.558   7.480  1.00  0.00     0.015 C
HETATM   12  C3  UNL     1      18.986  19.372   6.716  1.00  0.00     0.004 C
HETATM   13  C2  UNL     1      19.486  17.987   6.336  1.00  0.00     0.046 C
HETATM   14  C1  UNL     1      18.423  17.231   5.469  1.00  0.00     0.265 C
HETATM   15  C20 UNL     1      17.191  17.850   5.693  1.00  0.00    -0.064 C
BRANCH  14  16
HETATM   16  N1  UNL     1      18.975  17.251   4.097  1.00  0.00    -0.064 N
ATOM     17  H13 UNL     1      19.976  17.442   4.055  1.00  0.00     0.275 HD
ATOM     18  H12 UNL     1      19.016  16.334   3.652  1.00  0.00     0.275 HD
ATOM     19  H11 UNL     1      18.402  17.930   3.598  1.00  0.00     0.275 HD
ENDBRANCH  14  16
ENDBRANCH   8   9
ENDBRANCH   1   8
BRANCH   7  20
HETATM   20  C19 UNL     1      12.499  19.046   6.586  1.00  0.00     0.289 C
BRANCH  20  21
HETATM   21  O2  UNL     1      11.462  18.627   7.452  1.00  0.00    -0.367 OA
ATOM     22  H2  UNL     1      11.824  17.993   8.059  1.00  0.00     0.213 HD
ENDBRANCH  20  21
BRANCH  20  23
HETATM   23  O3  UNL     1      11.984  20.181   5.920  1.00  0.00    -0.367 OA
ATOM     24  H3  UNL     1      11.040  20.128   5.827  1.00  0.00     0.213 HD
ENDBRANCH  20  23
ENDBRANCH   7  20
BRANCH   3  25
HETATM   25  O1  UNL     1      13.503  14.865   2.972  1.00  0.00    -0.304 OA
BRANCH  25  26
HETATM   26  C10 UNL     1      13.713  13.559   3.304  1.00  0.00     0.121 A
HETATM   27  C11 UNL     1      12.675  12.667   3.450  1.00  0.00     0.086 A
HETATM   28  C12 UNL     1      12.921  11.359   3.784  1.00  0.00     0.160 A
HETATM   29  F1  UNL     1      11.939  10.441   3.942  1.00  0.00    -0.203 F
HETATM   30  C13 UNL     1      14.217  10.909   3.979  1.00  0.00     0.196 A
HETATM   31  F2  UNL     1      14.458   9.621   4.308  1.00  0.00    -0.199 F
HETATM   32  C14 UNL     1      15.245  11.794   3.833  1.00  0.00     0.199 A
HETATM   33  F3  UNL     1      16.506  11.335   4.029  1.00  0.00    -0.199 F
HETATM   34  C15 UNL     1      14.999  13.107   3.498  1.00  0.00     0.191 A
HETATM   35  F4  UNL     1      16.078  13.947   3.367  1.00  0.00    -0.200 F
ENDBRANCH  25  26
ENDBRANCH   3  25
TORSDOF 8
ENDMDL