MODEL 1
REMARK VINA RESULT: -6.658129022      0.000      0.000
REMARK  9 active torsions:
REMARK  status: ('A' for Active; 'I' for Inactive)
REMARK    1  A    between atoms: S1_2  and  C1_4
REMARK    2  A    between atoms: S1_2  and  N1_8
REMARK    3  A    between atoms: C1_4  and  C2_5
REMARK    4  A    between atoms: C2_5  and  C3_6
REMARK    5  A    between atoms: N1_8  and  C4_10
REMARK    6  A    between atoms: C4_10  and  O3_11
REMARK    7  A    between atoms: N2_13  and  O4_15
REMARK    8  A    between atoms: O4_15  and  C5_16
REMARK    9  A    between atoms: C6_17  and  O5_18
ROOT
HETATM    1  C4  UNL     1      15.338  16.566   4.383  1.00  0.00     0.251 C
HETATM    2  N2  UNL     1      14.200  16.181   3.951  1.00  0.00    -0.223 N
ATOM      3  H2  UNL     1      13.875  16.664   3.114  1.00  0.00     0.198 HD
ENDROOT
BRANCH   2   4
HETATM    4  O4  UNL     1      13.389  15.271   4.405  1.00  0.00    -0.230 OA
BRANCH   4   5
HETATM    5  C5  UNL     1      13.252  13.939   4.090  1.00  0.00     0.157 A
HETATM    6  C6  UNL     1      14.016  12.925   4.613  1.00  0.00     0.127 A
HETATM    7  C7  UNL     1      13.791  11.592   4.220  1.00  0.00     0.093 A
HETATM    8 CL1  UNL     1      14.809  10.326   4.927  1.00  0.00    -0.079 Cl
HETATM    9  C8  UNL     1      12.817  11.298   3.321  1.00  0.00     0.082 A
HETATM   10 CL2  UNL     1      12.548   9.610   2.838  1.00  0.00    -0.081 Cl
HETATM   11  C9  UNL     1      12.040  12.303   2.786  1.00  0.00     0.082 A
HETATM   12 CL3  UNL     1      10.801  11.846   1.633  1.00  0.00    -0.081 Cl
HETATM   13  C10 UNL     1      12.240  13.602   3.153  1.00  0.00     0.096 A
HETATM   14 CL4  UNL     1      11.256  14.902   2.480  1.00  0.00    -0.079 Cl
BRANCH   6  15
HETATM   15  O5  UNL     1      15.031  13.133   5.532  1.00  0.00    -0.356 OA
ATOM     16  H5  UNL     1      15.938  13.267   5.286  1.00  0.00     0.218 HD
ENDBRANCH   6  15
ENDBRANCH   4   5
ENDBRANCH   2   4
BRANCH   1  17
HETATM   17  N1  UNL     1      15.857  15.938   5.549  1.00  0.00    -0.248 N
ATOM     18  H1  UNL     1      16.571  15.214   5.482  1.00  0.00     0.182 HD
BRANCH  17  19
HETATM   19  S1  UNL     1      15.242  16.438   7.077  1.00  0.00     0.233 S
HETATM   20  O1  UNL     1      14.140  15.489   7.447  1.00  0.00    -0.206 OA
HETATM   21  O2  UNL     1      16.301  16.403   8.135  1.00  0.00    -0.206 OA
BRANCH  19  22
HETATM   22  C1  UNL     1      14.577  18.094   6.908  1.00  0.00     0.166 C
BRANCH  22  23
HETATM   23  C2  UNL     1      13.091  18.100   7.184  1.00  0.00     0.048 C
BRANCH  23  24
HETATM   24  C3  UNL     1      12.435  18.873   6.048  1.00  0.00     0.223 C
HETATM   25  F1  UNL     1      11.819  17.988   5.196  1.00  0.00    -0.255 F
ENDBRANCH  23  24
ENDBRANCH  22  23
ENDBRANCH  19  22
ENDBRANCH  17  19
ENDBRANCH   1  17
BRANCH   1  26
HETATM   26  O3  UNL     1      16.095  17.555   3.791  1.00  0.00    -0.331 OA
ATOM     27  H3  UNL     1      16.064  17.632   2.845  1.00  0.00     0.221 HD
ENDBRANCH   1  26
TORSDOF 9
ENDMDL