MODEL 5
REMARK VINA RESULT: -8.418884546      1.034      1.516
REMARK  9 active torsions:
REMARK  status: ('A' for Active; 'I' for Inactive)
REMARK    1  A    between atoms: N1_2  and  C2_3
REMARK    2  A    between atoms: N1_2  and  C15_28
REMARK    3  A    between atoms: C2_3  and  C3_4
REMARK    4  A    between atoms: C3_4  and  O1_5
REMARK    5  A    between atoms: C3_4  and  C4_7
REMARK    6  A    between atoms: C6_9  and  O2_10
REMARK    7  A    between atoms: N2_12  and  C7_13
REMARK    8  A    between atoms: C8_14  and  O3_15
REMARK    9  A    between atoms: C12_22  and  C13_23
ROOT
HETATM    1  C4  UNL     1      11.872  15.248   2.670  1.00  0.00    -0.008 A
HETATM    2  C5  UNL     1      11.163  16.181   3.301  1.00  0.00     0.067 A
HETATM    3  C6  UNL     1      12.064  16.897   4.107  1.00  0.00     0.146 A
HETATM    4  N2  UNL     1      13.271  16.386   3.942  1.00  0.00    -0.307 N
HETATM    5  C14 UNL     1      13.186  15.369   3.063  1.00  0.00     0.108 A
ENDROOT
BRANCH   4   6
HETATM    6  C7  UNL     1      14.488  16.801   4.582  1.00  0.00     0.038 C
HETATM    7  C8  UNL     1      15.693  16.195   3.986  1.00  0.00     0.170 C
HETATM    8  C9  UNL     1      16.979  16.615   4.664  1.00  0.00     0.116 C
HETATM    9  C10 UNL     1      16.860  17.616   5.736  1.00  0.00     0.247 C
HETATM   10  F1  UNL     1      17.926  17.373   6.628  1.00  0.00    -0.206 F
HETATM   11  F2  UNL     1      17.183  18.879   5.203  1.00  0.00    -0.206 F
HETATM   12  C11 UNL     1      15.616  17.732   6.505  1.00  0.00     0.098 C
HETATM   13  C12 UNL     1      14.455  16.871   6.065  1.00  0.00     0.148 C
BRANCH   7  14
HETATM   14  O3  UNL     1      15.701  14.803   3.921  1.00  0.00    -0.390 OA
ATOM     15  H3  UNL     1      16.084  14.429   3.137  1.00  0.00     0.210 HD
ENDBRANCH   7  14
BRANCH  13  16
HETATM   16  C13 UNL     1      14.438  15.642   6.869  1.00  0.00     0.396 C
HETATM   17  F3  UNL     1      13.603  15.861   7.997  1.00  0.00    -0.170 F
HETATM   18  F4  UNL     1      13.897  14.527   6.269  1.00  0.00    -0.170 F
HETATM   19  F5  UNL     1      15.641  15.229   7.402  1.00  0.00    -0.170 F
ENDBRANCH  13  16
ENDBRANCH   4   6
BRANCH   3  20
HETATM   20  O2  UNL     1      11.581  17.958   4.900  1.00  0.00    -0.346 OA
ATOM     21  H2  UNL     1      11.559  17.857   5.844  1.00  0.00     0.219 HD
ENDBRANCH   3  20
BRANCH   1  22
HETATM   22  C3  UNL     1      11.389  14.222   1.689  1.00  0.00     0.181 C
BRANCH  22  23
HETATM   23  C2  UNL     1      12.370  13.105   1.583  1.00  0.00     0.309 C
BRANCH  23  24
HETATM   24  N1  UNL     1      12.029  11.971   2.388  1.00  0.00     0.091 N
HETATM   25  C1  UNL     1      11.249  11.049   1.551  1.00  0.00     0.310 C
BRANCH  24  26
HETATM   26  C15 UNL     1      13.251  11.329   2.828  1.00  0.00     0.222 C
HETATM   27  C16 UNL     1      13.052   9.849   2.791  1.00  0.00     0.036 C
HETATM   28  C17 UNL     1      14.121   9.087   3.538  1.00  0.00     0.002 C
HETATM   29  C18 UNL     1      15.225  10.009   4.017  1.00  0.00     0.000 C
HETATM   30  C19 UNL     1      14.596  11.020   4.926  1.00  0.00     0.002 C
HETATM   31  C20 UNL     1      13.653  11.887   4.136  1.00  0.00     0.036 C
ENDBRANCH  24  26
ENDBRANCH  23  24
ENDBRANCH  22  23
BRANCH  22  32
HETATM   32  O1  UNL     1      11.272  14.879   0.436  1.00  0.00    -0.389 OA
ATOM     33  H1  UNL     1      12.134  14.993   0.052  1.00  0.00     0.210 HD
ENDBRANCH  22  32
ENDBRANCH   1  22
TORSDOF 9
ENDMDL