MODEL 4
REMARK VINA RESULT: -7.476675449      2.883      5.286
REMARK  8 active torsions:
REMARK  status: ('A' for Active; 'I' for Inactive)
REMARK    1  A    between atoms: C3_6  and  N3_7
REMARK    2  A    between atoms: C4_12  and  N5_13
REMARK    3  A    between atoms: N5_13  and  C5_15
REMARK    4  A    between atoms: C9_19  and  O1_20
REMARK    5  A    between atoms: O1_20  and  C10_21
REMARK    6  A    between atoms: C10_21  and  C11_22
REMARK    7  A    between atoms: C11_22  and  C12_24
REMARK    8  A    between atoms: C13_25  and  C14_26
ROOT
HETATM    1  N1  UNL     1      18.185  14.685   8.516  1.00  0.00    -0.188 NA
HETATM    2  C1  UNL     1      17.821  14.127   7.577  1.00  0.00     0.138 C
HETATM    3  C2  UNL     1      17.374  13.447   6.396  1.00  0.00     0.217 A
HETATM    4  N2  UNL     1      17.736  13.949   5.212  1.00  0.00    -0.166 N
ATOM      5  H2  UNL     1      18.312  14.790   5.175  1.00  0.00     0.186 HD
HETATM    6  C3  UNL     1      17.348  13.355   4.070  1.00  0.00     0.692 A
HETATM    7  N4  UNL     1      16.593  12.251   4.155  1.00  0.00    -0.022 N
ATOM      8  H4  UNL     1      16.297  11.798   3.291  1.00  0.00     0.203 HD
HETATM    9  C4  UNL     1      16.207  11.714   5.324  1.00  0.00     0.699 A
HETATM   10  N6  UNL     1      16.610  12.330   6.448  1.00  0.00    -0.165 N
ATOM     11  H6  UNL     1      16.337  11.951   7.355  1.00  0.00     0.186 HD
ENDROOT
BRANCH   6  12
HETATM   12  N3  UNL     1      17.710  13.856   2.915  1.00  0.00    -0.234 N
ATOM     13  H32 UNL     1      17.824  14.861   2.778  1.00  0.00     0.174 HD
ATOM     14  H31 UNL     1      17.884  13.238   2.122  1.00  0.00     0.174 HD
ENDBRANCH   6  12
BRANCH   9  15
HETATM   15  N5  UNL     1      15.484  10.656   5.359  1.00  0.00    -0.191 N
ATOM     16  H5  UNL     1      15.574  10.036   6.163  1.00  0.00     0.184 HD
BRANCH  15  17
HETATM   17  C5  UNL     1      14.565  10.304   4.338  1.00  0.00     0.051 A
HETATM   18  C6  UNL     1      14.740   9.116   3.661  1.00  0.00     0.030 A
HETATM   19  C7  UNL     1      13.849   8.773   2.671  1.00  0.00     0.005 A
HETATM   20  C8  UNL     1      12.816   9.606   2.378  1.00  0.00     0.037 A
HETATM   21  C9  UNL     1      12.593  10.822   3.035  1.00  0.00     0.071 A
HETATM   22  C15 UNL     1      13.491  11.147   4.018  1.00  0.00     0.066 A
BRANCH  21  23
HETATM   23  O1  UNL     1      11.538  11.550   2.648  1.00  0.00    -0.348 OA
BRANCH  23  24
HETATM   24  C10 UNL     1      11.223  12.302   1.550  1.00  0.00     0.217 C
BRANCH  24  25
HETATM   25  C11 UNL     1      12.082  13.474   1.225  1.00  0.00     0.217 C
HETATM   26  F1  UNL     1      11.369  14.230   0.274  1.00  0.00    -0.243 F
BRANCH  25  27
HETATM   27  C12 UNL     1      12.300  14.388   2.359  1.00  0.00     0.012 C
HETATM   28  C13 UNL     1      13.523  14.552   2.832  1.00  0.00     0.030 C
BRANCH  28  29
HETATM   29  C14 UNL     1      13.775  15.478   3.989  1.00  0.00     0.206 C
HETATM   30 CL1  UNL     1      13.890  14.472   5.448  1.00  0.00    -0.079 Cl
HETATM   31 CL2  UNL     1      15.275  16.384   3.761  1.00  0.00    -0.079 Cl
HETATM   32 CL3  UNL     1      12.375  16.577   4.072  1.00  0.00    -0.079 Cl
ENDBRANCH  28  29
ENDBRANCH  25  27
ENDBRANCH  24  25
ENDBRANCH  23  24
ENDBRANCH  21  23
ENDBRANCH  15  17
ENDBRANCH   9  15
TORSDOF 8
ENDMDL