MODEL 5
REMARK VINA RESULT: -7.739681634      3.671      6.172
REMARK  6 active torsions:
REMARK  status: ('A' for Active; 'I' for Inactive)
REMARK    1  A    between atoms: C2_3  and  O1_4
REMARK    2  A    between atoms: N2_10  and  C7_11
REMARK    3  A    between atoms: C11_20  and  C12_21
REMARK    4  A    between atoms: C15_24  and  O2_25
REMARK    5  A    between atoms: O2_25  and  C16_26
REMARK    6  A    between atoms: C16_26  and  C17_29
ROOT
HETATM    1  N1  UNL     1      15.379  14.158   1.086  1.00  0.00    -0.192 NA
HETATM    2  C1  UNL     1      14.283  14.037   1.410  1.00  0.00     0.121 C
HETATM    3  C2  UNL     1      12.907  13.862   1.807  1.00  0.00     0.230 C
HETATM    4  C3  UNL     1      12.338  15.201   2.311  1.00  0.00     0.063 A
HETATM    5  C4  UNL     1      12.480  15.623   3.700  1.00  0.00     0.017 A
HETATM    6  C5  UNL     1      11.304  14.805   3.331  1.00  0.00     0.014 A
HETATM    7  C6  UNL     1      11.430  13.308   3.556  1.00  0.00     0.132 C
HETATM    8  N2  UNL     1      12.707  12.961   2.892  1.00  0.00    -0.336 N
ENDROOT
BRANCH   3   9
HETATM    9  O1  UNL     1      12.130  13.571   0.683  1.00  0.00    -0.359 OA
ATOM     10  H1  UNL     1      11.216  13.515   0.936  1.00  0.00     0.213 HD
ENDBRANCH   3   9
BRANCH   8  11
HETATM   11  C7  UNL     1      13.532  11.909   3.345  1.00  0.00     0.049 A
HETATM   12  C8  UNL     1      13.369  10.644   2.742  1.00  0.00     0.047 A
HETATM   13  C9  UNL     1      14.129   9.579   3.129  1.00  0.00     0.092 A
HETATM   14  N3  UNL     1      15.046   9.726   4.096  1.00  0.00    -0.352 N
HETATM   15  C10 UNL     1      15.228  10.895   4.683  1.00  0.00     0.112 A
ATOM     16  H3  UNL     1      15.611   8.926   4.382  1.00  0.00     0.166 HD
HETATM   17  N4  UNL     1      16.110  11.033   5.612  1.00  0.00    -0.385 N
HETATM   18  C11 UNL     1      14.479  12.009   4.324  1.00  0.00     0.044 A
ATOM     19  H42 UNL     1      16.660  10.216   5.876  1.00  0.00     0.157 HD
ATOM     20  H41 UNL     1      16.250  11.936   6.066  1.00  0.00     0.157 HD
BRANCH  18  21
HETATM   21  C12 UNL     1      14.731  13.277   5.014  1.00  0.00    -0.020 A
HETATM   22  C13 UNL     1      15.629  14.161   4.506  1.00  0.00     0.015 A
HETATM   23  C14 UNL     1      15.887  15.372   5.115  1.00  0.00     0.038 A
HETATM   24  C15 UNL     1      15.215  15.695   6.272  1.00  0.00     0.075 A
HETATM   25  C18 UNL     1      14.298  14.809   6.804  1.00  0.00     0.038 A
HETATM   26  C19 UNL     1      14.054  13.583   6.165  1.00  0.00     0.015 A
BRANCH  24  27
HETATM   27  O2  UNL     1      15.447  16.891   6.901  1.00  0.00    -0.279 OA
BRANCH  27  28
HETATM   28  C16 UNL     1      14.742  18.078   6.784  1.00  0.00     0.418 C
HETATM   29  F1  UNL     1      13.933  18.066   5.637  1.00  0.00    -0.169 F
HETATM   30  F2  UNL     1      13.857  18.154   7.861  1.00  0.00    -0.169 F
BRANCH  28  31
HETATM   31  C17 UNL     1      15.566  19.330   6.804  1.00  0.00     0.455 C
HETATM   32  F3  UNL     1      14.771  20.417   6.405  1.00  0.00    -0.205 F
HETATM   33  F4  UNL     1      16.601  19.307   5.875  1.00  0.00    -0.205 F
ENDBRANCH  28  31
ENDBRANCH  27  28
ENDBRANCH  24  27
ENDBRANCH  18  21
ENDBRANCH   8  11
TORSDOF 6
ENDMDL