MODEL 5
REMARK VINA RESULT: -7.270414603      3.676      6.690
REMARK  6 active torsions:
REMARK  status: ('A' for Active; 'I' for Inactive)
REMARK    1  A    between atoms: C2_2  and  O1_3
REMARK    2  A    between atoms: O1_3  and  C3_4
REMARK    3  A    between atoms: C5_6  and  O2_7
REMARK    4  A    between atoms: C6_9  and  C7_10
REMARK    5  A    between atoms: C7_10  and  C14_22
REMARK    6  A    between atoms: N1_11  and  C8_13
ROOT
HETATM    1  C7  UNL     1      15.813  13.812   4.462  1.00  0.00     0.066 C
HETATM    2  N1  UNL     1      16.111  14.401   5.554  1.00  0.00    -0.356 N
ATOM      3  H1  UNL     1      16.681  13.878   6.220  1.00  0.00     0.166 HD
ENDROOT
BRANCH   1   4
HETATM    4  C6  UNL     1      14.981  14.563   3.477  1.00  0.00     0.205 C
HETATM    5  C5  UNL     1      15.775  15.382   2.515  1.00  0.00     0.158 C
HETATM    6  C4  UNL     1      15.258  15.028   1.155  1.00  0.00     0.095 C
HETATM    7  C3  UNL     1      14.033  14.241   1.466  1.00  0.00     0.263 C
HETATM    8  O3  UNL     1      14.208  13.718   2.729  1.00  0.00    -0.347 OA
BRANCH   5   9
HETATM    9  O2  UNL     1      17.122  15.039   2.615  1.00  0.00    -0.392 OA
ATOM     10  H2  UNL     1      17.557  15.611   3.237  1.00  0.00     0.210 HD
ENDBRANCH   5   9
BRANCH   7  11
HETATM   11  O1  UNL     1      12.912  15.004   1.326  1.00  0.00    -0.362 OA
BRANCH  11  12
HETATM   12  C2  UNL     1      11.725  14.379   1.629  1.00  0.00     0.166 C
HETATM   13  C1  UNL     1      11.452  13.274   0.639  1.00  0.00     0.033 C
ENDBRANCH  11  12
ENDBRANCH   7  11
ENDBRANCH   1   4
BRANCH   1  14
HETATM   14  C14 UNL     1      16.320  12.478   4.222  1.00  0.00     0.095 C
HETATM   15 CL3  UNL     1      17.937  12.236   3.571  1.00  0.00    -0.079 Cl
HETATM   16  C15 UNL     1      15.615  11.382   4.438  1.00  0.00     0.139 C
HETATM   17  N2  UNL     1      16.150  10.065   4.189  1.00  0.00    -0.087 NA
HETATM   18 CL4  UNL     1      13.971  11.409   5.045  1.00  0.00    -0.066 Cl
ENDBRANCH   1  14
BRANCH   2  19
HETATM   19  C8  UNL     1      15.730  15.697   5.926  1.00  0.00     0.035 A
HETATM   20  C9  UNL     1      16.516  16.764   5.549  1.00  0.00     0.056 A
HETATM   21  C10 UNL     1      16.170  18.057   5.899  1.00  0.00     0.076 A
HETATM   22 CL1  UNL     1      17.171  19.419   5.421  1.00  0.00    -0.081 Cl
HETATM   23  C11 UNL     1      15.015  18.307   6.641  1.00  0.00     0.159 A
HETATM   24  F1  UNL     1      14.653  19.570   6.998  1.00  0.00    -0.203 F
HETATM   25  C12 UNL     1      14.224  17.241   7.020  1.00  0.00     0.076 A
HETATM   26 CL2  UNL     1      12.762  17.523   7.957  1.00  0.00    -0.081 Cl
HETATM   27  C13 UNL     1      14.590  15.941   6.658  1.00  0.00     0.056 A
ENDBRANCH   2  19
TORSDOF 6
ENDMDL