MODEL 5
REMARK VINA RESULT: -7.821572370      1.305      1.411
REMARK  5 active torsions:
REMARK  status: ('A' for Active; 'I' for Inactive)
REMARK    1  A    between atoms: C4_8  and  C5_9
REMARK    2  A    between atoms: C4_8  and  C18_32
REMARK    3  A    between atoms: C9_13  and  C10_14
REMARK    4  A    between atoms: N2_16  and  C12_17
REMARK    5  A    between atoms: C12_17  and  C13_18
ROOT
HETATM    1  C5  UNL     1      13.992  13.191   3.139  1.00  0.00     0.006 A
HETATM    2  C6  UNL     1      14.785  12.431   3.861  1.00  0.00     0.034 A
HETATM    3  C7  UNL     1      16.170  12.503   4.374  1.00  0.00     0.017 C
HETATM    4  C8  UNL     1      16.773  11.369   4.775  1.00  0.00     0.032 C
HETATM    5  C9  UNL     1      16.055  10.125   4.752  1.00  0.00     0.062 C
HETATM    6  N4  UNL     1      14.786  10.054   4.413  1.00  0.00    -0.331 N
ATOM      7  H4  UNL     1      14.333   9.141   4.381  1.00  0.00     0.165 HD
HETATM    8  C16 UNL     1      14.039  11.189   4.096  1.00  0.00     0.284 A
HETATM    9  F3  UNL     1      13.475  11.470   5.505  1.00  0.00    -0.189 F
HETATM   10  N5  UNL     1      12.851  11.270   3.403  1.00  0.00    -0.343 N
ATOM     11  H5  UNL     1      12.152  10.528   3.346  1.00  0.00     0.164 HD
HETATM   12  C17 UNL     1      12.756  12.424   2.839  1.00  0.00     0.099 A
ENDROOT
BRANCH   1  13
HETATM   13  C4  UNL     1      14.259  14.505   2.559  1.00  0.00     0.141 C
HETATM   14  C3  UNL     1      12.874  15.200   2.477  1.00  0.00     0.210 C
HETATM   15  O1  UNL     1      12.393  15.330   3.787  1.00  0.00    -0.381 OA
HETATM   16  C2  UNL     1      12.966  16.492   4.300  1.00  0.00     0.243 C
HETATM   17  C1  UNL     1      14.440  16.332   4.215  1.00  0.00     0.096 C
HETATM   18  N1  UNL     1      15.173  17.078   4.961  1.00  0.00    -0.387 N
HETATM   19  N6  UNL     1      15.065  15.384   3.340  1.00  0.00    -0.358 N
ATOM     20  H12 UNL     1      14.728  17.752   5.583  1.00  0.00     0.157 HD
ATOM     21  H11 UNL     1      16.185  16.968   4.902  1.00  0.00     0.157 HD
ATOM     22  H6  UNL     1      16.083  15.338   3.278  1.00  0.00     0.162 HD
BRANCH  13  23
HETATM   23  C18 UNL     1      14.775  14.350   1.145  1.00  0.00     0.388 C
HETATM   24  F4  UNL     1      13.720  14.066   0.303  1.00  0.00    -0.211 F
HETATM   25  F5  UNL     1      15.415  15.476   0.709  1.00  0.00    -0.211 F
ENDBRANCH  13  23
ENDBRANCH   1  13
BRANCH   5  26
HETATM   26  C10 UNL     1      16.712   8.865   5.109  1.00  0.00     0.091 A
HETATM   27  C11 UNL     1      16.448   7.519   4.996  1.00  0.00     0.143 A
HETATM   28  N2  UNL     1      17.613   7.214   5.594  1.00  0.00    -0.300 N
HETATM   29  N3  UNL     1      17.860   8.505   5.699  1.00  0.00    -0.295 N
ATOM     30  H3  UNL     1      18.640   9.035   6.087  1.00  0.00     0.187 HD
BRANCH  28  31
HETATM   31  C12 UNL     1      18.258   5.966   5.943  1.00  0.00     0.159 C
BRANCH  31  32
HETATM   32  C13 UNL     1      19.555   5.914   5.196  1.00  0.00     0.083 A
HETATM   33  C14 UNL     1      20.797   5.565   6.037  1.00  0.00     0.091 A
HETATM   34  C15 UNL     1      20.185   4.542   5.107  1.00  0.00     0.249 A
HETATM   35  F1  UNL     1      19.492   3.472   5.678  1.00  0.00    -0.206 F
HETATM   36  F2  UNL     1      20.912   4.203   4.001  1.00  0.00    -0.206 F
ENDBRANCH  31  32
ENDBRANCH  28  31
ENDBRANCH   5  26
TORSDOF 5
ENDMDL