MODEL 2
REMARK VINA RESULT: -9.062772045      1.025      1.219
REMARK  8 active torsions:
REMARK  status: ('A' for Active; 'I' for Inactive)
REMARK    1  A    between atoms: C3_3  and  C4_4
REMARK    2  A    between atoms: C4_4  and  C5_6
REMARK    3  A    between atoms: C5_6  and  O2_7
REMARK    4  A    between atoms: C5_6  and  N1_9
REMARK    5  A    between atoms: N1_9  and  N2_11
REMARK    6  A    between atoms: C6_14  and  N4_15
REMARK    7  A    between atoms: N4_15  and  N5_17
REMARK    8  A    between atoms: C7_19  and  C8_20
ROOT
HETATM    1  C1  UNL     1      15.064  20.194  18.998  1.00  0.00     0.112 C
HETATM    2  C2  UNL     1      15.017  21.101  17.860  1.00  0.00    -0.103 C
HETATM    3  C3  UNL     1      14.977  21.839  16.884  1.00  0.00    -0.025 C
ENDROOT
BRANCH   3   4
HETATM    4  C4  UNL     1      14.928  22.685  15.708  1.00  0.00     0.251 C
HETATM    5  O1  UNL     1      15.660  23.724  15.631  1.00  0.00    -0.278 OA
BRANCH   4   6
HETATM    6  C5  UNL     1      14.010  22.300  14.609  1.00  0.00     0.319 C
BRANCH   6   7
HETATM    7  O2  UNL     1      14.762  21.383  13.813  1.00  0.00    -0.368 OA
ATOM      8  H2  UNL     1      14.380  20.533  13.998  1.00  0.00     0.212 HD
ENDBRANCH   6   7
BRANCH   6   9
HETATM    9  N1  UNL     1      13.788  23.426  13.745  1.00  0.00    -0.275 N
ATOM     10  H1  UNL     1      13.086  24.114  14.020  1.00  0.00     0.185 HD
BRANCH   9  11
HETATM   11  N2  UNL     1      14.481  23.634  12.544  1.00  0.00    -0.156 N
HETATM   12  N3  UNL     1      15.549  24.405  12.360  1.00  0.00    -0.259 N
HETATM   13  C6  UNL     1      15.973  24.388  11.091  1.00  0.00     0.163 A
ATOM     14  H3  UNL     1      15.993  24.948  13.100  1.00  0.00     0.191 HD
HETATM   15  C13 UNL     1      15.074  23.523  10.436  1.00  0.00     0.162 A
HETATM   16  C14 UNL     1      15.125  23.188   9.036  1.00  0.00     0.109 C
HETATM   17  C15 UNL     1      14.165  23.077  11.370  1.00  0.00     0.306 A
HETATM   18  N7  UNL     1      15.158  22.909   7.911  1.00  0.00    -0.191 NA
HETATM   19  O4  UNL     1      13.203  22.275  11.126  1.00  0.00    -0.263 OA
BRANCH  13  20
HETATM   20  N4  UNL     1      17.083  25.012  10.459  1.00  0.00    -0.283 N
ATOM     21  H4  UNL     1      17.728  24.453   9.900  1.00  0.00     0.188 HD
BRANCH  20  22
HETATM   22  N5  UNL     1      17.292  26.365  10.597  1.00  0.00    -0.309 N
HETATM   23  C7  UNL     1      17.369  27.262   9.705  1.00  0.00     0.119 C
ATOM     24  H5  UNL     1      17.402  26.694  11.556  1.00  0.00     0.186 HD
BRANCH  23  25
HETATM   25  C8  UNL     1      17.595  28.643  10.092  1.00  0.00    -0.004 A
HETATM   26  C9  UNL     1      18.783  29.313   9.772  1.00  0.00     0.020 A
HETATM   27  C10 UNL     1      18.990  30.626  10.135  1.00  0.00     0.075 A
HETATM   28  C11 UNL     1      18.031  31.323  10.825  1.00  0.00     0.245 A
HETATM   29  O3  UNL     1      18.207  32.524  11.160  1.00  0.00    -0.268 OA
HETATM   30  N6  UNL     1      16.887  30.681  11.132  1.00  0.00    -0.333 N
HETATM   31  C12 UNL     1      16.665  29.385  10.784  1.00  0.00     0.104 A
ATOM     32  H6  UNL     1      16.162  31.184  11.644  1.00  0.00     0.168 HD
ENDBRANCH  23  25
ENDBRANCH  20  22
ENDBRANCH  13  20
ENDBRANCH   9  11
ENDBRANCH   6   9
ENDBRANCH   4   6
ENDBRANCH   3   4
TORSDOF 8
ENDMDL