MODEL 5
REMARK VINA RESULT: -9.267271203      2.336      8.327
REMARK  9 active torsions:
REMARK  status: ('A' for Active; 'I' for Inactive)
REMARK    1  A    between atoms: N1_1  and  C1_5
REMARK    2  A    between atoms: C1_5  and  C2_6
REMARK    3  A    between atoms: C1_5  and  C7_19
REMARK    4  A    between atoms: C2_6  and  C3_7
REMARK    5  A    between atoms: C3_7  and  S1_8
REMARK    6  A    between atoms: S1_8  and  C4_9
REMARK    7  A    between atoms: C7_19  and  O2_20
REMARK    8  A    between atoms: C7_19  and  C8_22
REMARK       I    between atoms: C8_22  and  N5_24
REMARK    9  A    between atoms: N5_24  and  N6_25
ROOT
HETATM    1  C1  UNL     1      16.418  24.956   9.190  1.00  0.00     0.223 C
ENDROOT
BRANCH   1   2
HETATM    2  N1  UNL     1      15.123  25.177   8.615  1.00  0.00    -0.072 N
ATOM      3  H13 UNL     1      15.190  25.588   7.684  1.00  0.00     0.274 HD
ATOM      4  H12 UNL     1      14.667  24.300   8.365  1.00  0.00     0.274 HD
ATOM      5  H11 UNL     1      14.539  25.741   9.233  1.00  0.00     0.274 HD
ENDBRANCH   1   2
BRANCH   1   6
HETATM    6  C2  UNL     1      17.462  25.789   8.506  1.00  0.00     0.046 C
BRANCH   6   7
HETATM    7  C3  UNL     1      17.148  27.244   8.412  1.00  0.00     0.084 C
BRANCH   7   8
HETATM    8  S1  UNL     1      18.182  28.225   9.534  1.00  0.00    -0.093 SA
BRANCH   8   9
HETATM    9  C4  UNL     1      17.308  29.635  10.159  1.00  0.00     0.155 C
HETATM   10  N2  UNL     1      16.381  30.175   9.410  1.00  0.00    -0.277 N
HETATM   11  N3  UNL     1      15.666  31.287   9.860  1.00  0.00    -0.267 N
ATOM     12  H2  UNL     1      16.178  29.781   8.492  1.00  0.00     0.189 HD
HETATM   13  C5  UNL     1      15.971  31.810  11.142  1.00  0.00     0.253 C
ATOM     14  H3  UNL     1      14.943  31.712   9.279  1.00  0.00     0.190 HD
HETATM   15  O1  UNL     1      15.745  33.007  11.441  1.00  0.00    -0.270 OA
HETATM   16  C6  UNL     1      16.573  30.890  12.134  1.00  0.00     0.226 C
HETATM   17  N4  UNL     1      17.633  30.152  11.436  1.00  0.00    -0.361 N
ATOM     18  H4  UNL     1      18.556  30.018  11.851  1.00  0.00     0.162 HD
ENDBRANCH   8   9
ENDBRANCH   7   8
ENDBRANCH   6   7
ENDBRANCH   1   6
BRANCH   1  19
HETATM   19  C7  UNL     1      16.449  25.022  10.668  1.00  0.00     0.257 C
BRANCH  19  20
HETATM   20  O2  UNL     1      15.785  26.064  11.250  1.00  0.00    -0.383 OA
ATOM     21  H2  UNL     1      14.847  26.106  11.106  1.00  0.00     0.210 HD
ENDBRANCH  19  20
BRANCH  19  22
HETATM   22  C8  UNL     1      16.034  23.692  11.284  1.00  0.00     0.342 C
HETATM   23  O3  UNL     1      16.175  22.742  10.478  1.00  0.00    -0.252 OA
HETATM   24  N5  UNL     1      15.578  23.610  12.553  1.00  0.00    -0.284 NA
BRANCH  24  25
HETATM   25  N6  UNL     1      15.133  23.531  13.791  1.00  0.00    -0.233 N
HETATM   26  C9  UNL     1      15.077  22.589  14.643  1.00  0.00     0.084 C
HETATM   27  C10 UNL     1      15.493  21.168  14.603  1.00  0.00     0.064 C
HETATM   28  C13 UNL     1      14.521  22.756  15.987  1.00  0.00     0.174 C
HETATM   29  C11 UNL     1      16.104  21.043  16.007  1.00  0.00     0.014 C
HETATM   30  C12 UNL     1      15.008  21.653  16.857  1.00  0.00     0.085 C
HETATM   31  O4  UNL     1      13.750  23.703  16.322  1.00  0.00    -0.291 OA
ATOM     32  H6  UNL     1      14.754  24.411  14.139  1.00  0.00     0.202 HD
ENDBRANCH  24  25
ENDBRANCH  19  22
ENDBRANCH   1  19
TORSDOF 9
ENDMDL