MODEL 2
REMARK VINA RESULT: -7.157768453      2.030      3.163
REMARK  7 active torsions:
REMARK  status: ('A' for Active; 'I' for Inactive)
REMARK    1  A    between atoms: O1_2  and  C2_3
REMARK    2  A    between atoms: C6_9  and  C7_10
REMARK    3  A    between atoms: N2_11  and  N3_13
REMARK    4  A    between atoms: N3_13  and  C8_15
REMARK    5  A    between atoms: C9_18  and  N5_19
REMARK    6  A    between atoms: N5_19  and  C10_21
REMARK    7  A    between atoms: C13_27  and  N7_28
ROOT
HETATM    1  C8  UNL     1      16.674  25.423  10.031  1.00  0.00     0.701 A
HETATM    2  N4  UNL     1      16.584  25.075  11.340  1.00  0.00    -0.173 N
ATOM      3  H4  UNL     1      17.284  25.439  11.986  1.00  0.00     0.186 HD
HETATM    4  C9  UNL     1      15.624  24.276  11.825  1.00  0.00     0.157 A
HETATM    5  C13 UNL     1      14.699  23.803  10.912  1.00  0.00     0.215 A
HETATM    6  C14 UNL     1      14.757  24.138   9.555  1.00  0.00     0.296 A
HETATM    7  O4  UNL     1      13.884  23.676   8.764  1.00  0.00    -0.265 OA
HETATM    8  N8  UNL     1      15.755  24.942   9.179  1.00  0.00    -0.152 N
ATOM      9  H8  UNL     1      15.821  25.204   8.196  1.00  0.00     0.187 HD
ENDROOT
BRANCH   1  10
HETATM   10  N3  UNL     1      17.637  26.200   9.656  1.00  0.00    -0.132 N
ATOM     11  H3  UNL     1      18.254  25.897   8.902  1.00  0.00     0.205 HD
BRANCH  10  12
HETATM   12  N2  UNL     1      17.854  27.443  10.255  1.00  0.00    -0.297 N
HETATM   13  C7  UNL     1      17.903  28.485   9.498  1.00  0.00     0.122 C
ATOM     14  H2  UNL     1      17.971  27.524  11.265  1.00  0.00     0.186 HD
BRANCH  13  15
HETATM   15  C6  UNL     1      18.129  29.778  10.113  1.00  0.00     0.017 A
HETATM   16  C2  UNL     1      17.172  30.302  10.948  1.00  0.00     0.095 A
HETATM   17  C3  UNL     1      17.436  31.540  11.511  1.00  0.00     0.125 A
HETATM   18  N1  UNL     1      18.591  32.223  11.260  1.00  0.00    -0.373 N
HETATM   19  C4  UNL     1      19.521  31.713  10.450  1.00  0.00     0.088 A
ATOM     20  H1  UNL     1      18.745  33.132  11.696  1.00  0.00     0.164 HD
HETATM   21  C5  UNL     1      19.288  30.470   9.865  1.00  0.00     0.032 A
BRANCH  16  22
HETATM   22  O1  UNL     1      15.980  29.646  11.235  1.00  0.00    -0.354 OA
HETATM   23  C1  UNL     1      14.956  30.245  12.004  1.00  0.00     0.210 C
ENDBRANCH  16  22
ENDBRANCH  13  15
ENDBRANCH  10  12
ENDBRANCH   1  10
BRANCH   4  24
HETATM   24  N5  UNL     1      15.501  23.881  13.169  1.00  0.00    -0.346 N
ATOM     25  H5  UNL     1      15.027  24.497  13.829  1.00  0.00     0.163 HD
BRANCH  24  26
HETATM   26  C10 UNL     1      16.028  22.630  13.631  1.00  0.00     0.287 C
HETATM   27  C11 UNL     1      16.359  22.481  15.074  1.00  0.00     0.082 C
HETATM   28  C12 UNL     1      15.804  21.079  14.895  1.00  0.00     0.238 C
HETATM   29  N6  UNL     1      15.030  21.576  13.779  1.00  0.00    -0.054 N
ATOM     30  H62 UNL     1      14.041  21.800  13.885  1.00  0.00     0.279 HD
ATOM     31  H61 UNL     1      14.787  20.970  12.996  1.00  0.00     0.279 HD
ENDBRANCH  24  26
ENDBRANCH   4  24
BRANCH   5  32
HETATM   32  N7  UNL     1      13.667  22.959  11.365  1.00  0.00    -0.106 N
HETATM   33  O2  UNL     1      13.449  21.890  10.791  1.00  0.00    -0.531 OA
HETATM   34  O3  UNL     1      12.910  23.325  12.434  1.00  0.00    -0.531 OA
ENDBRANCH   5  32
TORSDOF 7
ENDMDL