MODEL 5
REMARK VINA RESULT: -6.067889528      1.783      2.737
REMARK  10 active torsions:
REMARK  status: ('A' for Active; 'I' for Inactive)
REMARK    1  A    between atoms: N1_1  and  C1_4
REMARK    2  A    between atoms: C2_7  and  C3_8
REMARK    3  A    between atoms: C3_8  and  C4_9
REMARK    4  A    between atoms: C3_8  and  C12_19
REMARK    5  A    between atoms: C4_9  and  O1_10
REMARK    6  A    between atoms: O1_10  and  C5_11
REMARK    7  A    between atoms: C5_11  and  C6_13
REMARK    8  A    between atoms: C12_19  and  O3_25
REMARK    9  A    between atoms: N3_20  and  N4_22
REMARK   10  A    between atoms: O3_25  and  C13_26
ROOT
HETATM    1  C3  UNL     1      17.097  26.171  10.426  1.00  0.00     0.137 C
ENDROOT
BRANCH   1   2
HETATM    2  C2  UNL     1      17.240  27.646  10.514  1.00  0.00     0.046 A
HETATM    3  N2  UNL     1      16.368  28.451  11.141  1.00  0.00    -0.195 N
HETATM    4  C1  UNL     1      16.532  29.798  11.202  1.00  0.00     0.678 A
ATOM      5  H2  UNL     1      15.551  28.036  11.590  1.00  0.00     0.184 HD
HETATM    6  N5  UNL     1      17.594  30.376  10.625  1.00  0.00    -0.156 N
HETATM    7  C15 UNL     1      18.516  29.640   9.976  1.00  0.00     0.261 A
ATOM      8  H5  UNL     1      17.705  31.388  10.679  1.00  0.00     0.187 HD
HETATM    9  C14 UNL     1      18.331  28.283   9.925  1.00  0.00     0.101 A
HETATM   10  O6  UNL     1      19.492  30.238   9.452  1.00  0.00    -0.268 OA
BRANCH   4  11
HETATM   11  N1  UNL     1      15.644  30.502  11.828  1.00  0.00    -0.234 N
ATOM     12  H12 UNL     1      15.650  30.575  12.845  1.00  0.00     0.174 HD
ATOM     13  H11 UNL     1      14.932  30.987  11.280  1.00  0.00     0.174 HD
ENDBRANCH   4  11
ENDBRANCH   1   2
BRANCH   1  14
HETATM   14  C4  UNL     1      15.963  25.662  11.282  1.00  0.00     0.198 C
BRANCH  14  15
HETATM   15  O1  UNL     1      16.195  24.402  11.826  1.00  0.00    -0.316 OA
BRANCH  15  16
HETATM   16  C5  UNL     1      15.134  23.664  12.331  1.00  0.00     0.293 C
HETATM   17  O2  UNL     1      14.216  23.356  11.523  1.00  0.00    -0.259 OA
BRANCH  16  18
HETATM   18  C6  UNL     1      15.045  23.242  13.715  1.00  0.00     0.039 A
HETATM   19  C7  UNL     1      16.200  22.998  14.414  1.00  0.00     0.017 A
HETATM   20  C8  UNL     1      16.149  22.591  15.740  1.00  0.00     0.001 A
HETATM   21  C9  UNL     1      14.942  22.433  16.353  1.00  0.00     0.000 A
HETATM   22  C10 UNL     1      13.789  22.676  15.655  1.00  0.00     0.001 A
HETATM   23  C11 UNL     1      13.843  23.084  14.322  1.00  0.00     0.017 A
ENDBRANCH  16  18
ENDBRANCH  15  16
ENDBRANCH  14  15
ENDBRANCH   1  14
BRANCH   1  24
HETATM   24  C12 UNL     1      16.869  25.723   9.030  1.00  0.00     0.156 C
HETATM   25  N3  UNL     1      16.678  26.599   8.110  1.00  0.00    -0.289 N
ATOM     26  H3  UNL     1      16.697  27.567   8.429  1.00  0.00     0.188 HD
BRANCH  25  27
HETATM   27  N4  UNL     1      16.453  26.436   6.772  1.00  0.00    -0.343 N
ATOM     28  H42 UNL     1      15.614  25.896   6.559  1.00  0.00     0.176 HD
ATOM     29  H41 UNL     1      16.989  26.768   5.970  1.00  0.00     0.176 HD
ENDBRANCH  25  27
BRANCH  24  30
HETATM   30  O3  UNL     1      16.828  24.409   8.571  1.00  0.00    -0.238 OA
BRANCH  30  31
HETATM   31  C13 UNL     1      15.595  23.722   8.566  1.00  0.00     0.339 C
HETATM   32  O4  UNL     1      15.517  22.473   8.668  1.00  0.00    -0.623 OA
HETATM   33  O5  UNL     1      14.447  24.462   8.447  1.00  0.00    -0.623 OA
ENDBRANCH  30  31
ENDBRANCH  24  30
ENDBRANCH   1  24
TORSDOF 10
ENDMDL