MODEL 3
REMARK VINA RESULT: -8.660285621      0.987      1.028
REMARK  11 active torsions:
REMARK  status: ('A' for Active; 'I' for Inactive)
REMARK    1  A    between atoms: O1_2  and  C2_3
REMARK    2  A    between atoms: C2_3  and  C3_5
REMARK    3  A    between atoms: C3_5  and  N1_6
REMARK    4  A    between atoms: N1_6  and  C4_8
REMARK    5  A    between atoms: C5_11  and  C6_12
REMARK    6  A    between atoms: C6_12  and  N3_13
REMARK    7  A    between atoms: N3_13  and  C7_15
REMARK    8  A    between atoms: C11_19  and  C12_20
REMARK    9  A    between atoms: C15_24  and  O4_25
REMARK   10  A    between atoms: O4_25  and  N4_26
REMARK   11  A    between atoms: C16_31  and  N6_32
ROOT
HETATM    1  C4  UNL     1      17.682  27.628   9.176  1.00  0.00     0.146 A
HETATM    2  N2  UNL     1      16.954  27.100  10.160  1.00  0.00    -0.338 N
ATOM      3  H2  UNL     1      16.676  27.709  10.930  1.00  0.00     0.167 HD
HETATM    4  C5  UNL     1      16.566  25.818  10.199  1.00  0.00     0.082 A
HETATM    5  C15 UNL     1      17.000  25.006   9.097  1.00  0.00     0.195 A
HETATM    6  N5  UNL     1      17.716  25.511   8.104  1.00  0.00    -0.317 N
ATOM      7  H5  UNL     1      17.999  24.904   7.335  1.00  0.00     0.169 HD
HETATM    8  C16 UNL     1      18.075  26.799   8.086  1.00  0.00     0.145 A
ENDROOT
BRANCH   4   9
HETATM    9  C6  UNL     1      15.874  25.080  11.260  1.00  0.00     0.181 C
BRANCH   9  10
HETATM   10  N3  UNL     1      16.535  23.949  11.838  1.00  0.00    -0.384 N
ATOM     11  H3  UNL     1      17.491  23.681  11.599  1.00  0.00     0.160 HD
BRANCH  10  12
HETATM   12  C7  UNL     1      15.699  23.197  12.825  1.00  0.00     0.029 A
HETATM   13  C8  UNL     1      14.367  23.086  12.525  1.00  0.00     0.029 A
HETATM   14  C9  UNL     1      13.504  22.431  13.393  1.00  0.00     0.003 A
HETATM   15  C10 UNL     1      14.022  21.904  14.553  1.00  0.00     0.015 A
HETATM   16  C11 UNL     1      15.360  22.005  14.861  1.00  0.00     0.011 A
HETATM   17  C14 UNL     1      16.185  22.675  13.961  1.00  0.00     0.044 A
BRANCH  16  18
HETATM   18  C12 UNL     1      15.831  21.328  16.071  1.00  0.00     0.155 C
HETATM   19  C13 UNL     1      15.066  21.500  17.328  1.00  0.00     0.096 C
HETATM   20  O3  UNL     1      16.846  20.602  16.025  1.00  0.00    -0.293 OA
ENDBRANCH  16  18
ENDBRANCH  10  12
ENDBRANCH   9  10
ENDBRANCH   4   9
BRANCH   5  21
HETATM   21  O4  UNL     1      16.611  23.677   9.170  1.00  0.00    -0.225 OA
BRANCH  21  22
HETATM   22  N4  UNL     1      15.544  23.068   8.704  1.00  0.00    -0.303 N
ATOM     23  H42 UNL     1      15.174  23.494   7.855  1.00  0.00     0.184 HD
ATOM     24  H41 UNL     1      15.038  22.253   9.050  1.00  0.00     0.184 HD
ENDBRANCH  21  22
ENDBRANCH   5  21
BRANCH   1  25
HETATM   25  N1  UNL     1      18.427  28.672   9.235  1.00  0.00    -0.364 N
ATOM     26  H1  UNL     1      18.908  28.937   8.375  1.00  0.00     0.161 HD
BRANCH  25  27
HETATM   27  C3  UNL     1      18.654  29.504  10.376  1.00  0.00     0.232 C
BRANCH  27  28
HETATM   28  C2  UNL     1      17.522  30.586  10.293  1.00  0.00     0.276 C
HETATM   29  O2  UNL     1      16.362  30.411  10.158  1.00  0.00    -0.263 OA
BRANCH  28  30
HETATM   30  O1  UNL     1      18.097  31.908  10.409  1.00  0.00    -0.325 OA
HETATM   31  C1  UNL     1      17.730  32.645  11.590  1.00  0.00     0.213 C
ENDBRANCH  28  30
ENDBRANCH  27  28
ENDBRANCH  25  27
ENDBRANCH   1  25
BRANCH   8  32
HETATM   32  N6  UNL     1      18.727  27.300   7.120  1.00  0.00    -0.382 N
ATOM     33  H62 UNL     1      18.752  26.860   6.200  1.00  0.00     0.157 HD
ATOM     34  H61 UNL     1      19.227  28.180   7.250  1.00  0.00     0.157 HD
ENDBRANCH   8  32
TORSDOF 11
ENDMDL