MODEL 4
REMARK VINA RESULT: -7.633050134      3.008      8.284
REMARK  8 active torsions:
REMARK  status: ('A' for Active; 'I' for Inactive)
REMARK       I    between atoms: C1_2  and  N1_3
REMARK    1  A    between atoms: C1_2  and  C8_16
REMARK    2  A    between atoms: N1_3  and  N2_5
REMARK    3  A    between atoms: N2_5  and  C2_7
REMARK    4  A    between atoms: C5_10  and  N3_11
REMARK    5  A    between atoms: C8_16  and  O4_17
REMARK    6  A    between atoms: C8_16  and  C9_19
REMARK    7  A    between atoms: C9_19  and  C10_20
REMARK    8  A    between atoms: C10_20  and  O5_21
ROOT
HETATM    1  O1  UNL     1      15.981  26.305   7.413  1.00  0.00    -0.269 OA
HETATM    2  C1  UNL     1      16.974  26.347   8.226  1.00  0.00     0.265 C
HETATM    3  N1  UNL     1      17.244  25.265   9.084  1.00  0.00    -0.267 N
ATOM      4  H1  UNL     1      18.025  25.275   9.739  1.00  0.00     0.190 HD
ENDROOT
BRANCH   2   5
HETATM    5  C8  UNL     1      17.811  27.569   8.217  1.00  0.00     0.215 C
BRANCH   5   6
HETATM    6  O4  UNL     1      18.319  27.911   6.988  1.00  0.00    -0.386 OA
ATOM      7  H4  UNL     1      19.101  28.451   7.015  1.00  0.00     0.210 HD
ENDBRANCH   5   6
BRANCH   5   8
HETATM    8  C9  UNL     1      17.042  28.704   8.833  1.00  0.00     0.097 C
BRANCH   8   9
HETATM    9  C10 UNL     1      17.217  28.722  10.334  1.00  0.00     0.201 C
HETATM   10  C11 UNL     1      16.600  30.010  10.863  1.00  0.00     0.172 C
HETATM   11  O6  UNL     1      15.669  29.926  11.639  1.00  0.00    -0.294 OA
HETATM   12  C12 UNL     1      17.104  31.325  10.452  1.00  0.00     0.102 C
HETATM   13  C13 UNL     1      18.557  31.364  10.129  1.00  0.00     0.130 C
HETATM   14  N4  UNL     1      19.252  30.129  10.329  1.00  0.00    -0.358 N
HETATM   15  C14 UNL     1      18.659  28.869  10.629  1.00  0.00     0.260 C
ATOM     16  H4  UNL     1      20.268  30.154  10.248  1.00  0.00     0.162 HD
HETATM   17  O7  UNL     1      19.275  27.914  11.109  1.00  0.00    -0.270 OA
BRANCH   9  18
HETATM   18  O5  UNL     1      16.591  27.657  10.904  1.00  0.00    -0.373 OA
ATOM     19  H5  UNL     1      17.088  27.332  11.646  1.00  0.00     0.211 HD
ENDBRANCH   9  18
ENDBRANCH   8   9
ENDBRANCH   5   8
ENDBRANCH   2   5
BRANCH   3  20
HETATM   20  N2  UNL     1      16.366  24.162   8.980  1.00  0.00    -0.298 N
ATOM     21  H2  UNL     1      16.254  23.649   8.106  1.00  0.00     0.187 HD
BRANCH  20  22
HETATM   22  C2  UNL     1      15.650  23.804  10.144  1.00  0.00     0.048 A
HETATM   23  C3  UNL     1      16.200  24.049  11.400  1.00  0.00     0.033 A
HETATM   24  C4  UNL     1      15.527  23.702  12.548  1.00  0.00     0.038 A
HETATM   25  C5  UNL     1      14.286  23.099  12.509  1.00  0.00     0.103 A
HETATM   26  C6  UNL     1      13.741  22.857  11.252  1.00  0.00     0.038 A
HETATM   27  C7  UNL     1      14.412  23.203  10.090  1.00  0.00     0.033 A
BRANCH  25  28
HETATM   28  N3  UNL     1      13.601  22.732  13.697  1.00  0.00    -0.116 N
HETATM   29  O2  UNL     1      12.772  21.809  13.728  1.00  0.00    -0.532 OA
HETATM   30  O3  UNL     1      13.853  23.402  14.863  1.00  0.00    -0.532 OA
ENDBRANCH  25  28
ENDBRANCH  20  22
ENDBRANCH   3  20
TORSDOF 8
ENDMDL