MODEL 1
REMARK VINA RESULT: -9.149349259      0.000      0.000
REMARK  10 active torsions:
REMARK  status: ('A' for Active; 'I' for Inactive)
REMARK    1  A    between atoms: C2_2  and  N1_3
REMARK    2  A    between atoms: C2_2  and  C6_21
REMARK    3  A    between atoms: N1_3  and  N2_5
REMARK    4  A    between atoms: N2_5  and  C3_7
REMARK    5  A    between atoms: C4_12  and  C5_13
REMARK       I    between atoms: C5_13  and  N5_15
REMARK    6  A    between atoms: N5_15  and  N6_17
REMARK       I    between atoms: C6_21  and  N7_23
REMARK    7  A    between atoms: N7_23  and  N8_25
REMARK    8  A    between atoms: N8_25  and  C7_26
REMARK    9  A    between atoms: C7_26  and  C8_27
REMARK   10  A    between atoms: C8_27  and  C9_29
ROOT
HETATM    1  N1  UNL     1      17.463  24.591   9.275  1.00  0.00    -0.298 N
ATOM      2  H1  UNL     1      18.325  24.261   9.709  1.00  0.00     0.187 HD
ENDROOT
BRANCH   1   3
HETATM    3  C2  UNL     1      16.355  24.095   9.677  1.00  0.00     0.090 C
HETATM    4  C1  UNL     1      15.443  23.431   8.703  1.00  0.00     0.076 C
BRANCH   3   5
HETATM    5  C6  UNL     1      16.014  24.194  11.090  1.00  0.00     0.280 C
HETATM    6  O2  UNL     1      15.571  25.269  11.594  1.00  0.00    -0.265 OA
HETATM    7  N7  UNL     1      16.177  23.062  11.934  1.00  0.00    -0.268 N
ATOM      8  H7  UNL     1      16.534  22.202  11.518  1.00  0.00     0.185 HD
BRANCH   7   9
HETATM    9  N8  UNL     1      15.884  23.054  13.279  1.00  0.00    -0.131 NA
BRANCH   9  10
HETATM   10  C7  UNL     1      14.824  22.134  13.629  1.00  0.00     0.214 C
BRANCH  10  11
HETATM   11  C8  UNL     1      15.197  21.397  14.863  1.00  0.00     0.150 C
HETATM   12  O3  UNL     1      15.609  20.234  14.785  1.00  0.00    -0.296 OA
BRANCH  11  13
HETATM   13  C9  UNL     1      15.092  22.021  16.210  1.00  0.00     0.011 C
HETATM   14  C10 UNL     1      15.157  20.928  17.281  1.00  0.00     0.022 C
HETATM   15  C11 UNL     1      13.795  22.792  16.347  1.00  0.00     0.022 C
HETATM   16  C12 UNL     1      16.237  22.955  16.453  1.00  0.00     0.022 C
ENDBRANCH  11  13
ENDBRANCH  10  11
ENDBRANCH   9  10
ENDBRANCH   7   9
ENDBRANCH   3   5
ENDBRANCH   1   3
BRANCH   1  17
HETATM   17  N2  UNL     1      17.558  25.556   8.280  1.00  0.00    -0.278 N
ATOM     18  H2  UNL     1      17.696  25.308   7.300  1.00  0.00     0.189 HD
BRANCH  17  19
HETATM   19  C3  UNL     1      17.458  26.807   8.670  1.00  0.00     0.180 A
HETATM   20  N3  UNL     1      16.917  27.828   8.007  1.00  0.00    -0.277 N
HETATM   21  N4  UNL     1      16.915  28.979   8.554  1.00  0.00    -0.287 N
ATOM     22  H3  UNL     1      16.511  27.692   7.080  1.00  0.00     0.189 HD
HETATM   23  C4  UNL     1      17.440  29.147   9.755  1.00  0.00     0.162 A
ATOM     24  H4  UNL     1      16.506  29.774   8.064  1.00  0.00     0.188 HD
HETATM   25  S1  UNL     1      17.967  27.563  10.117  1.00  0.00    -0.026 SA
BRANCH  23  26
HETATM   26  C5  UNL     1      17.535  30.388  10.556  1.00  0.00     0.294 C
HETATM   27  O1  UNL     1      18.463  31.179  10.317  1.00  0.00    -0.264 OA
HETATM   28  N5  UNL     1      16.551  30.585  11.549  1.00  0.00    -0.271 N
ATOM     29  H5  UNL     1      15.814  29.895  11.695  1.00  0.00     0.189 HD
BRANCH  28  30
HETATM   30  N6  UNL     1      16.607  31.741  12.324  1.00  0.00    -0.342 N
ATOM     31  H62 UNL     1      16.008  32.534  12.094  1.00  0.00     0.176 HD
ATOM     32  H61 UNL     1      17.252  31.769  13.114  1.00  0.00     0.176 HD
ENDBRANCH  28  30
ENDBRANCH  23  26
ENDBRANCH  17  19
ENDBRANCH   1  17
TORSDOF 10
ENDMDL