MODEL 1
REMARK VINA RESULT: -9.850041395      0.000      0.000
REMARK  10 active torsions:
REMARK  status: ('A' for Active; 'I' for Inactive)
REMARK    1  A    between atoms: O1_3  and  C2_4
REMARK    2  A    between atoms: C2_4  and  C3_5
REMARK    3  A    between atoms: C3_5  and  C4_7
REMARK    4  A    between atoms: C4_7  and  O3_8
REMARK    5  A    between atoms: C4_7  and  N2_10
REMARK    6  A    between atoms: N2_10  and  C5_12
REMARK    7  A    between atoms: C7_14  and  O4_15
REMARK    8  A    between atoms: C8_19  and  N4_20
REMARK    9  A    between atoms: N4_20  and  C9_22
REMARK   10  A    between atoms: C12_25  and  N5_26
ROOT
HETATM    1  N1  UNL     1      14.359  33.036  10.803  1.00  0.00    -0.164 NA
HETATM    2  C1  UNL     1      15.510  33.028  10.753  1.00  0.00     0.228 C
HETATM    3  O1  UNL     1      16.869  33.036  10.687  1.00  0.00    -0.276 OA
ENDROOT
BRANCH   3   4
HETATM    4  C2  UNL     1      17.706  32.188  11.441  1.00  0.00     0.272 C
BRANCH   4   5
HETATM    5  C3  UNL     1      17.098  30.854  11.540  1.00  0.00     0.199 C
HETATM    6  O2  UNL     1      16.723  30.424  12.603  1.00  0.00    -0.291 OA
BRANCH   5   7
HETATM    7  C4  UNL     1      16.952  30.039  10.298  1.00  0.00     0.292 C
BRANCH   7   8
HETATM    8  O3  UNL     1      15.825  30.371   9.585  1.00  0.00    -0.369 OA
ATOM      9  H3  UNL     1      15.659  29.767   8.870  1.00  0.00     0.212 HD
ENDBRANCH   7   8
BRANCH   7  10
HETATM   10  N2  UNL     1      17.064  28.623  10.581  1.00  0.00    -0.343 N
ATOM     11  H2  UNL     1      16.938  28.313  11.545  1.00  0.00     0.164 HD
BRANCH  10  12
HETATM   12  C5  UNL     1      17.312  27.739   9.690  1.00  0.00     0.123 A
HETATM   13  C6  UNL     1      17.870  28.129   8.494  1.00  0.00     0.105 A
HETATM   14  C7  UNL     1      18.132  27.143   7.537  1.00  0.00     0.158 A
HETATM   15  N3  UNL     1      17.818  25.877   7.856  1.00  0.00    -0.170 N
HETATM   16  C8  UNL     1      17.276  25.486   9.014  1.00  0.00     0.686 A
ATOM     17  H3  UNL     1      18.009  25.156   7.159  1.00  0.00     0.186 HD
HETATM   18  N6  UNL     1      17.025  26.452   9.940  1.00  0.00    -0.176 N
ATOM     19  H6  UNL     1      16.612  26.194  10.836  1.00  0.00     0.186 HD
BRANCH  14  20
HETATM   20  O4  UNL     1      18.692  27.458   6.311  1.00  0.00    -0.346 OA
ATOM     21  H4  UNL     1      18.199  27.926   5.648  1.00  0.00     0.219 HD
ENDBRANCH  14  20
BRANCH  16  22
HETATM   22  N4  UNL     1      16.986  24.270   9.294  1.00  0.00    -0.192 N
ATOM     23  H4  UNL     1      17.382  23.531   8.714  1.00  0.00     0.184 HD
BRANCH  22  24
HETATM   24  C9  UNL     1      16.137  23.902  10.375  1.00  0.00     0.049 A
HETATM   25  C10 UNL     1      14.795  23.640  10.185  1.00  0.00     0.032 A
HETATM   26  C11 UNL     1      13.960  23.282  11.223  1.00  0.00     0.038 A
HETATM   27  C12 UNL     1      14.432  23.167  12.514  1.00  0.00     0.103 A
HETATM   28  C13 UNL     1      15.772  23.428  12.711  1.00  0.00     0.038 A
HETATM   29  C14 UNL     1      16.601  23.786  11.670  1.00  0.00     0.032 A
BRANCH  27  30
HETATM   30  N5  UNL     1      13.583  22.799  13.601  1.00  0.00    -0.116 N
HETATM   31  O5  UNL     1      12.811  21.832  13.447  1.00  0.00    -0.532 OA
HETATM   32  O6  UNL     1      13.567  23.439  14.791  1.00  0.00    -0.532 OA
ENDBRANCH  27  30
ENDBRANCH  22  24
ENDBRANCH  16  22
ENDBRANCH  10  12
ENDBRANCH   7  10
ENDBRANCH   5   7
ENDBRANCH   4   5
ENDBRANCH   3   4
TORSDOF 10
ENDMDL