MODEL 5
REMARK VINA RESULT: -7.293463307      1.885      8.756
REMARK  8 active torsions:
REMARK  status: ('A' for Active; 'I' for Inactive)
REMARK    1  A    between atoms: C2_2  and  O1_3
REMARK    2  A    between atoms: O1_3  and  C3_4
REMARK       I    between atoms: C3_4  and  N1_6
REMARK    3  A    between atoms: N1_6  and  N2_8
REMARK       I    between atoms: N2_8  and  C4_10
REMARK    4  A    between atoms: C4_10  and  C5_12
REMARK    5  A    between atoms: C5_12  and  S1_13
REMARK    6  A    between atoms: S1_13  and  C6_14
REMARK    7  A    between atoms: C8_19  and  O5_20
REMARK    8  A    between atoms: C9_22  and  C10_23
REMARK       I    between atoms: C10_23  and  N4_25
ROOT
HETATM    1  C6  UNL     1      14.485  22.799  13.235  1.00  0.00     0.148 A
HETATM    2  N3  UNL     1      13.663  23.478  14.091  1.00  0.00    -0.301 N
ATOM      3  H3  UNL     1      12.981  24.142  13.725  1.00  0.00     0.171 HD
HETATM    4  C7  UNL     1      13.754  23.272  15.400  1.00  0.00     0.283 A
HETATM    5  O4  UNL     1      13.001  23.894  16.230  1.00  0.00    -0.265 OA
HETATM    6  C8  UNL     1      14.667  22.376  15.947  1.00  0.00     0.167 A
HETATM    7  C9  UNL     1      15.499  21.687  15.096  1.00  0.00     0.141 A
HETATM    8  N5  UNL     1      15.362  21.941  13.759  1.00  0.00    -0.330 N
ATOM      9  H5  UNL     1      15.975  21.440  13.117  1.00  0.00     0.168 HD
ENDROOT
BRANCH   1  10
HETATM   10  S1  UNL     1      14.274  23.032  11.476  1.00  0.00    -0.084 SA
BRANCH  10  11
HETATM   11  C5  UNL     1      15.790  23.444  10.659  1.00  0.00     0.186 C
BRANCH  11  12
HETATM   12  C4  UNL     1      16.053  24.925  10.814  1.00  0.00     0.245 C
HETATM   13  N2  UNL     1      17.239  25.363  10.188  1.00  0.00    -0.265 N
ATOM     14  H2  UNL     1      17.810  24.672   9.701  1.00  0.00     0.190 HD
HETATM   15  O3  UNL     1      15.256  25.614  11.452  1.00  0.00    -0.271 OA
BRANCH  13  16
HETATM   16  N1  UNL     1      17.668  26.673  10.196  1.00  0.00    -0.243 N
HETATM   17  C3  UNL     1      17.546  27.488   9.019  1.00  0.00     0.379 C
HETATM   18  O2  UNL     1      17.033  26.980   7.962  1.00  0.00    -0.237 OA
ATOM     19  H1  UNL     1      18.076  27.066  11.044  1.00  0.00     0.192 HD
BRANCH  17  20
HETATM   20  O1  UNL     1      17.942  28.800   8.907  1.00  0.00    -0.303 OA
BRANCH  20  21
HETATM   21  C2  UNL     1      18.645  29.473   9.942  1.00  0.00     0.176 C
HETATM   22  C1  UNL     1      17.945  30.701  10.452  1.00  0.00     0.034 C
ENDBRANCH  20  21
ENDBRANCH  17  20
ENDBRANCH  13  16
ENDBRANCH  11  12
ENDBRANCH  10  11
ENDBRANCH   1  10
BRANCH   7  23
HETATM   23  C10 UNL     1      16.432  20.669  15.548  1.00  0.00     0.270 C
HETATM   24  O6  UNL     1      17.653  21.053  15.634  1.00  0.00    -0.266 OA
HETATM   25  N4  UNL     1      16.128  19.350  15.878  1.00  0.00    -0.360 N
HETATM   26  C11 UNL     1      17.271  18.487  16.298  1.00  0.00     0.149 C
ATOM     27  H4  UNL     1      15.174  18.991  15.835  1.00  0.00     0.162 HD
ENDBRANCH   7  23
BRANCH   6  28
HETATM   28  O5  UNL     1      14.701  22.216  17.318  1.00  0.00    -0.354 OA
ATOM     29  H5  UNL     1      15.539  22.062  17.740  1.00  0.00     0.218 HD
ENDBRANCH   6  28
TORSDOF 8
ENDMDL