MODEL 3
REMARK VINA RESULT: -4.322486287      2.963      3.706
REMARK  2 active torsions:
REMARK  status: ('A' for Active; 'I' for Inactive)
REMARK    1  A    between atoms: C2_2  and  C3_3
REMARK    2  A    between atoms: C3_3  and  O1_4
ROOT
HETATM    1  C3  UNL     1      -1.480   4.420  83.078  1.00  0.00     0.105 C
HETATM    2  C4  UNL     1      -0.892   5.777  82.760  1.00  0.00     0.314 C
HETATM    3  N1  UNL     1      -0.784   6.515  83.991  1.00  0.00     0.091 N
HETATM    4  C5  UNL     1       0.011   5.708  84.918  1.00  0.00     0.273 C
HETATM    5  C6  UNL     1      -0.840   4.596  85.495  1.00  0.00     0.038 C
HETATM    6  C7  UNL     1      -1.958   4.347  84.502  1.00  0.00     0.029 C
HETATM    7  C8  UNL     1      -2.917   5.526  84.695  1.00  0.00     0.038 C
HETATM    8  C9  UNL     1      -2.081   6.775  84.568  1.00  0.00     0.273 C
ENDROOT
BRANCH   1   9
HETATM    9  C2  UNL     1      -0.493   3.361  82.743  1.00  0.00     0.003 C
HETATM   10  C1  UNL     1      -0.825   2.150  82.347  1.00  0.00     0.010 C
ENDBRANCH   1   9
BRANCH   1  11
HETATM   11  O1  UNL     1      -2.591   4.246  82.255  1.00  0.00    -0.384 OA
ATOM     12  H1  UNL     1      -3.145   5.013  82.345  1.00  0.00     0.211 HD
ENDBRANCH   1  11
TORSDOF 2
ENDMDL