MODEL 1
REMARK VINA RESULT: -4.795923258      0.000      0.000
REMARK  2 active torsions:
REMARK  status: ('A' for Active; 'I' for Inactive)
REMARK    1  A    between atoms: N1_2  and  C2_3
REMARK    2  A    between atoms: N1_2  and  C6_10
ROOT
HETATM    1  C2  UNL     1      -1.553   4.558  85.061  1.00  0.00     0.012 C
HETATM    2  C3  UNL     1      -0.393   5.513  85.172  1.00  0.00     0.081 C
HETATM    3  C4  UNL     1      -0.159   5.833  83.691  1.00  0.00     0.238 C
HETATM    4  N2  UNL     1      -0.221   4.507  83.104  1.00  0.00    -0.070 N
ATOM      5  H21 UNL     1       0.618   3.940  83.225  1.00  0.00     0.277 HD
ATOM      6  H22 UNL     1      -0.207   4.483  82.085  1.00  0.00     0.277 HD
HETATM    7  C5  UNL     1      -1.441   3.961  83.726  1.00  0.00     0.284 C
ENDROOT
BRANCH   1   8
HETATM    8  N1  UNL     1      -1.975   3.861  86.171  1.00  0.00    -0.382 N
HETATM    9  C1  UNL     1      -1.574   2.462  86.148  1.00  0.00     0.150 C
BRANCH   8  10
HETATM   10  C6  UNL     1      -3.166   4.108  86.857  1.00  0.00     0.021 C
HETATM   11  C7  UNL     1      -3.725   5.512  86.784  1.00  0.00     0.037 C
HETATM   12  C8  UNL     1      -4.307   3.161  86.723  1.00  0.00     0.037 C
HETATM   13  C9  UNL     1      -2.794   4.010  88.370  1.00  0.00     0.037 C
ENDBRANCH   8  10
ENDBRANCH   1   8
TORSDOF 2
ENDMDL