MODEL 5
REMARK VINA RESULT: -4.446964696      2.297      3.590
REMARK  1 active torsions:
REMARK  status: ('A' for Active; 'I' for Inactive)
REMARK    1  A    between atoms: N1_2  and  C4_6
ROOT
HETATM    1  C1  UNL     1      -1.139   5.433  80.942  1.00  0.00     0.292 C
HETATM    2  N1  UNL     1      -1.142   4.212  81.767  1.00  0.00     0.017 N
HETATM    3  C2  UNL     1      -1.889   3.246  81.013  1.00  0.00     0.292 C
HETATM    4  C3  UNL     1       0.204   3.776  81.771  1.00  0.00     0.283 C
HETATM    5  N2  UNL     1       1.309   3.416  81.755  1.00  0.00    -0.165 NA
ENDROOT
BRANCH   2   6
HETATM    6  C4  UNL     1      -1.607   4.483  83.069  1.00  0.00     0.210 C
HETATM    7  C5  UNL     1      -1.295   5.887  83.567  1.00  0.00     0.062 C
HETATM    8  C6  UNL     1       0.106   5.977  84.130  1.00  0.00     0.234 C
HETATM    9  N3  UNL     1       0.109   5.226  85.363  1.00  0.00    -0.075 N
HETATM   10  C7  UNL     1      -0.927   4.250  85.454  1.00  0.00     0.234 C
ATOM     11  H32 UNL     1       1.020   4.795  85.516  1.00  0.00     0.277 HD
ATOM     12  H31 UNL     1       0.078   5.857  86.164  1.00  0.00     0.277 HD
HETATM   13  C8  UNL     1      -1.171   3.523  84.134  1.00  0.00     0.062 C
ENDBRANCH   2   6
TORSDOF 1
ENDMDL