MODEL 4
REMARK VINA RESULT: -4.963238703      2.829      4.007
REMARK  2 active torsions:
REMARK  status: ('A' for Active; 'I' for Inactive)
REMARK    1  A    between atoms: N1_5  and  C5_6
REMARK    2  A    between atoms: C9_10  and  O1_11
ROOT
HETATM    1  C1  UNL     1      -1.209   3.120  85.147  1.00  0.00     0.012 C
HETATM    2  C2  UNL     1      -1.222   3.598  84.045  1.00  0.00    -0.108 C
HETATM    3  C3  UNL     1      -1.229   4.192  82.699  1.00  0.00     0.121 C
HETATM    4  C4  UNL     1       0.045   4.865  82.409  1.00  0.00     0.292 C
HETATM    5  N1  UNL     1       0.970   4.267  81.509  1.00  0.00     0.089 N
HETATM    6  C7  UNL     1       0.751   2.858  81.315  1.00  0.00     0.275 C
HETATM    7  C8  UNL     1      -0.637   2.616  80.831  1.00  0.00     0.063 C
HETATM    8  C9  UNL     1      -1.699   3.195  81.702  1.00  0.00     0.137 C
ENDROOT
BRANCH   8   9
HETATM    9  O1  UNL     1      -2.687   3.747  80.871  1.00  0.00    -0.394 OA
ATOM     10  H1  UNL     1      -3.028   4.554  81.239  1.00  0.00     0.210 HD
ENDBRANCH   8   9
BRANCH   5  11
HETATM   11  C5  UNL     1       1.196   5.007  80.310  1.00  0.00     0.268 C
HETATM   12  C6  UNL     1       0.264   6.190  80.162  1.00  0.00     0.037 C
ENDBRANCH   5  11
TORSDOF 2
ENDMDL