MODEL 3
REMARK VINA RESULT: -4.673085388      0.999      2.065
REMARK  1 active torsions:
REMARK  status: ('A' for Active; 'I' for Inactive)
REMARK    1  A    between atoms: N1_2  and  C3_4
ROOT
HETATM    1  C3  UNL     1      -0.944   3.095  82.633  1.00  0.00     0.200 C
HETATM    2  C4  UNL     1      -1.990   3.710  81.750  1.00  0.00     0.067 C
HETATM    3  C5  UNL     1      -1.069   3.344  80.589  1.00  0.00    -0.000 C
HETATM    4  C6  UNL     1      -1.184   1.872  80.270  1.00  0.00     0.038 C
HETATM    5  C7  UNL     1      -0.383   1.270  81.396  1.00  0.00     0.189 C
HETATM    6  C8  UNL     1       0.824   2.207  81.403  1.00  0.00     0.042 C
HETATM    7  C9  UNL     1       0.058   3.475  81.599  1.00  0.00     0.048 C
HETATM    8  N2  UNL     1      -1.022   1.635  82.629  1.00  0.00    -0.044 N
ATOM      9  H21 UNL     1      -1.964   1.262  82.742  1.00  0.00     0.280 HD
ATOM     10  H22 UNL     1      -0.630   1.188  83.457  1.00  0.00     0.280 HD
ENDROOT
BRANCH   1  11
HETATM   11  N1  UNL     1      -0.787   3.583  83.946  1.00  0.00    -0.390 N
HETATM   12  C1  UNL     1      -0.935   4.975  84.158  1.00  0.00     0.145 C
HETATM   13  C2  UNL     1      -1.269   2.722  84.967  1.00  0.00     0.145 C
ENDBRANCH   1  11
TORSDOF 1
ENDMDL