MODEL 5
REMARK VINA RESULT: -5.026473726      2.632      4.437
REMARK  2 active torsions:
REMARK  status: ('A' for Active; 'I' for Inactive)
REMARK    1  A    between atoms: C3_3  and  N1_5
REMARK    2  A    between atoms: C7_8  and  O1_9
ROOT
HETATM    1  C1  UNL     1      -0.866   7.817  84.761  1.00  0.00     0.099 C
HETATM    2  C2  UNL     1      -1.303   6.815  84.217  1.00  0.00    -0.153 C
HETATM    3  C3  UNL     1      -1.803   5.610  83.556  1.00  0.00     0.284 C
HETATM    4  C4  UNL     1      -0.743   5.147  82.578  1.00  0.00     0.056 C
ENDROOT
BRANCH   3   5
HETATM    5  N1  UNL     1      -2.049   4.577  84.553  1.00  0.00     0.103 N
HETATM    6  C5  UNL     1      -3.059   5.046  85.465  1.00  0.00     0.276 C
HETATM    7  C6  UNL     1      -3.149   4.250  86.731  1.00  0.00     0.062 C
HETATM    8  C7  UNL     1      -2.348   2.962  86.588  1.00  0.00     0.121 C
HETATM    9  C8  UNL     1      -0.908   3.373  86.365  1.00  0.00     0.062 C
HETATM   10  C9  UNL     1      -0.787   4.298  85.197  1.00  0.00     0.276 C
BRANCH   8  11
HETATM   11  O1  UNL     1      -2.390   2.202  87.746  1.00  0.00    -0.395 OA
ATOM     12  H1  UNL     1      -1.863   1.415  87.668  1.00  0.00     0.210 HD
ENDBRANCH   8  11
ENDBRANCH   3   5
TORSDOF 2
ENDMDL