MODEL 4
REMARK VINA RESULT: -4.718583857      2.678      5.114
REMARK  2 active torsions:
REMARK  status: ('A' for Active; 'I' for Inactive)
REMARK    1  A    between atoms: N1_2  and  C2_4
REMARK    2  A    between atoms: N2_6  and  C4_8
ROOT
HETATM    1  C2  UNL     1      -1.496   3.972  84.919  1.00  0.00     0.068 C
HETATM    2  C3  UNL     1      -2.366   5.082  84.466  1.00  0.00     0.088 C
HETATM    3  N2  UNL     1      -0.950   3.212  84.068  1.00  0.00    -0.376 N
ATOM      4  H2  UNL     1      -0.364   2.468  84.447  1.00  0.00     0.161 HD
ENDROOT
BRANCH   3   5
HETATM    5  C4  UNL     1      -1.049   3.263  82.641  1.00  0.00     0.086 C
HETATM    6  C5  UNL     1      -1.013   1.835  82.121  1.00  0.00     0.051 C
HETATM    7  C6  UNL     1      -1.029   1.948  80.596  1.00  0.00     0.169 C
HETATM    8  O1  UNL     1       0.175   2.471  80.201  1.00  0.00    -0.391 OA
HETATM    9  C7  UNL     1       0.445   3.725  80.683  1.00  0.00     0.169 C
HETATM   10  C8  UNL     1       0.252   3.908  82.144  1.00  0.00     0.051 C
ENDBRANCH   3   5
BRANCH   1  11
HETATM   11  N1  UNL     1      -1.272   3.758  86.305  1.00  0.00    -0.385 N
HETATM   12  C1  UNL     1      -2.304   3.475  87.263  1.00  0.00     0.147 C
ATOM     13  H1  UNL     1      -0.312   3.809  86.643  1.00  0.00     0.160 HD
ENDBRANCH   1  11
TORSDOF 2
ENDMDL