MODEL 3
REMARK VINA RESULT: -4.832614463      2.314      3.717
REMARK  1 active torsions:
REMARK  status: ('A' for Active; 'I' for Inactive)
REMARK    1  A    between atoms: C2_2  and  N1_5
ROOT
HETATM    1  N1  UNL     1      -2.277   4.267  86.306  1.00  0.00    -0.397 N
HETATM    2  C5  UNL     1      -2.963   5.008  85.319  1.00  0.00     0.151 C
HETATM    3  C6  UNL     1      -2.057   4.916  84.110  1.00  0.00     0.205 C
HETATM    4  C7  UNL     1      -1.453   3.519  84.335  1.00  0.00     0.061 C
HETATM    5  C8  UNL     1      -1.048   3.824  85.792  1.00  0.00     0.107 C
HETATM    6  C9  UNL     1      -0.223   5.091  85.515  1.00  0.00     0.257 C
HETATM    7  N2  UNL     1      -0.875   5.725  84.383  1.00  0.00    -0.067 N
ATOM      8  H21 UNL     1      -1.080   6.713  84.529  1.00  0.00     0.277 HD
ATOM      9  H22 UNL     1      -0.266   5.846  83.574  1.00  0.00     0.277 HD
ENDROOT
BRANCH   1  10
HETATM   10  C2  UNL     1      -2.993   3.524  87.232  1.00  0.00     0.017 C
HETATM   11  C1  UNL     1      -3.106   4.298  88.550  1.00  0.00     0.037 C
HETATM   12  C3  UNL     1      -4.447   3.444  86.730  1.00  0.00     0.037 C
HETATM   13  C4  UNL     1      -2.538   2.140  87.523  1.00  0.00     0.037 C
ENDBRANCH   1  10
TORSDOF 1
ENDMDL