MODEL 4
REMARK VINA RESULT: -4.905117824      1.575      2.257
REMARK  1 active torsions:
REMARK  status: ('A' for Active; 'I' for Inactive)
REMARK    1  A    between atoms: N1_4  and  C4_5
ROOT
HETATM    1  C4  UNL     1      -1.535   4.549  84.579  1.00  0.00     0.226 C
HETATM    2  C5  UNL     1      -0.490   5.607  84.435  1.00  0.00     0.055 C
HETATM    3  C6  UNL     1      -0.165   5.887  83.011  1.00  0.00     0.115 C
HETATM    4  N2  UNL     1      -0.467   4.856  82.081  1.00  0.00    -0.421 N
ATOM      5  H2  UNL     1      -0.711   5.061  81.112  1.00  0.00     0.153 HD
HETATM    6  C7  UNL     1      -0.411   3.522  82.577  1.00  0.00     0.115 C
HETATM    7  C8  UNL     1      -1.245   3.288  83.812  1.00  0.00     0.055 C
ENDROOT
BRANCH   1   8
HETATM    8  N1  UNL     1      -1.893   4.205  85.917  1.00  0.00     0.093 N
HETATM    9  C3  UNL     1      -1.793   2.796  86.208  1.00  0.00     0.273 C
HETATM   10  C2  UNL     1      -2.756   2.544  87.346  1.00  0.00     0.032 C
HETATM   11  C1  UNL     1      -3.332   3.902  87.684  1.00  0.00     0.032 C
HETATM   12  C9  UNL     1      -3.208   4.620  86.331  1.00  0.00     0.273 C
ENDBRANCH   1   8
TORSDOF 1
ENDMDL