MODEL 1
REMARK VINA RESULT: -4.760375323      0.000      0.000
REMARK  3 active torsions:
REMARK  status: ('A' for Active; 'I' for Inactive)
REMARK    1  A    between atoms: N1_2  and  C3_4
REMARK    2  A    between atoms: C3_4  and  C4_5
REMARK    3  A    between atoms: C5_6  and  C6_7
ROOT
HETATM    1  C6  UNL     1      -1.839   4.047  85.938  1.00  0.00     0.092 C
HETATM    2  C7  UNL     1      -2.417   2.868  86.685  1.00  0.00     0.046 C
HETATM    3  C8  UNL     1      -3.487   3.486  87.520  1.00  0.00     0.233 C
HETATM    4  N2  UNL     1      -3.744   4.802  87.016  1.00  0.00    -0.074 N
ATOM      5  H21 UNL     1      -3.500   5.539  87.678  1.00  0.00     0.277 HD
ATOM      6  H22 UNL     1      -4.739   5.016  86.944  1.00  0.00     0.277 HD
HETATM    7  C9  UNL     1      -3.046   4.919  85.754  1.00  0.00     0.249 C
ENDROOT
BRANCH   1   8
HETATM    8  C5  UNL     1      -1.313   3.620  84.613  1.00  0.00    -0.098 C
HETATM    9  C4  UNL     1      -0.895   3.294  83.529  1.00  0.00    -0.076 C
BRANCH   9  10
HETATM   10  C3  UNL     1      -0.391   2.920  82.195  1.00  0.00     0.364 C
BRANCH  10  11
HETATM   11  N1  UNL     1      -1.220   1.832  81.737  1.00  0.00     0.090 N
HETATM   12  C1  UNL     1      -0.558   0.571  81.718  1.00  0.00     0.310 C
HETATM   13  C2  UNL     1      -1.699   2.152  80.419  1.00  0.00     0.310 C
ENDBRANCH  10  11
ENDBRANCH   9  10
ENDBRANCH   1   8
TORSDOF 3
ENDMDL