MODEL 2
REMARK VINA RESULT: -5.693129091      1.192      2.887
REMARK  0 active torsions:
REMARK  status: ('A' for Active; 'I' for Inactive)
ROOT
HETATM    1  C1  UNL     1      -0.914   1.440  84.060  1.00  0.00     0.032 C
HETATM    2  C2  UNL     1      -1.676   0.991  85.261  1.00  0.00     0.027 C
HETATM    3  C3  UNL     1      -1.839   2.015  86.324  1.00  0.00     0.086 C
HETATM    4  C4  UNL     1      -2.356   1.284  87.574  1.00  0.00     0.030 C
HETATM    5  C5  UNL     1      -3.867   1.418  87.343  1.00  0.00     0.046 C
HETATM    6  C6  UNL     1      -3.943   2.858  86.861  1.00  0.00     0.061 C
HETATM    7  N1  UNL     1      -2.754   3.031  86.136  1.00  0.00    -0.358 N
HETATM    8  C7  UNL     1      -2.799   3.766  84.950  1.00  0.00     0.351 C
HETATM    9  C8  UNL     1      -2.951   5.264  85.204  1.00  0.00     0.291 C
HETATM   10  N2  UNL     1      -2.230   5.929  84.154  1.00  0.00    -0.045 N
ATOM     11  H21 UNL     1      -1.607   6.658  84.500  1.00  0.00     0.279 HD
ATOM     12  H22 UNL     1      -2.826   6.523  83.578  1.00  0.00     0.279 HD
HETATM   13  C9  UNL     1      -1.538   4.914  83.389  1.00  0.00     0.505 C
HETATM   14  N3  UNL     1      -1.604   3.708  84.183  1.00  0.00     0.138 N
HETATM   15  C10 UNL     1      -1.693   2.509  83.332  1.00  0.00     0.277 C
ENDROOT
TORSDOF 0
ENDMDL