MODEL 1
REMARK VINA RESULT: -5.735245356      0.000      0.000
REMARK  2 active torsions:
REMARK  status: ('A' for Active; 'I' for Inactive)
REMARK    1  A    between atoms: C1_4  and  C2_5
REMARK    2  A    between atoms: C1_4  and  N2_9
ROOT
HETATM    1  N1  UNL     1      -2.054   3.019  84.236  1.00  0.00    -0.387 N
ATOM      2  H11 UNL     1      -2.167   3.429  83.310  1.00  0.00     0.157 HD
ATOM      3  H12 UNL     1      -2.427   3.446  85.084  1.00  0.00     0.157 HD
HETATM    4  C1  UNL     1      -1.404   1.909  84.298  1.00  0.00     0.102 C
ENDROOT
BRANCH   4   5
HETATM    5  C2  UNL     1      -1.239   1.308  85.652  1.00  0.00     0.190 C
HETATM    6  C3  UNL     1      -1.773   2.132  86.774  1.00  0.00     0.066 C
HETATM    7  C4  UNL     1      -2.422   0.836  87.222  1.00  0.00     0.171 C
HETATM    8  O1  UNL     1      -2.184   0.330  85.962  1.00  0.00    -0.378 OA
ENDBRANCH   4   5
BRANCH   4   9
HETATM    9  N2  UNL     1      -0.890   1.319  83.130  1.00  0.00    -0.369 N
HETATM   10  C5  UNL     1      -1.177  -0.038  82.701  1.00  0.00     0.124 C
HETATM   11  C6  UNL     1      -1.341   0.020  81.186  1.00  0.00     0.020 C
HETATM   12  C7  UNL     1       0.040   0.167  80.611  1.00  0.00     0.003 C
HETATM   13  C8  UNL     1       0.839   1.139  81.411  1.00  0.00     0.020 C
HETATM   14  C9  UNL     1      -0.006   2.068  82.253  1.00  0.00     0.124 C
ENDBRANCH   4   9
TORSDOF 2
ENDMDL