MODEL 1
REMARK VINA RESULT: -4.714615175      0.000      0.000
REMARK  0 active torsions:
REMARK  status: ('A' for Active; 'I' for Inactive)
ROOT
HETATM    1  C1  UNL     1      -1.034   0.972  83.717  1.00  0.00     0.066 C
HETATM    2  N1  UNL     1      -1.200  -0.015  82.746  1.00  0.00    -0.382 N
ATOM      3  H1  UNL     1      -1.977  -0.670  82.834  1.00  0.00     0.164 HD
HETATM    4  C2  UNL     1      -0.341  -0.135  81.667  1.00  0.00     0.065 C
HETATM    5  C3  UNL     1       0.045   1.127  80.919  1.00  0.00     0.031 C
HETATM    6  C4  UNL     1       1.365   1.590  81.437  1.00  0.00     0.040 C
HETATM    7  C5  UNL     1       1.527   3.041  81.678  1.00  0.00     0.273 C
HETATM    8  N2  UNL     1       0.274   3.707  81.969  1.00  0.00     0.089 N
HETATM    9  C6  UNL     1      -0.270   3.278  83.185  1.00  0.00     0.282 C
HETATM   10  C7  UNL     1      -1.413   2.351  83.178  1.00  0.00     0.053 C
HETATM   11  C8  UNL     1      -2.078   2.133  81.851  1.00  0.00     0.018 C
HETATM   12  C9  UNL     1      -1.025   2.126  80.786  1.00  0.00     0.023 C
HETATM   13  C10 UNL     1      -0.515   3.575  80.795  1.00  0.00     0.277 C
ENDROOT
TORSDOF 0
ENDMDL