MODEL 5
REMARK VINA RESULT: -5.218527922      3.167      4.616
REMARK  2 active torsions:
REMARK  status: ('A' for Active; 'I' for Inactive)
REMARK    1  A    between atoms: C3_5  and  O2_6
REMARK    2  A    between atoms: C3_5  and  C4_8
ROOT
HETATM    1  O1  UNL     1      -2.090   0.522  85.536  1.00  0.00    -0.255 OA
HETATM    2  S1  UNL     1      -0.960   1.781  85.404  1.00  0.00     0.050 S
HETATM    3  C1  UNL     1      -1.852   3.341  85.399  1.00  0.00     0.116 C
HETATM    4  C2  UNL     1      -2.269   3.042  83.989  1.00  0.00     0.065 C
HETATM    5  C3  UNL     1      -0.925   2.377  83.744  1.00  0.00     0.139 C
ENDROOT
BRANCH   5   6
HETATM    6  O2  UNL     1       0.122   3.271  83.555  1.00  0.00    -0.377 OA
ATOM      7  H2  UNL     1       0.573   3.101  82.736  1.00  0.00     0.211 HD
ENDBRANCH   5   6
BRANCH   5   8
HETATM    8  C4  UNL     1      -1.055   1.290  82.755  1.00  0.00     0.033 C
HETATM    9  C5  UNL     1       0.217   0.951  82.014  1.00  0.00     0.009 C
HETATM   10  C6  UNL     1      -0.337  -0.137  81.101  1.00  0.00     0.001 C
HETATM   11  C7  UNL     1      -1.625   0.478  80.631  1.00  0.00     0.001 C
HETATM   12  C8  UNL     1      -1.990   1.565  81.617  1.00  0.00     0.009 C
ENDBRANCH   5   8
TORSDOF 2
ENDMDL