MODEL 3
REMARK VINA RESULT: -5.409620751      1.001      1.294
REMARK  1 active torsions:
REMARK  status: ('A' for Active; 'I' for Inactive)
REMARK    1  A    between atoms: N1_5  and  C5_6
ROOT
HETATM    1  C1  UNL     1      -2.906   4.043  85.759  1.00  0.00     0.004 C
HETATM    2  C2  UNL     1      -2.767   2.573  86.174  1.00  0.00     0.035 C
HETATM    3  C3  UNL     1      -1.376   2.133  85.780  1.00  0.00     0.214 C
HETATM    4  C4  UNL     1      -1.347   0.980  84.856  1.00  0.00     0.305 C
HETATM    5  N1  UNL     1      -0.948   1.250  83.530  1.00  0.00     0.097 N
HETATM    6  C8  UNL     1      -1.286   2.546  83.017  1.00  0.00     0.305 C
HETATM    7  C9  UNL     1      -1.230   3.645  84.012  1.00  0.00     0.214 C
HETATM    8  C10 UNL     1      -2.603   4.166  84.284  1.00  0.00     0.035 C
HETATM    9  N2  UNL     1      -0.585   3.204  85.231  1.00  0.00    -0.063 N
ATOM     10  H21 UNL     1       0.391   2.945  85.091  1.00  0.00     0.278 HD
ATOM     11  H22 UNL     1      -0.429   3.963  85.894  1.00  0.00     0.278 HD
ENDROOT
BRANCH   5  12
HETATM   12  C5  UNL     1      -1.220   0.267  82.550  1.00  0.00     0.223 A
HETATM   13  C6  UNL     1      -0.384   0.009  81.370  1.00  0.00     0.038 A
HETATM   14  C7  UNL     1      -1.722   0.794  81.206  1.00  0.00     0.038 A
ENDBRANCH   5  12
TORSDOF 1
ENDMDL