MODEL 2
REMARK VINA RESULT: -5.332199768      1.369      4.627
REMARK  1 active torsions:
REMARK  status: ('A' for Active; 'I' for Inactive)
REMARK    1  A    between atoms: C4_4  and  N1_5
ROOT
HETATM    1  N1  UNL     1      -2.559   3.461  85.079  1.00  0.00    -0.406 N
HETATM    2  C5  UNL     1      -2.884   4.825  85.261  1.00  0.00     0.119 C
HETATM    3  C6  UNL     1      -2.343   5.642  84.115  1.00  0.00     0.047 C
HETATM    4  C7  UNL     1      -0.948   6.137  84.340  1.00  0.00     0.234 C
HETATM    5  N2  UNL     1       0.050   5.099  84.177  1.00  0.00    -0.074 N
ATOM      6  H21 UNL     1       1.003   5.456  84.251  1.00  0.00     0.277 HD
ATOM      7  H22 UNL     1       0.105   4.755  83.218  1.00  0.00     0.277 HD
HETATM    8  C8  UNL     1      -0.226   4.040  85.136  1.00  0.00     0.251 C
HETATM    9  C9  UNL     1      -1.286   3.167  84.537  1.00  0.00     0.144 C
ENDROOT
BRANCH   1  10
HETATM   10  C4  UNL     1      -3.037   2.543  86.029  1.00  0.00     0.079 C
HETATM   11  C3  UNL     1      -2.001   1.566  86.552  1.00  0.00     0.025 C
HETATM   12  C2  UNL     1      -2.851   0.819  87.567  1.00  0.00     0.002 C
HETATM   13  C1  UNL     1      -3.478   1.981  88.309  1.00  0.00     0.002 C
HETATM   14  C10 UNL     1      -3.622   3.101  87.281  1.00  0.00     0.025 C
ENDBRANCH   1  10
TORSDOF 1
ENDMDL