MODEL 4
REMARK VINA RESULT: -4.754160933      2.157      4.033
REMARK  1 active torsions:
REMARK  status: ('A' for Active; 'I' for Inactive)
REMARK    1  A    between atoms: C8_11  and  N2_12
ROOT
HETATM    1  C1  UNL     1      -2.289   2.309  86.254  1.00  0.00     0.001 C
HETATM    2  C2  UNL     1      -0.779   2.102  86.232  1.00  0.00     0.001 C
HETATM    3  C3  UNL     1      -0.326   3.436  85.641  1.00  0.00     0.013 C
HETATM    4  C4  UNL     1      -1.252   3.558  84.449  1.00  0.00     0.016 C
HETATM    5  C5  UNL     1      -2.550   3.081  84.991  1.00  0.00     0.013 C
HETATM    6  C6  UNL     1      -1.266   4.934  83.877  1.00  0.00     0.244 C
HETATM    7  N1  UNL     1      -0.380   4.952  82.747  1.00  0.00    -0.072 N
ATOM      8  H11 UNL     1       0.274   5.734  82.767  1.00  0.00     0.277 HD
ATOM      9  H12 UNL     1      -0.852   5.194  81.876  1.00  0.00     0.277 HD
HETATM   10  C7  UNL     1       0.274   3.676  82.694  1.00  0.00     0.268 C
HETATM   11  C8  UNL     1      -0.749   2.730  83.273  1.00  0.00     0.258 C
ENDROOT
BRANCH  11  12
HETATM   12  N2  UNL     1      -1.791   2.367  82.375  1.00  0.00     0.099 N
HETATM   13  C9  UNL     1      -1.713   1.025  81.836  1.00  0.00     0.303 A
HETATM   14  C10 UNL     1      -1.532   2.196  80.962  1.00  0.00     0.303 A
ENDBRANCH  11  12
TORSDOF 1
ENDMDL