MODEL 4
REMARK VINA RESULT: -5.234642693      2.377      3.193
REMARK  2 active torsions:
REMARK  status: ('A' for Active; 'I' for Inactive)
REMARK    1  A    between atoms: O1_1  and  C1_3
REMARK    2  A    between atoms: C1_3  and  C2_4
ROOT
HETATM    1  C2  UNL     1      -1.809   2.825  85.387  1.00  0.00     0.011 C
HETATM    2  C3  UNL     1      -3.110   3.488  85.605  1.00  0.00     0.008 C
HETATM    3  C4  UNL     1      -3.071   4.983  85.656  1.00  0.00     0.031 C
HETATM    4  C5  UNL     1      -2.749   5.635  84.351  1.00  0.00     0.273 C
HETATM    5  N1  UNL     1      -1.345   5.735  84.082  1.00  0.00     0.049 N
HETATM    6  C6  UNL     1      -0.986   6.653  83.047  1.00  0.00     0.302 C
HETATM    7  C7  UNL     1       0.210   6.867  83.958  1.00  0.00     0.238 C
HETATM    8  O2  UNL     1      -0.650   6.446  84.987  1.00  0.00    -0.200 OA
HETATM    9  C8  UNL     1      -0.801   4.404  83.838  1.00  0.00     0.274 C
HETATM   10  C9  UNL     1      -0.650   3.746  85.184  1.00  0.00     0.037 C
ENDROOT
BRANCH   1  11
HETATM   11  C1  UNL     1      -1.433   1.877  86.534  1.00  0.00     0.168 C
BRANCH  11  12
HETATM   12  O1  UNL     1      -0.070   1.625  86.549  1.00  0.00    -0.400 OA
ATOM     13  H1  UNL     1       0.369   2.148  87.209  1.00  0.00     0.209 HD
ENDBRANCH  11  12
ENDBRANCH   1  11
TORSDOF 2
ENDMDL