MODEL 1
REMARK VINA RESULT: -5.609514798      0.000      0.000
REMARK  1 active torsions:
REMARK  status: ('A' for Active; 'I' for Inactive)
REMARK    1  A    between atoms: N1_7  and  C7_8
ROOT
HETATM    1  C1  UNL     1       1.016   1.666  81.276  1.00  0.00     0.114 C
HETATM    2  C2  UNL     1       0.405   0.291  81.228  1.00  0.00     0.025 C
HETATM    3  C3  UNL     1      -1.072   0.461  81.614  1.00  0.00     0.017 C
HETATM    4  C4  UNL     1      -1.509   1.762  81.038  1.00  0.00     0.033 C
HETATM    5  C5  UNL     1      -0.973   2.860  81.966  1.00  0.00     0.105 C
HETATM    6  C6  UNL     1      -1.751   2.620  83.271  1.00  0.00     0.297 C
HETATM    7  N1  UNL     1      -1.128   1.464  83.864  1.00  0.00     0.095 N
HETATM    8  C10 UNL     1      -1.213   0.282  83.065  1.00  0.00     0.277 C
HETATM    9  N2  UNL     1       0.401   2.539  82.232  1.00  0.00    -0.415 N
ATOM     10  H2  UNL     1       0.902   2.906  83.041  1.00  0.00     0.153 HD
ENDROOT
BRANCH   7  11
HETATM   11  C7  UNL     1      -1.486   1.270  85.225  1.00  0.00     0.223 A
HETATM   12  C8  UNL     1      -0.766   1.984  86.336  1.00  0.00     0.038 A
HETATM   13  C9  UNL     1      -2.195   2.254  86.052  1.00  0.00     0.038 A
ENDBRANCH   7  11
TORSDOF 1
ENDMDL