MODEL 4
REMARK VINA RESULT: -5.295837580      1.871      4.249
REMARK  3 active torsions:
REMARK  status: ('A' for Active; 'I' for Inactive)
REMARK    1  A    between atoms: C2_2  and  C4_4
REMARK    2  A    between atoms: C4_4  and  C5_5
REMARK    3  A    between atoms: C4_4  and  N2_10
REMARK       I    between atoms: C5_5  and  N1_7
ROOT
HETATM    1  C4  UNL     1      -1.563   4.679  84.054  1.00  0.00     0.200 C
ENDROOT
BRANCH   1   2
HETATM    2  C2  UNL     1      -1.749   4.127  85.425  1.00  0.00    -0.062 C
HETATM    3  C1  UNL     1      -2.904   4.130  86.032  1.00  0.00     0.016 C
HETATM    4  C3  UNL     1      -0.582   3.521  86.138  1.00  0.00     0.045 C
ENDBRANCH   1   2
BRANCH   1   5
HETATM    5  C5  UNL     1      -1.558   3.628  83.069  1.00  0.00     0.244 C
HETATM    6  O1  UNL     1      -2.323   3.839  82.051  1.00  0.00    -0.271 OA
HETATM    7  N1  UNL     1      -0.863   2.411  83.020  1.00  0.00    -0.363 N
HETATM    8  C6  UNL     1      -0.979   1.458  81.935  1.00  0.00     0.149 C
ATOM      9  H1  UNL     1      -0.238   2.183  83.794  1.00  0.00     0.161 HD
ENDBRANCH   1   5
BRANCH   1  10
HETATM   10  N2  UNL     1      -0.538   5.644  84.054  1.00  0.00    -0.394 N
HETATM   11  C7  UNL     1      -0.657   6.869  84.709  1.00  0.00     0.145 C
HETATM   12  C8  UNL     1       0.138   7.893  83.865  1.00  0.00     0.251 C
HETATM   13  N3  UNL     1       1.536   7.532  83.885  1.00  0.00    -0.072 N
HETATM   14  C9  UNL     1       1.732   6.226  83.310  1.00  0.00     0.251 C
ATOM     15  H32 UNL     1       2.114   8.238  83.430  1.00  0.00     0.277 HD
ATOM     16  H31 UNL     1       1.929   7.595  84.825  1.00  0.00     0.277 HD
HETATM   17  C10 UNL     1       0.442   5.496  83.046  1.00  0.00     0.145 C
ENDBRANCH   1  10
TORSDOF 3
ENDMDL