MODEL 4
REMARK VINA RESULT: -6.134330262      1.912      5.261
REMARK  3 active torsions:
REMARK  status: ('A' for Active; 'I' for Inactive)
REMARK       I    between atoms: C2_2  and  N1_4
REMARK    1  A    between atoms: N1_4  and  C3_6
REMARK    2  A    between atoms: C3_6  and  C5_8
REMARK       I    between atoms: C5_8  and  N2_10
REMARK    3  A    between atoms: N2_10  and  C6_12
ROOT
HETATM    1  C5  UNL     1      -0.721   3.238  83.983  1.00  0.00     0.242 C
HETATM    2  O2  UNL     1      -0.120   4.168  84.581  1.00  0.00    -0.271 OA
HETATM    3  N2  UNL     1      -1.630   2.427  84.707  1.00  0.00    -0.333 N
ATOM      4  H2  UNL     1      -2.122   1.671  84.229  1.00  0.00     0.165 HD
ENDROOT
BRANCH   1   5
HETATM    5  C3  UNL     1      -0.489   2.987  82.532  1.00  0.00     0.172 C
HETATM    6  C4  UNL     1      -0.745   1.540  82.226  1.00  0.00     0.042 C
BRANCH   5   7
HETATM    7  N1  UNL     1       0.861   3.303  82.154  1.00  0.00    -0.348 N
HETATM    8  C2  UNL     1       1.198   4.037  80.993  1.00  0.00     0.214 C
HETATM    9  C1  UNL     1       2.617   4.312  80.689  1.00  0.00     0.117 C
HETATM   10  O1  UNL     1       0.263   4.436  80.251  1.00  0.00    -0.274 OA
ATOM     11  H1  UNL     1       1.617   2.979  82.757  1.00  0.00     0.163 HD
ENDBRANCH   5   7
ENDBRANCH   1   5
BRANCH   3  12
HETATM   12  C6  UNL     1      -1.863   2.653  86.094  1.00  0.00     0.223 C
HETATM   13  C7  UNL     1      -2.924   3.699  86.368  1.00  0.00     0.056 C
HETATM   14  C8  UNL     1      -3.138   3.458  87.870  1.00  0.00     0.031 C
HETATM   15  C9  UNL     1      -2.559   2.069  88.049  1.00  0.00     0.170 C
HETATM   16  O3  UNL     1      -2.434   1.541  86.743  1.00  0.00    -0.367 OA
ENDBRANCH   3  12
TORSDOF 3
ENDMDL