MODEL 5
REMARK VINA RESULT: -4.730439798      1.737      2.302
REMARK  4 active torsions:
REMARK  status: ('A' for Active; 'I' for Inactive)
REMARK    1  A    between atoms: C5_8  and  N2_9
REMARK    2  A    between atoms: N2_9  and  C6_11
REMARK    3  A    between atoms: C6_11  and  C7_13
REMARK    4  A    between atoms: C7_13  and  N3_14
ROOT
HETATM    1  C1  UNL     1      -3.320   5.255  86.411  1.00  0.00     0.014 C
HETATM    2  C2  UNL     1      -3.306   3.748  86.484  1.00  0.00     0.031 C
HETATM    3  C3  UNL     1      -3.080   3.267  87.896  1.00  0.00     0.238 C
HETATM    4  N1  UNL     1      -2.474   1.982  87.730  1.00  0.00    -0.073 N
ATOM      5  H11 UNL     1      -3.137   1.223  87.577  1.00  0.00     0.277 HD
ATOM      6  H12 UNL     1      -2.063   1.599  88.581  1.00  0.00     0.277 HD
HETATM    7  C4  UNL     1      -1.521   2.178  86.637  1.00  0.00     0.257 C
HETATM    8  C5  UNL     1      -2.191   3.127  85.695  1.00  0.00     0.113 C
ENDROOT
BRANCH   8   9
HETATM    9  N2  UNL     1      -1.342   4.064  85.047  1.00  0.00    -0.373 N
ATOM     10  H2  UNL     1      -0.988   4.863  85.572  1.00  0.00     0.161 HD
BRANCH   9  11
HETATM   11  C6  UNL     1      -0.979   3.912  83.693  1.00  0.00     0.112 C
HETATM   12  S1  UNL     1      -0.800   5.259  82.788  1.00  0.00    -0.059 SA
BRANCH  11  13
HETATM   13  C7  UNL     1      -0.766   2.554  83.128  1.00  0.00     0.126 C
BRANCH  13  14
HETATM   14  N3  UNL     1      -0.498   2.510  81.754  1.00  0.00    -0.396 N
HETATM   15  C8  UNL     1       0.820   2.168  81.346  1.00  0.00     0.148 C
HETATM   16  C9  UNL     1      -1.517   2.015  80.893  1.00  0.00     0.148 C
ENDBRANCH  13  14
ENDBRANCH  11  13
ENDBRANCH   9  11
ENDBRANCH   8   9
TORSDOF 4
ENDMDL