MODEL 4
REMARK VINA RESULT: -5.695784571      3.491      4.945
REMARK  3 active torsions:
REMARK  status: ('A' for Active; 'I' for Inactive)
REMARK       I    between atoms: C1_2  and  N1_3
REMARK    1  A    between atoms: C1_2  and  C5_8
REMARK    2  A    between atoms: N1_3  and  C2_5
REMARK    3  A    between atoms: C7_10  and  C8_11
ROOT
HETATM    1  C5  UNL     1      -0.609   6.923  83.908  1.00  0.00     0.084 A
HETATM    2  C6  UNL     1      -0.601   5.806  84.869  1.00  0.00     0.022 A
HETATM    3  C7  UNL     1      -0.007   5.693  83.458  1.00  0.00     0.032 A
ENDROOT
BRANCH   3   4
HETATM    4  C8  UNL     1      -0.542   4.545  82.712  1.00  0.00     0.214 C
HETATM    5  C9  UNL     1      -1.074   4.795  81.329  1.00  0.00     0.201 C
HETATM    6  O2  UNL     1      -2.040   3.787  81.105  1.00  0.00    -0.387 OA
HETATM    7  C10 UNL     1      -1.585   2.553  81.469  1.00  0.00     0.195 C
HETATM    8  C11 UNL     1      -0.125   2.450  81.713  1.00  0.00     0.259 C
HETATM    9  N2  UNL     1       0.431   3.458  82.554  1.00  0.00    -0.067 N
ATOM     10  H22 UNL     1       1.333   3.792  82.213  1.00  0.00     0.277 HD
ATOM     11  H21 UNL     1       0.745   3.085  83.450  1.00  0.00     0.277 HD
ENDBRANCH   3   4
BRANCH   1  12
HETATM   12  C1  UNL     1      -1.873   7.516  83.483  1.00  0.00     0.222 C
HETATM   13  O1  UNL     1      -2.920   7.251  84.098  1.00  0.00    -0.273 OA
HETATM   14  N1  UNL     1      -1.997   8.413  82.368  1.00  0.00    -0.356 N
ATOM     15  H1  UNL     1      -1.160   8.653  81.838  1.00  0.00     0.162 HD
BRANCH  14  16
HETATM   16  C2  UNL     1      -3.262   8.988  81.968  1.00  0.00     0.084 A
HETATM   17  C3  UNL     1      -3.238  10.374  81.458  1.00  0.00     0.027 A
HETATM   18  C4  UNL     1      -3.542   9.227  80.526  1.00  0.00     0.027 A
ENDBRANCH  14  16
ENDBRANCH   1  12
TORSDOF 3
ENDMDL