MODEL 5
REMARK VINA RESULT: -5.626690912      1.884      3.079
REMARK  3 active torsions:
REMARK  status: ('A' for Active; 'I' for Inactive)
REMARK    1  A    between atoms: C2_2  and  O1_4
REMARK    2  A    between atoms: O1_4  and  C4_5
REMARK    3  A    between atoms: C7_8  and  N1_9
ROOT
HETATM    1  N1  UNL     1      -1.267   2.193  84.350  1.00  0.00    -0.355 N
ATOM      2  H1  UNL     1      -1.980   1.483  84.517  1.00  0.00     0.163 HD
HETATM    3  C8  UNL     1      -0.755   2.332  83.177  1.00  0.00     0.171 C
HETATM    4  N2  UNL     1      -1.090   1.559  82.010  1.00  0.00    -0.361 N
ATOM      5  H2  UNL     1      -1.870   0.909  81.912  1.00  0.00     0.162 HD
HETATM    6  C9  UNL     1      -0.102   1.887  81.001  1.00  0.00     0.142 C
HETATM    7  C10 UNL     1       0.192   3.352  81.346  1.00  0.00     0.142 C
HETATM    8  N3  UNL     1       0.240   3.274  82.799  1.00  0.00    -0.361 N
ATOM      9  H3  UNL     1       0.863   3.791  83.420  1.00  0.00     0.162 HD
ENDROOT
BRANCH   1  10
HETATM   10  C7  UNL     1      -0.831   3.039  85.415  1.00  0.00     0.113 C
HETATM   11  C4  UNL     1      -1.597   4.342  85.533  1.00  0.00     0.144 C
HETATM   12  C5  UNL     1      -2.665   3.552  86.262  1.00  0.00     0.036 C
HETATM   13  C6  UNL     1      -1.533   2.618  86.715  1.00  0.00     0.030 C
BRANCH  11  14
HETATM   14  O1  UNL     1      -2.065   4.872  84.364  1.00  0.00    -0.379 OA
BRANCH  14  15
HETATM   15  C2  UNL     1      -1.736   6.209  84.182  1.00  0.00     0.114 C
HETATM   16  C1  UNL     1      -0.349   6.551  84.625  1.00  0.00     0.039 C
HETATM   17  C3  UNL     1      -2.701   7.011  85.047  1.00  0.00     0.039 C
ENDBRANCH  14  15
ENDBRANCH  11  14
ENDBRANCH   1  10
TORSDOF 3
ENDMDL