MODEL 3
REMARK VINA RESULT: -6.265779177      1.598      2.626
REMARK  3 active torsions:
REMARK  status: ('A' for Active; 'I' for Inactive)
REMARK    1  A    between atoms: C5_9  and  C6_10
REMARK       I    between atoms: C6_10  and  N2_12
REMARK    2  A    between atoms: N2_12  and  C7_14
REMARK    3  A    between atoms: C7_14  and  C8_15
ROOT
HETATM    1  C1  UNL     1      -0.004   1.409  80.548  1.00  0.00     0.043 C
HETATM    2  C2  UNL     1       0.773   2.244  81.569  1.00  0.00     0.220 C
HETATM    3  N1  UNL     1       1.705   3.032  80.828  1.00  0.00    -0.066 N
ATOM      4  H11 UNL     1       1.962   2.556  79.964  1.00  0.00     0.277 HD
ATOM      5  H12 UNL     1       2.610   3.046  81.297  1.00  0.00     0.277 HD
HETATM    6  C3  UNL     1       1.267   4.378  80.547  1.00  0.00     0.259 C
HETATM    7  C4  UNL     1       0.759   5.080  81.782  1.00  0.00     0.196 C
HETATM    8  O1  UNL     1       0.704   4.179  82.873  1.00  0.00    -0.373 OA
HETATM    9  C5  UNL     1      -0.090   3.115  82.406  1.00  0.00     0.243 C
ENDROOT
BRANCH   9  10
HETATM   10  C6  UNL     1      -0.774   2.431  83.530  1.00  0.00     0.248 C
HETATM   11  O2  UNL     1      -1.266   1.302  83.284  1.00  0.00    -0.271 OA
HETATM   12  N2  UNL     1      -0.880   3.001  84.819  1.00  0.00    -0.358 N
ATOM     13  H2  UNL     1      -0.467   3.919  84.989  1.00  0.00     0.162 HD
BRANCH  12  14
HETATM   14  C7  UNL     1      -1.551   2.326  85.898  1.00  0.00     0.127 C
BRANCH  14  15
HETATM   15  C8  UNL     1      -2.504   3.272  86.562  1.00  0.00     0.003 A
HETATM   16  C9  UNL     1      -2.702   3.073  88.058  1.00  0.00     0.007 A
HETATM   17  C10 UNL     1      -3.822   2.776  87.091  1.00  0.00     0.007 A
ENDBRANCH  14  15
ENDBRANCH  12  14
ENDBRANCH   9  10
TORSDOF 3
ENDMDL