MODEL 4
REMARK VINA RESULT: -5.023036979      1.998      2.521
REMARK  5 active torsions:
REMARK  status: ('A' for Active; 'I' for Inactive)
REMARK    1  A    between atoms: O1_2  and  N1_3
REMARK    2  A    between atoms: N1_3  and  C2_5
REMARK    3  A    between atoms: C2_5  and  N2_7
REMARK    4  A    between atoms: N2_7  and  C3_9
REMARK    5  A    between atoms: C3_9  and  C4_10
ROOT
HETATM    1  N2  UNL     1      -0.446   3.792  84.481  1.00  0.00    -0.365 N
ATOM      2  H2  UNL     1       0.459   3.375  84.698  1.00  0.00     0.161 HD
ENDROOT
BRANCH   1   3
HETATM    3  C2  UNL     1      -1.386   4.005  85.527  1.00  0.00     0.191 C
HETATM    4  S1  UNL     1      -2.693   4.979  85.283  1.00  0.00    -0.039 SA
BRANCH   3   5
HETATM    5  N1  UNL     1      -1.219   3.385  86.792  1.00  0.00    -0.242 N
ATOM      6  H1  UNL     1      -0.829   3.934  87.558  1.00  0.00     0.197 HD
BRANCH   5   7
HETATM    7  O1  UNL     1      -1.554   2.104  87.023  1.00  0.00    -0.283 OA
HETATM    8  C1  UNL     1      -2.796   1.983  87.641  1.00  0.00     0.237 C
ENDBRANCH   5   7
ENDBRANCH   3   5
ENDBRANCH   1   3
BRANCH   1   9
HETATM    9  C3  UNL     1      -0.755   4.163  83.097  1.00  0.00     0.128 C
BRANCH   9  10
HETATM   10  C4  UNL     1      -0.316   3.036  82.217  1.00  0.00     0.033 C
HETATM   11  C5  UNL     1      -0.961   3.013  80.877  1.00  0.00     0.038 C
HETATM   12  C6  UNL     1      -1.533   1.631  80.710  1.00  0.00     0.272 C
HETATM   13  N3  UNL     1      -1.112   0.838  81.829  1.00  0.00     0.084 N
HETATM   14  C7  UNL     1       0.005  -0.030  81.522  1.00  0.00     0.309 C
HETATM   15  C8  UNL     1      -0.733   1.739  82.891  1.00  0.00     0.278 C
ENDBRANCH   9  10
ENDBRANCH   1   9
TORSDOF 5
ENDMDL