MODEL 2
REMARK VINA RESULT: -6.477346603      2.202      4.758
REMARK  3 active torsions:
REMARK  status: ('A' for Active; 'I' for Inactive)
REMARK    1  A    between atoms: C2_3  and  C3_4
REMARK    2  A    between atoms: C2_3  and  C7_11
REMARK       I    between atoms: C3_4  and  N2_6
REMARK    3  A    between atoms: N2_6  and  C4_8
ROOT
HETATM    1  N1  UNL     1      -2.262   3.912  82.665  1.00  0.00    -0.196 NA
HETATM    2  C1  UNL     1      -1.385   3.947  83.419  1.00  0.00     0.074 C
HETATM    3  C2  UNL     1      -0.243   3.994  84.367  1.00  0.00     0.190 C
ENDROOT
BRANCH   3   4
HETATM    4  C3  UNL     1      -0.696   3.331  85.595  1.00  0.00     0.236 C
HETATM    5  O1  UNL     1       0.117   2.986  86.470  1.00  0.00    -0.272 OA
HETATM    6  N2  UNL     1      -2.063   3.080  85.792  1.00  0.00    -0.355 N
ATOM      7  H2  UNL     1      -2.713   3.371  85.061  1.00  0.00     0.162 HD
BRANCH   6   8
HETATM    8  C4  UNL     1      -2.610   2.435  86.967  1.00  0.00     0.084 A
HETATM    9  C5  UNL     1      -4.076   2.761  87.217  1.00  0.00     0.027 A
HETATM   10  C6  UNL     1      -3.009   3.236  88.156  1.00  0.00     0.027 A
ENDBRANCH   6   8
ENDBRANCH   3   4
BRANCH   3  11
HETATM   11  C7  UNL     1       0.077   5.449  84.564  1.00  0.00     0.039 C
HETATM   12  C8  UNL     1      -1.154   6.285  84.813  1.00  0.00     0.035 C
HETATM   13  C9  UNL     1      -0.780   7.641  84.257  1.00  0.00     0.232 C
HETATM   14  N3  UNL     1       0.559   7.498  83.711  1.00  0.00    -0.075 N
HETATM   15  C10 UNL     1       0.586   6.091  83.273  1.00  0.00     0.238 C
ATOM     16  H32 UNL     1       0.798   8.176  82.986  1.00  0.00     0.277 HD
ATOM     17  H31 UNL     1       1.310   7.761  84.349  1.00  0.00     0.277 HD
ENDBRANCH   3  11
TORSDOF 3
ENDMDL