MODEL 2
REMARK VINA RESULT: -6.792257480      1.338      1.495
REMARK  9 active torsions:
REMARK  status: ('A' for Active; 'I' for Inactive)
REMARK    1  A    between atoms: C2_3  and  N2_4
REMARK    2  A    between atoms: N2_4  and  C3_6
REMARK    3  A    between atoms: C3_6  and  C4_7
REMARK    4  A    between atoms: C4_7  and  N3_8
REMARK    5  A    between atoms: C7_17  and  N5_18
REMARK    6  A    between atoms: N5_18  and  C8_20
REMARK    7  A    between atoms: C8_20  and  C9_21
REMARK    8  A    between atoms: C9_21  and  O2_22
REMARK    9  A    between atoms: C10_26  and  N7_27
ROOT
HETATM    1  C1  UNL     1     -42.607 -31.747   1.338  1.00  0.00     0.177 C
HETATM    2  N1  UNL     1     -43.913 -31.271   1.796  1.00  0.00    -0.171 N
HETATM    3  C2  UNL     1     -44.068 -30.741   3.010  1.00  0.00     0.684 A
HETATM    4  N4  UNL     1     -45.293 -30.325   3.369  1.00  0.00    -0.155 N
ATOM      5  H4  UNL     1     -45.426 -29.917   4.295  1.00  0.00     0.187 HD
HETATM    6  C5  UNL     1     -46.356 -30.431   2.536  1.00  0.00     0.277 A
HETATM    7  O1  UNL     1     -47.507 -30.047   2.853  1.00  0.00    -0.266 OA
HETATM    8  C6  UNL     1     -46.173 -30.982   1.287  1.00  0.00     0.122 A
HETATM    9  C7  UNL     1     -47.226 -31.109   0.406  1.00  0.00     0.136 A
HETATM   10  N6  UNL     1     -46.999 -31.655  -0.808  1.00  0.00    -0.176 N
ATOM     11  H6  UNL     1     -47.772 -31.753  -1.465  1.00  0.00     0.186 HD
HETATM   12  C10 UNL     1     -45.773 -32.071  -1.164  1.00  0.00     0.679 A
HETATM   13  N8  UNL     1     -44.735 -31.955  -0.320  1.00  0.00    -0.175 N
ATOM     14  H8  UNL     1     -43.808 -32.275  -0.602  1.00  0.00     0.186 HD
HETATM   15  C11 UNL     1     -44.919 -31.412   0.909  1.00  0.00     0.158 A
ENDROOT
BRANCH   3  16
HETATM   16  N2  UNL     1     -43.038 -30.655   3.776  1.00  0.00    -0.224 N
ATOM     17  H2  UNL     1     -42.192 -30.229   3.398  1.00  0.00     0.177 HD
BRANCH  16  18
HETATM   18  C3  UNL     1     -43.011 -31.129   5.140  1.00  0.00     0.165 C
BRANCH  18  19
HETATM   19  C4  UNL     1     -43.305 -32.613   5.131  1.00  0.00     0.249 C
BRANCH  19  20
HETATM   20  N3  UNL     1     -42.625 -33.246   6.232  1.00  0.00    -0.078 N
ATOM     21  H33 UNL     1     -42.070 -32.583   6.774  1.00  0.00     0.274 HD
ATOM     22  H32 UNL     1     -43.268 -33.534   6.969  1.00  0.00     0.274 HD
ATOM     23  H31 UNL     1     -42.063 -34.024   5.884  1.00  0.00     0.274 HD
ENDBRANCH  19  20
ENDBRANCH  18  19
ENDBRANCH  16  18
ENDBRANCH   3  16
BRANCH   9  24
HETATM   24  N5  UNL     1     -48.388 -30.708   0.762  1.00  0.00    -0.373 N
ATOM     25  H5  UNL     1     -48.461 -29.846   1.302  1.00  0.00     0.161 HD
BRANCH  24  26
HETATM   26  C8  UNL     1     -49.606 -31.423   0.433  1.00  0.00     0.147 C
BRANCH  26  27
HETATM   27  C9  UNL     1     -50.450 -31.437   1.704  1.00  0.00     0.183 C
BRANCH  27  28
HETATM   28  O2  UNL     1     -50.295 -30.288   2.446  1.00  0.00    -0.399 OA
ATOM     29  H2  UNL     1     -50.968 -29.645   2.258  1.00  0.00     0.209 HD
ENDBRANCH  27  28
ENDBRANCH  26  27
ENDBRANCH  24  26
ENDBRANCH   9  24
BRANCH  12  30
HETATM   30  N7  UNL     1     -45.545 -32.590  -2.315  1.00  0.00    -0.234 N
ATOM     31  H72 UNL     1     -44.857 -33.342  -2.365  1.00  0.00     0.174 HD
ATOM     32  H71 UNL     1     -46.029 -32.269  -3.154  1.00  0.00     0.174 HD
ENDBRANCH  12  30
TORSDOF 9
ENDMDL