MODEL 2
REMARK VINA RESULT: -8.146360041      2.594      5.570
REMARK  5 active torsions:
REMARK  status: ('A' for Active; 'I' for Inactive)
REMARK    1  A    between atoms: N1_1  and  C1_4
REMARK    2  A    between atoms: N6_19  and  C7_20
REMARK    3  A    between atoms: C7_20  and  C8_21
REMARK    4  A    between atoms: C8_21  and  C9_22
REMARK    5  A    between atoms: C9_22  and  N7_23
ROOT
HETATM    1  C1  UNL     1     -48.179 -33.602   0.408  1.00  0.00     0.678 A
HETATM    2  N2  UNL     1     -47.058 -33.119   0.974  1.00  0.00    -0.175 N
ATOM      3  H2  UNL     1     -46.189 -33.645   0.879  1.00  0.00     0.186 HD
HETATM    4  C2  UNL     1     -47.050 -31.947   1.670  1.00  0.00     0.146 A
HETATM    5  C3  UNL     1     -48.236 -31.289   1.762  1.00  0.00     0.118 A
HETATM    6  C4  UNL     1     -49.364 -31.791   1.182  1.00  0.00     0.151 A
HETATM    7  N3  UNL     1     -50.561 -31.031   1.332  1.00  0.00    -0.081 NA
HETATM    8  N4  UNL     1     -49.333 -32.941   0.510  1.00  0.00    -0.178 N
ATOM      9  H4  UNL     1     -50.180 -33.311   0.079  1.00  0.00     0.185 HD
HETATM   10  C5  UNL     1     -48.248 -30.090   2.485  1.00  0.00     0.266 A
HETATM   11  O1  UNL     1     -49.338 -29.479   2.574  1.00  0.00    -0.267 OA
HETATM   12  N5  UNL     1     -47.100 -29.671   3.036  1.00  0.00    -0.274 N
ATOM     13  H5  UNL     1     -47.113 -28.797   3.561  1.00  0.00     0.173 HD
HETATM   14  C6  UNL     1     -45.941 -30.328   2.939  1.00  0.00     0.331 A
HETATM   15  O2  UNL     1     -44.872 -29.884   3.483  1.00  0.00    -0.246 OA
HETATM   16  N6  UNL     1     -45.922 -31.487   2.240  1.00  0.00    -0.284 N
ENDROOT
BRANCH  16  17
HETATM   17  C7  UNL     1     -44.691 -32.185   2.100  1.00  0.00     0.137 C
BRANCH  17  18
HETATM   18  C8  UNL     1     -43.747 -31.709   1.064  1.00  0.00     0.040 C
BRANCH  18  19
HETATM   19  C9  UNL     1     -44.354 -31.281  -0.240  1.00  0.00     0.123 C
BRANCH  19  20
HETATM   20  N7  UNL     1     -44.324 -32.377  -1.213  1.00  0.00    -0.367 N
HETATM   21  C10 UNL     1     -45.295 -32.582  -2.031  1.00  0.00     0.196 C
HETATM   22  N8  UNL     1     -45.191 -33.665  -2.944  1.00  0.00    -0.067 NA
HETATM   23  N9  UNL     1     -46.466 -31.779  -2.064  1.00  0.00    -0.067 NA
ATOM     24  H7  UNL     1     -43.511 -32.993  -1.242  1.00  0.00     0.161 HD
ENDBRANCH  19  20
ENDBRANCH  18  19
ENDBRANCH  17  18
ENDBRANCH  16  17
BRANCH   1  25
HETATM   25  N1  UNL     1     -48.151 -34.711  -0.242  1.00  0.00    -0.234 N
ATOM     26  H12 UNL     1     -48.679 -35.507   0.116  1.00  0.00     0.174 HD
ATOM     27  H11 UNL     1     -47.609 -34.789  -1.103  1.00  0.00     0.174 HD
ENDBRANCH   1  25
TORSDOF 5
ENDMDL