MODEL 3
REMARK VINA RESULT: -7.139073650      2.079      5.883
REMARK  8 active torsions:
REMARK  status: ('A' for Active; 'I' for Inactive)
REMARK    1  A    between atoms: N1_1  and  C1_4
REMARK    2  A    between atoms: N4_13  and  N5_14
REMARK    3  A    between atoms: N6_19  and  C6_20
REMARK    4  A    between atoms: C6_20  and  C7_21
REMARK    5  A    between atoms: C7_21  and  N7_22
REMARK       I    between atoms: N7_22  and  C8_24
REMARK    6  A    between atoms: C8_24  and  C9_26
REMARK    7  A    between atoms: C9_26  and  C10_27
REMARK    8  A    between atoms: C10_27  and  N8_28
ROOT
HETATM    1  C1  UNL     1     -43.274 -30.387   4.408  1.00  0.00     0.680 A
HETATM    2  N2  UNL     1     -44.583 -30.056   4.375  1.00  0.00    -0.154 N
ATOM      3  H2  UNL     1     -45.041 -29.669   5.200  1.00  0.00     0.187 HD
HETATM    4  C2  UNL     1     -45.273 -30.245   3.235  1.00  0.00     0.290 A
HETATM    5  O1  UNL     1     -46.490 -29.945   3.181  1.00  0.00    -0.265 OA
HETATM    6  C3  UNL     1     -44.690 -30.765   2.098  1.00  0.00     0.154 A
HETATM    7  C4  UNL     1     -43.334 -31.099   2.158  1.00  0.00     0.179 A
HETATM    8  N3  UNL     1     -42.683 -30.895   3.314  1.00  0.00    -0.172 N
ATOM      9  H3  UNL     1     -41.693 -31.138   3.363  1.00  0.00     0.186 HD
HETATM   10  N4  UNL     1     -42.952 -31.586   0.965  1.00  0.00    -0.192 N
HETATM   11  C5  UNL     1     -44.050 -31.551   0.192  1.00  0.00     0.350 A
HETATM   12  O2  UNL     1     -44.069 -31.934  -1.003  1.00  0.00    -0.244 OA
HETATM   13  N6  UNL     1     -45.095 -31.062   0.856  1.00  0.00    -0.288 N
ENDROOT
BRANCH  13  14
HETATM   14  C6  UNL     1     -46.430 -30.877   0.348  1.00  0.00     0.154 C
BRANCH  14  15
HETATM   15  C7  UNL     1     -47.284 -32.095   0.502  1.00  0.00     0.143 C
BRANCH  15  16
HETATM   16  N7  UNL     1     -46.863 -33.107  -0.434  1.00  0.00    -0.359 N
HETATM   17  C8  UNL     1     -47.094 -33.091  -1.823  1.00  0.00     0.219 C
HETATM   18  O3  UNL     1     -47.699 -32.158  -2.370  1.00  0.00    -0.274 OA
ATOM     19  H7  UNL     1     -46.354 -33.906  -0.056  1.00  0.00     0.162 HD
BRANCH  17  20
HETATM   20  C9  UNL     1     -46.596 -34.223  -2.642  1.00  0.00     0.130 C
BRANCH  20  21
HETATM   21  C10 UNL     1     -47.212 -35.507  -2.135  1.00  0.00     0.238 C
BRANCH  21  22
HETATM   22  N8  UNL     1     -46.256 -36.593  -2.200  1.00  0.00    -0.079 N
ATOM     23  H83 UNL     1     -45.725 -36.681  -1.334  1.00  0.00     0.274 HD
ATOM     24  H82 UNL     1     -46.717 -37.503  -2.190  1.00  0.00     0.274 HD
ATOM     25  H81 UNL     1     -45.645 -36.488  -3.010  1.00  0.00     0.274 HD
ENDBRANCH  21  22
ENDBRANCH  20  21
ENDBRANCH  17  20
ENDBRANCH  15  16
ENDBRANCH  14  15
ENDBRANCH  13  14
BRANCH  10  26
HETATM   26  N5  UNL     1     -41.704 -32.034   0.589  1.00  0.00    -0.333 N
ATOM     27  H52 UNL     1     -41.461 -32.469  -0.301  1.00  0.00     0.177 HD
ATOM     28  H51 UNL     1     -40.837 -32.007   1.125  1.00  0.00     0.177 HD
ENDBRANCH  10  26
BRANCH   1  29
HETATM   29  N1  UNL     1     -42.621 -30.200   5.509  1.00  0.00    -0.234 N
ATOM     30  H12 UNL     1     -42.949 -29.551   6.223  1.00  0.00     0.174 HD
ATOM     31  H11 UNL     1     -41.757 -30.723   5.654  1.00  0.00     0.174 HD
ENDBRANCH   1  29
TORSDOF 8
ENDMDL