MODEL 5
REMARK VINA RESULT: -6.506611390      3.302      5.725
REMARK  8 active torsions:
REMARK  status: ('A' for Active; 'I' for Inactive)
REMARK    1  A    between atoms: N1_1  and  N2_4
REMARK    2  A    between atoms: N2_4  and  C1_6
REMARK    3  A    between atoms: C2_11  and  N5_12
REMARK    4  A    between atoms: C7_20  and  N7_21
REMARK    5  A    between atoms: N7_21  and  C8_23
REMARK    6  A    between atoms: C8_23  and  C9_24
REMARK    7  A    between atoms: C9_24  and  C10_25
REMARK    8  A    between atoms: C10_25  and  C11_26
ROOT
HETATM    1  C1  UNL     1     -45.662 -30.119   0.599  1.00  0.00     0.712 A
HETATM    2  N3  UNL     1     -46.597 -29.176   0.634  1.00  0.00    -0.129 N
ATOM      3  H3  UNL     1     -46.354 -28.199   0.470  1.00  0.00     0.205 HD
HETATM    4  N4  UNL     1     -47.842 -29.524   0.883  1.00  0.00    -0.268 N
ATOM      5  H4  UNL     1     -48.555 -28.796   0.908  1.00  0.00     0.189 HD
HETATM    6  C2  UNL     1     -48.218 -30.799   1.106  1.00  0.00     0.164 A
HETATM    7  C7  UNL     1     -47.259 -31.785   1.072  1.00  0.00     0.162 A
HETATM    8  N8  UNL     1     -45.998 -31.411   0.817  1.00  0.00    -0.170 N
ATOM      9  H8  UNL     1     -45.268 -32.123   0.787  1.00  0.00     0.186 HD
ENDROOT
BRANCH   6  10
HETATM   10  N5  UNL     1     -49.585 -31.093   1.367  1.00  0.00    -0.360 N
HETATM   11  C3  UNL     1     -50.549 -31.324   0.303  1.00  0.00     0.152 C
HETATM   12  C4  UNL     1     -51.449 -32.455   0.748  1.00  0.00     0.252 C
HETATM   13  N6  UNL     1     -52.231 -32.036   1.882  1.00  0.00    -0.072 N
HETATM   14  C5  UNL     1     -51.605 -30.995   2.656  1.00  0.00     0.252 C
ATOM     15  H62 UNL     1     -53.168 -31.758   1.591  1.00  0.00     0.277 HD
ATOM     16  H61 UNL     1     -52.467 -32.834   2.473  1.00  0.00     0.277 HD
HETATM   17  C6  UNL     1     -50.100 -31.179   2.733  1.00  0.00     0.152 C
ENDBRANCH   6  10
BRANCH   7  18
HETATM   18  N7  UNL     1     -47.521 -33.020   1.271  1.00  0.00    -0.373 N
ATOM     19  H7  UNL     1     -47.442 -33.349   2.233  1.00  0.00     0.161 HD
BRANCH  18  20
HETATM   20  C8  UNL     1     -47.909 -33.990   0.305  1.00  0.00     0.122 C
BRANCH  20  21
HETATM   21  C9  UNL     1     -47.997 -33.449  -1.100  1.00  0.00     0.030 C
BRANCH  21  22
HETATM   22  C10 UNL     1     -46.849 -33.895  -1.961  1.00  0.00     0.114 C
BRANCH  22  23
HETATM   23  C11 UNL     1     -46.039 -32.728  -2.379  1.00  0.00     0.172 C
HETATM   24  O1  UNL     1     -46.544 -31.580  -2.323  1.00  0.00    -0.648 OA
HETATM   25  O2  UNL     1     -44.739 -32.858  -2.833  1.00  0.00    -0.648 OA
ENDBRANCH  22  23
ENDBRANCH  21  22
ENDBRANCH  20  21
ENDBRANCH  18  20
ENDBRANCH   7  18
BRANCH   1  26
HETATM   26  N2  UNL     1     -44.423 -29.848   0.361  1.00  0.00    -0.137 N
ATOM     27  H2  UNL     1     -43.967 -30.280  -0.443  1.00  0.00     0.205 HD
BRANCH  26  28
HETATM   28  N1  UNL     1     -43.704 -28.995   1.158  1.00  0.00    -0.331 N
ATOM     29  H12 UNL     1     -44.200 -28.223   1.605  1.00  0.00     0.177 HD
ATOM     30  H11 UNL     1     -42.702 -29.115   1.308  1.00  0.00     0.177 HD
ENDBRANCH  26  28
ENDBRANCH   1  26
TORSDOF 8
ENDMDL