MODEL 1
REMARK VINA RESULT: -7.845141244      0.000      0.000
REMARK  8 active torsions:
REMARK  status: ('A' for Active; 'I' for Inactive)
REMARK    1  A    between atoms: N1_1  and  C1_4
REMARK    2  A    between atoms: C3_6  and  N2_7
REMARK    3  A    between atoms: C4_9  and  C5_10
REMARK    4  A    between atoms: C5_10  and  O1_11
REMARK    5  A    between atoms: N6_24  and  C9_25
REMARK    6  A    between atoms: C9_25  and  C10_26
REMARK    7  A    between atoms: C10_26  and  C11_27
REMARK    8  A    between atoms: C11_27  and  N7_28
ROOT
HETATM    1  C1  UNL     1     -45.114 -30.565   2.458  1.00  0.00     0.132 A
HETATM    2  C2  UNL     1     -44.874 -31.098   1.202  1.00  0.00     0.087 A
HETATM    3  C3  UNL     1     -45.905 -31.324   0.274  1.00  0.00     0.125 C
HETATM    4  N3  UNL     1     -45.737 -32.066  -0.839  1.00  0.00    -0.293 N
ATOM      5  H3  UNL     1     -46.582 -32.504  -1.207  1.00  0.00     0.172 HD
HETATM    6  C6  UNL     1     -44.604 -32.311  -1.536  1.00  0.00     0.328 C
HETATM    7  O2  UNL     1     -44.784 -32.767  -2.691  1.00  0.00    -0.247 OA
HETATM    8  N4  UNL     1     -43.323 -32.135  -1.167  1.00  0.00    -0.273 N
ATOM      9  H4  UNL     1     -42.633 -32.235  -1.911  1.00  0.00     0.173 HD
HETATM   10  C7  UNL     1     -42.836 -31.848   0.035  1.00  0.00     0.278 C
HETATM   11  O3  UNL     1     -41.614 -32.057   0.284  1.00  0.00    -0.265 OA
HETATM   12  C8  UNL     1     -43.516 -31.319   1.125  1.00  0.00     0.134 A
HETATM   13  N5  UNL     1     -42.956 -30.940   2.276  1.00  0.00    -0.291 N
ATOM     14  H5  UNL     1     -41.962 -30.988   2.503  1.00  0.00     0.187 HD
HETATM   15  N6  UNL     1     -43.929 -30.485   3.082  1.00  0.00    -0.276 N
ENDROOT
BRANCH  15  16
HETATM   16  C9  UNL     1     -43.657 -30.012   4.414  1.00  0.00     0.152 C
BRANCH  16  17
HETATM   17  C10 UNL     1     -42.861 -30.971   5.250  1.00  0.00     0.049 C
BRANCH  17  18
HETATM   18  C11 UNL     1     -43.371 -32.369   5.289  1.00  0.00     0.231 C
BRANCH  18  19
HETATM   19  N7  UNL     1     -42.559 -33.074   6.300  1.00  0.00    -0.079 N
ATOM     20  H73 UNL     1     -41.784 -33.603   5.900  1.00  0.00     0.274 HD
ATOM     21  H72 UNL     1     -41.998 -32.449   6.879  1.00  0.00     0.274 HD
ATOM     22  H71 UNL     1     -43.209 -33.649   6.836  1.00  0.00     0.274 HD
ENDBRANCH  18  19
ENDBRANCH  17  18
ENDBRANCH  16  17
ENDBRANCH  15  16
BRANCH   1  23
HETATM   23  N1  UNL     1     -46.252 -30.206   2.931  1.00  0.00    -0.383 N
ATOM     24  H12 UNL     1     -47.148 -30.238   2.445  1.00  0.00     0.157 HD
ATOM     25  H11 UNL     1     -46.433 -29.844   3.867  1.00  0.00     0.157 HD
ENDBRANCH   1  23
BRANCH   3  26
HETATM   26  N2  UNL     1     -46.958 -30.802   0.546  1.00  0.00    -0.353 N
HETATM   27  C4  UNL     1     -48.300 -30.793   0.577  1.00  0.00     0.088 C
ATOM     28  H2  UNL     1     -46.693 -29.912   0.968  1.00  0.00     0.166 HD
BRANCH  27  29
HETATM   29  C5  UNL     1     -49.081 -31.996   0.116  1.00  0.00     0.208 C
BRANCH  29  30
HETATM   30  O1  UNL     1     -50.361 -31.546  -0.277  1.00  0.00    -0.396 OA
ATOM     31  H1  UNL     1     -50.905 -32.313  -0.410  1.00  0.00     0.209 HD
ENDBRANCH  29  30
ENDBRANCH  27  29
ENDBRANCH   3  26
TORSDOF 8
ENDMDL