MODEL 5
REMARK VINA RESULT: -6.743447370      1.661      2.194
REMARK  10 active torsions:
REMARK  status: ('A' for Active; 'I' for Inactive)
REMARK    1  A    between atoms: N1_1  and  C1_4
REMARK    2  A    between atoms: C3_8  and  C4_9
REMARK    3  A    between atoms: C4_9  and  N3_10
REMARK    4  A    between atoms: N3_10  and  C5_12
REMARK    5  A    between atoms: N4_14  and  C7_15
REMARK    6  A    between atoms: C7_15  and  C8_16
REMARK    7  A    between atoms: C8_16  and  O1_17
REMARK    8  A    between atoms: N5_19  and  O2_20
REMARK    9  A    between atoms: C9_22  and  N6_23
REMARK   10  A    between atoms: N6_23  and  N7_25
ROOT
HETATM    1  C5  UNL     1     -46.407 -31.435   1.923  1.00  0.00     0.134 A
HETATM    2  C6  UNL     1     -45.752 -32.198   2.858  1.00  0.00     0.162 A
HETATM    3  N4  UNL     1     -44.442 -32.032   3.151  1.00  0.00    -0.257 N
HETATM    4  N5  UNL     1     -43.776 -31.090   2.498  1.00  0.00     0.019 N
HETATM    5  C9  UNL     1     -44.406 -30.329   1.574  1.00  0.00     0.740 A
HETATM    6  N8  UNL     1     -45.708 -30.486   1.276  1.00  0.00    -0.171 N
ATOM      7  H8  UNL     1     -46.156 -29.898   0.574  1.00  0.00     0.186 HD
ENDROOT
BRANCH   1   8
HETATM    8  N3  UNL     1     -47.809 -31.636   1.633  1.00  0.00    -0.370 N
ATOM      9  H3  UNL     1     -48.465 -31.873   2.376  1.00  0.00     0.161 HD
BRANCH   8  10
HETATM   10  C4  UNL     1     -48.262 -31.492   0.265  1.00  0.00     0.162 C
BRANCH  10  11
HETATM   11  C3  UNL     1     -47.837 -32.687  -0.490  1.00  0.00    -0.009 A
HETATM   12  C2  UNL     1     -47.012 -32.544  -1.580  1.00  0.00     0.116 A
HETATM   13  N2  UNL     1     -46.633 -33.662  -2.261  1.00  0.00    -0.202 N
HETATM   14  C1  UNL     1     -47.026 -34.898  -1.923  1.00  0.00     0.675 A
ATOM     15  H2  UNL     1     -46.020 -33.553  -3.068  1.00  0.00     0.183 HD
HETATM   16  N9  UNL     1     -47.832 -35.041  -0.860  1.00  0.00    -0.202 N
HETATM   17  C10 UNL     1     -48.240 -33.956  -0.144  1.00  0.00     0.116 A
ATOM     18  H9  UNL     1     -48.142 -35.973  -0.585  1.00  0.00     0.183 HD
BRANCH  14  19
HETATM   19  N1  UNL     1     -46.638 -35.943  -2.607  1.00  0.00    -0.234 N
ATOM     20  H12 UNL     1     -45.873 -35.867  -3.278  1.00  0.00     0.174 HD
ATOM     21  H11 UNL     1     -47.088 -36.850  -2.486  1.00  0.00     0.174 HD
ENDBRANCH  14  19
ENDBRANCH  10  11
ENDBRANCH   8  10
ENDBRANCH   1   8
BRANCH   3  22
HETATM   22  C7  UNL     1     -43.850 -32.881   4.145  1.00  0.00     0.177 C
BRANCH  22  23
HETATM   23  C8  UNL     1     -43.539 -32.170   5.432  1.00  0.00     0.185 C
BRANCH  23  24
HETATM   24  O1  UNL     1     -43.195 -33.150   6.375  1.00  0.00    -0.399 OA
ATOM     25  H1  UNL     1     -42.578 -32.755   6.979  1.00  0.00     0.209 HD
ENDBRANCH  23  24
ENDBRANCH  22  23
ENDBRANCH   3  22
BRANCH   5  26
HETATM   26  N6  UNL     1     -43.721 -29.417   0.955  1.00  0.00    -0.135 N
ATOM     27  H6  UNL     1     -43.920 -28.434   1.139  1.00  0.00     0.205 HD
BRANCH  26  28
HETATM   28  N7  UNL     1     -42.719 -29.754   0.044  1.00  0.00    -0.331 N
ATOM     29  H72 UNL     1     -42.971 -29.841  -0.941  1.00  0.00     0.177 HD
ATOM     30  H71 UNL     1     -41.758 -29.911   0.345  1.00  0.00     0.177 HD
ENDBRANCH  26  28
ENDBRANCH   5  26
BRANCH   4  31
HETATM   31  O2  UNL     1     -42.446 -30.894   2.768  1.00  0.00    -0.254 OA
ATOM     32  H2  UNL     1     -41.828 -30.825   2.050  1.00  0.00     0.247 HD
ENDBRANCH   4  31
TORSDOF 10
ENDMDL