MODEL 1
REMARK VINA RESULT: -8.052834053      0.000      0.000
REMARK  5 active torsions:
REMARK  status: ('A' for Active; 'I' for Inactive)
REMARK       I    between atoms: C1_4  and  N2_5
REMARK       I    between atoms: C1_4  and  N6_23
REMARK    1  A    between atoms: N2_5  and  C2_7
REMARK    2  A    between atoms: C2_7  and  C3_8
REMARK    3  A    between atoms: C3_8  and  N3_9
REMARK    4  A    between atoms: N3_9  and  C4_11
REMARK    5  A    between atoms: N6_23  and  N7_25
ROOT
HETATM    1  N3  UNL     1     -45.675 -32.749   3.303  1.00  0.00    -0.374 N
ATOM      2  H3  UNL     1     -45.764 -33.728   3.576  1.00  0.00     0.161 HD
ENDROOT
BRANCH   1   3
HETATM    3  C3  UNL     1     -44.529 -32.002   3.776  1.00  0.00     0.141 C
BRANCH   3   4
HETATM    4  C2  UNL     1     -43.417 -31.990   2.771  1.00  0.00     0.157 C
BRANCH   4   5
HETATM    5  N2  UNL     1     -43.102 -30.650   2.347  1.00  0.00    -0.224 N
HETATM    6  C1  UNL     1     -43.660 -30.103   1.186  1.00  0.00     0.691 C
HETATM    7  N1  UNL     1     -43.797 -28.827   1.076  1.00  0.00    -0.233 N
HETATM    8  N6  UNL     1     -44.090 -30.912   0.102  1.00  0.00    -0.072 N
ATOM      9  H12 UNL     1     -43.489 -28.245   1.855  1.00  0.00     0.174 HD
ATOM     10  H11 UNL     1     -44.205 -28.429   0.230  1.00  0.00     0.174 HD
ATOM     11  H6  UNL     1     -45.072 -30.863  -0.170  1.00  0.00     0.212 HD
ATOM     12  H2  UNL     1     -42.459 -30.088   2.905  1.00  0.00     0.177 HD
BRANCH   8  13
HETATM   13  N7  UNL     1     -43.265 -31.765  -0.612  1.00  0.00    -0.024 N
HETATM   14  O4  UNL     1     -42.073 -31.916  -0.233  1.00  0.00    -0.516 OA
HETATM   15  O5  UNL     1     -43.683 -32.462  -1.727  1.00  0.00    -0.516 OA
ENDBRANCH   8  13
ENDBRANCH   4   5
ENDBRANCH   3   4
ENDBRANCH   1   3
BRANCH   1  16
HETATM   16  C4  UNL     1     -46.679 -32.186   2.480  1.00  0.00     0.109 C
HETATM   17  C5  UNL     1     -46.980 -30.863   2.700  1.00  0.00     0.122 C
HETATM   18  C6  UNL     1     -47.926 -30.052   2.076  1.00  0.00     0.251 C
HETATM   19  O1  UNL     1     -48.128 -28.918   2.552  1.00  0.00    -0.268 OA
HETATM   20  N4  UNL     1     -48.662 -30.349   0.997  1.00  0.00    -0.286 N
HETATM   21  C7  UNL     1     -48.829 -31.563   0.424  1.00  0.00     0.316 C
ATOM     22  H4  UNL     1     -49.154 -29.571   0.557  1.00  0.00     0.172 HD
HETATM   23  O2  UNL     1     -49.740 -31.544  -0.462  1.00  0.00    -0.262 OA
HETATM   24  C8  UNL     1     -48.192 -32.763   0.642  1.00  0.00     0.315 C
HETATM   25  O3  UNL     1     -48.561 -33.693  -0.108  1.00  0.00    -0.262 OA
HETATM   26  N5  UNL     1     -47.225 -33.014   1.573  1.00  0.00    -0.305 N
ATOM     27  H5  UNL     1     -46.865 -33.968   1.581  1.00  0.00     0.170 HD
ENDBRANCH   1  16
TORSDOF 5
ENDMDL