MODEL 4
REMARK VINA RESULT: -6.586209322      2.264      4.688
REMARK  8 active torsions:
REMARK  status: ('A' for Active; 'I' for Inactive)
REMARK    1  A    between atoms: N1_2  and  C2_4
REMARK    2  A    between atoms: C2_4  and  O1_6
REMARK    3  A    between atoms: O1_6  and  C3_7
REMARK    4  A    between atoms: C3_7  and  N2_8
REMARK    5  A    between atoms: N2_8  and  N3_9
REMARK    6  A    between atoms: N3_9  and  C4_11
REMARK    7  A    between atoms: C6_16  and  N6_17
REMARK    8  A    between atoms: C7_20  and  N7_21
ROOT
HETATM    1  C4  UNL     1     -45.376 -31.763  -0.482  1.00  0.00     0.697 A
HETATM    2  N4  UNL     1     -46.333 -32.696  -0.414  1.00  0.00    -0.175 N
ATOM      3  H4  UNL     1     -46.134 -33.647  -0.722  1.00  0.00     0.185 HD
HETATM    4  C5  UNL     1     -47.533 -32.394   0.048  1.00  0.00     0.168 A
HETATM    5  N5  UNL     1     -48.608 -33.321   0.100  1.00  0.00    -0.079 NA
HETATM    6  C6  UNL     1     -47.801 -31.087   0.478  1.00  0.00     0.188 A
HETATM    7  C7  UNL     1     -46.801 -30.165   0.393  1.00  0.00     0.151 A
HETATM    8  N8  UNL     1     -45.599 -30.490  -0.083  1.00  0.00    -0.173 N
ATOM      9  H8  UNL     1     -44.860 -29.789  -0.146  1.00  0.00     0.186 HD
ENDROOT
BRANCH   1  10
HETATM   10  N3  UNL     1     -44.162 -32.091  -0.712  1.00  0.00    -0.134 N
ATOM     11  H3  UNL     1     -44.043 -33.009  -1.141  1.00  0.00     0.201 HD
BRANCH  10  12
HETATM   12  N2  UNL     1     -43.017 -31.425  -0.483  1.00  0.00    -0.100 NA
BRANCH  12  13
HETATM   13  C3  UNL     1     -42.416 -31.737   0.783  1.00  0.00     0.313 C
BRANCH  13  14
HETATM   14  O1  UNL     1     -43.099 -31.056   1.752  1.00  0.00    -0.309 OA
BRANCH  14  15
HETATM   15  C2  UNL     1     -43.611 -31.209   2.940  1.00  0.00     0.210 C
HETATM   16  S1  UNL     1     -44.906 -32.105   3.337  1.00  0.00    -0.033 SA
BRANCH  15  17
HETATM   17  N1  UNL     1     -42.982 -30.514   4.038  1.00  0.00    -0.366 N
HETATM   18  C1  UNL     1     -43.834 -29.538   4.725  1.00  0.00     0.149 C
ATOM     19  H1  UNL     1     -42.016 -30.689   4.316  1.00  0.00     0.161 HD
ENDBRANCH  15  17
ENDBRANCH  14  15
ENDBRANCH  13  14
ENDBRANCH  12  13
ENDBRANCH  10  12
ENDBRANCH   1  10
BRANCH   7  20
HETATM   20  N7  UNL     1     -47.048 -28.938   0.838  1.00  0.00    -0.383 N
ATOM     21  H72 UNL     1     -47.205 -28.764   1.832  1.00  0.00     0.157 HD
ATOM     22  H71 UNL     1     -47.106 -28.185   0.153  1.00  0.00     0.157 HD
ENDBRANCH   7  20
BRANCH   6  23
HETATM   23  N6  UNL     1     -49.085 -30.773   1.024  1.00  0.00    -0.108 N
HETATM   24  O2  UNL     1     -49.998 -30.481   0.275  1.00  0.00    -0.532 OA
HETATM   25  O3  UNL     1     -49.266 -30.835   2.369  1.00  0.00    -0.532 OA
ENDBRANCH   6  23
TORSDOF 8
ENDMDL