MODEL 4
REMARK VINA RESULT: -6.180942669      1.972      3.437
REMARK  5 active torsions:
REMARK  status: ('A' for Active; 'I' for Inactive)
REMARK    1  A    between atoms: O1_2  and  C2_3
REMARK    2  A    between atoms: C3_4  and  N1_5
REMARK    3  A    between atoms: C8_13  and  N4_14
REMARK    4  A    between atoms: N4_14  and  N5_16
REMARK       I    between atoms: N5_16  and  C9_18
REMARK    5  A    between atoms: C10_23  and  O2_24
ROOT
HETATM    1  N1  UNL     1     -48.324 -32.500   0.385  1.00  0.00    -0.319 N
ATOM      2  H1  UNL     1     -48.428 -33.478   0.113  1.00  0.00     0.172 HD
HETATM    3  C4  UNL     1     -49.439 -31.664   0.260  1.00  0.00     0.177 C
HETATM    4  N2  UNL     1     -50.374 -30.989   0.164  1.00  0.00    -0.172 NA
ENDROOT
BRANCH   1   5
HETATM    5  C3  UNL     1     -47.040 -32.067   0.872  1.00  0.00     0.157 C
HETATM    6  C2  UNL     1     -46.505 -30.893   0.049  1.00  0.00     0.179 C
HETATM    7  C10 UNL     1     -45.036 -30.770   0.489  1.00  0.00     0.206 C
HETATM    8  C8  UNL     1     -45.084 -30.257   1.916  1.00  0.00     0.368 C
HETATM    9  N3  UNL     1     -45.722 -31.276   2.721  1.00  0.00     0.117 N
HETATM   10  C5  UNL     1     -47.069 -31.577   2.279  1.00  0.00     0.247 C
HETATM   11  C7  UNL     1     -44.914 -32.433   2.939  1.00  0.00     0.313 C
HETATM   12  C6  UNL     1     -47.765 -32.437   3.268  1.00  0.00     0.045 C
BRANCH   6  13
HETATM   13  O1  UNL     1     -46.623 -31.059  -1.300  1.00  0.00    -0.386 OA
HETATM   14  C1  UNL     1     -46.414 -32.354  -1.745  1.00  0.00     0.202 C
ENDBRANCH   6  13
BRANCH   7  15
HETATM   15  O2  UNL     1     -44.377 -31.961   0.341  1.00  0.00    -0.384 OA
HETATM   16  C11 UNL     1     -43.174 -31.749  -0.321  1.00  0.00     0.202 C
ENDBRANCH   7  15
BRANCH   8  17
HETATM   17  N4  UNL     1     -43.804 -29.967   2.472  1.00  0.00    -0.299 N
ATOM     18  H4  UNL     1     -42.941 -30.255   2.012  1.00  0.00     0.182 HD
BRANCH  17  19
HETATM   19  N5  UNL     1     -43.793 -29.282   3.654  1.00  0.00    -0.276 N
HETATM   20  C9  UNL     1     -43.101 -29.810   4.780  1.00  0.00     0.200 C
HETATM   21  N6  UNL     1     -43.282 -29.325   5.963  1.00  0.00    -0.372 N
HETATM   22  N7  UNL     1     -42.194 -30.886   4.635  1.00  0.00    -0.062 NA
ATOM     23  H62 UNL     1     -43.936 -28.549   6.067  1.00  0.00     0.158 HD
ATOM     24  H61 UNL     1     -42.786 -29.704   6.770  1.00  0.00     0.158 HD
ATOM     25  H5  UNL     1     -44.280 -28.389   3.729  1.00  0.00     0.189 HD
ENDBRANCH  17  19
ENDBRANCH   8  17
ENDBRANCH   1   5
TORSDOF 5
ENDMDL