MODEL 1
REMARK VINA RESULT: -7.910693178      0.000      0.000
REMARK  6 active torsions:
REMARK  status: ('A' for Active; 'I' for Inactive)
REMARK    1  A    between atoms: C2_2  and  S1_3
REMARK    2  A    between atoms: S1_3  and  N1_6
REMARK    3  A    between atoms: N1_6  and  C3_8
REMARK    4  A    between atoms: C4_9  and  N2_10
REMARK    5  A    between atoms: N2_10  and  S2_12
REMARK    6  A    between atoms: C5_18  and  N4_19
ROOT
HETATM    1  C3  UNL     1     -45.785 -31.112   1.645  1.00  0.00     0.156 A
HETATM    2  C4  UNL     1     -45.428 -31.598   0.435  1.00  0.00     0.165 A
HETATM    3  N3  UNL     1     -44.261 -31.149  -0.117  1.00  0.00    -0.174 N
ATOM      4  H3  UNL     1     -43.980 -31.508  -1.029  1.00  0.00     0.186 HD
HETATM    5  C5  UNL     1     -43.475 -30.259   0.494  1.00  0.00     0.680 A
HETATM    6  N5  UNL     1     -43.802 -29.755   1.698  1.00  0.00    -0.154 N
ATOM      7  H5  UNL     1     -43.204 -29.075   2.167  1.00  0.00     0.187 HD
HETATM    8  C6  UNL     1     -44.961 -30.189   2.266  1.00  0.00     0.290 A
HETATM    9  O6  UNL     1     -45.268 -29.715   3.399  1.00  0.00    -0.265 OA
ENDROOT
BRANCH   1  10
HETATM   10  N1  UNL     1     -46.989 -31.453   2.275  1.00  0.00    -0.276 N
ATOM     11  H1  UNL     1     -47.006 -32.217   2.951  1.00  0.00     0.179 HD
BRANCH  10  12
HETATM   12  S1  UNL     1     -48.433 -30.600   1.921  1.00  0.00     0.230 S
HETATM   13  O1  UNL     1     -48.613 -30.448   0.414  1.00  0.00    -0.206 OA
HETATM   14  O2  UNL     1     -48.433 -29.273   2.548  1.00  0.00    -0.206 OA
BRANCH  12  15
HETATM   15  C2  UNL     1     -49.862 -31.502   2.531  1.00  0.00     0.159 C
HETATM   16  C1  UNL     1     -49.381 -32.820   3.102  1.00  0.00     0.023 C
ENDBRANCH  12  15
ENDBRANCH  10  12
ENDBRANCH   1  10
BRANCH   2  17
HETATM   17  N2  UNL     1     -46.201 -32.509  -0.284  1.00  0.00    -0.248 N
ATOM     18  H2  UNL     1     -46.819 -33.088   0.286  1.00  0.00     0.183 HD
BRANCH  17  19
HETATM   19  S2  UNL     1     -46.281 -32.812  -1.946  1.00  0.00     0.210 S
HETATM   20  O3  UNL     1     -46.964 -34.055  -2.364  1.00  0.00    -0.578 OA
HETATM   21  O4  UNL     1     -47.039 -31.666  -2.610  1.00  0.00    -0.578 OA
HETATM   22  O5  UNL     1     -44.729 -32.853  -2.644  1.00  0.00    -0.578 OA
ENDBRANCH  17  19
ENDBRANCH   2  17
BRANCH   5  23
HETATM   23  N4  UNL     1     -42.363 -29.826  -0.023  1.00  0.00    -0.234 N
ATOM     24  H42 UNL     1     -42.447 -29.051  -0.681  1.00  0.00     0.174 HD
ATOM     25  H41 UNL     1     -41.453 -30.226   0.207  1.00  0.00     0.174 HD
ENDBRANCH   5  23
TORSDOF 6
ENDMDL