MODEL 3
REMARK VINA RESULT: -7.587390335      2.777      7.834
REMARK  5 active torsions:
REMARK  status: ('A' for Active; 'I' for Inactive)
REMARK    1  A    between atoms: C1_2  and  C2_3
REMARK       I    between atoms: C1_2  and  N4_21
REMARK    2  A    between atoms: C2_3  and  S1_4
REMARK    3  A    between atoms: S1_4  and  C3_5
REMARK       I    between atoms: N3_11  and  C5_13
REMARK    4  A    between atoms: C5_13  and  C6_15
REMARK    5  A    between atoms: N4_21  and  C11_23
ROOT
HETATM    1  C3  UNL     1     -16.197 -35.931 -13.900  1.00  0.00     0.130 A
HETATM    2  N1  UNL     1     -16.058 -34.614 -13.919  1.00  0.00    -0.286 N
ATOM      3  H1  UNL     1     -16.683 -34.046 -14.491  1.00  0.00     0.188 HD
HETATM    4  N2  UNL     1     -15.150 -34.054 -13.232  1.00  0.00    -0.278 N
ATOM      5  H2  UNL     1     -15.038 -33.040 -13.242  1.00  0.00     0.189 HD
HETATM    6  C4  UNL     1     -14.343 -34.825 -12.491  1.00  0.00     0.168 A
HETATM    7  N3  UNL     1     -13.354 -34.430 -11.722  1.00  0.00    -0.306 N
ATOM      8  H3  UNL     1     -13.110 -33.444 -11.626  1.00  0.00     0.171 HD
HETATM    9  C5  UNL     1     -12.642 -35.444 -11.034  1.00  0.00     0.227 C
HETATM   10  O2  UNL     1     -12.783 -35.508  -9.793  1.00  0.00    -0.273 OA
HETATM   11  S2  UNL     1     -14.947 -36.387 -12.828  1.00  0.00    -0.026 SA
ENDROOT
BRANCH   1  12
HETATM   12  S1  UNL     1     -17.403 -36.946 -14.785  1.00  0.00    -0.094 SA
BRANCH  12  13
HETATM   13  C2  UNL     1     -18.359 -37.853 -13.568  1.00  0.00     0.184 C
BRANCH  13  14
HETATM   14  C1  UNL     1     -17.859 -39.234 -13.380  1.00  0.00     0.227 C
HETATM   15  O1  UNL     1     -18.192 -40.186 -14.128  1.00  0.00    -0.273 OA
HETATM   16  N4  UNL     1     -16.964 -39.533 -12.320  1.00  0.00    -0.356 N
ATOM     17  H4  UNL     1     -16.673 -38.779 -11.697  1.00  0.00     0.162 HD
BRANCH  16  18
HETATM   18  C11 UNL     1     -16.443 -40.867 -12.086  1.00  0.00     0.084 C
HETATM   19  C12 UNL     1     -16.468 -41.216 -10.632  1.00  0.00     0.025 C
HETATM   20  C13 UNL     1     -15.090 -41.537 -10.102  1.00  0.00     0.002 C
HETATM   21  C14 UNL     1     -14.087 -40.451 -10.455  1.00  0.00     0.000 C
HETATM   22  C15 UNL     1     -13.997 -40.288 -11.943  1.00  0.00     0.002 C
HETATM   23  C16 UNL     1     -15.059 -41.027 -12.693  1.00  0.00     0.025 C
ENDBRANCH  16  18
ENDBRANCH  13  14
ENDBRANCH  12  13
ENDBRANCH   1  12
BRANCH   9  24
HETATM   24  C6  UNL     1     -11.760 -36.407 -11.711  1.00  0.00     0.078 C
HETATM   25  C7  UNL     1     -11.645 -37.665 -10.880  1.00  0.00     0.014 C
HETATM   26  C8  UNL     1     -10.405 -38.317 -11.447  1.00  0.00     0.001 C
HETATM   27  C9  UNL     1      -9.615 -37.230 -12.151  1.00  0.00     0.001 C
HETATM   28  C10 UNL     1     -10.317 -35.925 -11.753  1.00  0.00     0.014 C
ENDBRANCH   9  24
TORSDOF 5
ENDMDL