MODEL 5
REMARK VINA RESULT: -7.098122351      0.705      1.165
REMARK  5 active torsions:
REMARK  status: ('A' for Active; 'I' for Inactive)
REMARK    1  A    between atoms: C3_6  and  N3_7
REMARK    2  A    between atoms: C6_10  and  N4_11
REMARK    3  A    between atoms: N4_11  and  C7_13
REMARK    4  A    between atoms: C16_22  and  C17_23
REMARK       I    between atoms: C17_23  and  N5_25
REMARK    5  A    between atoms: N5_25  and  C18_27
ROOT
HETATM    1  N3  UNL     1     -15.569 -40.847 -11.968  1.00  0.00    -0.378 N
HETATM    2  C4  UNL     1     -15.293 -40.990 -10.553  1.00  0.00     0.125 C
HETATM    3  C5  UNL     1     -14.894 -42.425 -10.299  1.00  0.00     0.044 C
HETATM    4  C6  UNL     1     -15.986 -43.352 -10.793  1.00  0.00     0.080 C
HETATM    5  C14 UNL     1     -16.098 -43.259 -12.259  1.00  0.00     0.044 C
HETATM    6  C15 UNL     1     -15.755 -41.954 -12.860  1.00  0.00     0.125 C
ENDROOT
BRANCH   1   7
HETATM    7  C3  UNL     1     -15.668 -39.540 -12.491  1.00  0.00     0.081 A
HETATM    8  C2  UNL     1     -16.919 -38.956 -12.718  1.00  0.00     0.139 A
HETATM    9  N2  UNL     1     -16.670 -37.722 -13.157  1.00  0.00    -0.307 N
HETATM   10  N1  UNL     1     -15.383 -37.492 -13.223  1.00  0.00    -0.290 N
ATOM     11  H2  UNL     1     -17.390 -37.044 -13.409  1.00  0.00     0.186 HD
HETATM   12  C1  UNL     1     -14.734 -36.253 -13.661  1.00  0.00     0.178 C
HETATM   13  C16 UNL     1     -14.716 -38.615 -12.812  1.00  0.00     0.146 A
BRANCH  13  14
HETATM   14  C17 UNL     1     -13.252 -38.711 -12.757  1.00  0.00     0.272 C
HETATM   15  O1  UNL     1     -12.672 -39.428 -13.651  1.00  0.00    -0.266 OA
HETATM   16  N5  UNL     1     -12.414 -38.098 -11.817  1.00  0.00    -0.351 N
ATOM     17  H5  UNL     1     -12.814 -37.519 -11.078  1.00  0.00     0.163 HD
BRANCH  16  18
HETATM   18  C18 UNL     1     -10.959 -38.288 -11.897  1.00  0.00     0.085 A
HETATM   19  C19 UNL     1     -10.065 -37.113 -12.039  1.00  0.00     0.027 A
HETATM   20  C20 UNL     1     -10.196 -37.814 -10.706  1.00  0.00     0.027 A
ENDBRANCH  16  18
ENDBRANCH  13  14
ENDBRANCH   1   7
BRANCH   4  21
HETATM   21  N4  UNL     1     -15.693 -44.641 -10.270  1.00  0.00    -0.413 N
ATOM     22  H4  UNL     1     -16.235 -45.457 -10.552  1.00  0.00     0.154 HD
BRANCH  21  23
HETATM   23  C7  UNL     1     -14.635 -44.759  -9.355  1.00  0.00     0.077 C
HETATM   24  C8  UNL     1     -14.152 -46.190  -9.305  1.00  0.00     0.024 C
HETATM   25  C9  UNL     1     -15.236 -47.078  -8.774  1.00  0.00     0.002 C
HETATM   26  C10 UNL     1     -15.561 -46.871  -7.324  1.00  0.00     0.000 C
HETATM   27  C11 UNL     1     -14.442 -46.224  -6.546  1.00  0.00     0.000 C
HETATM   28  C12 UNL     1     -14.236 -44.779  -6.883  1.00  0.00     0.002 C
HETATM   29  C13 UNL     1     -15.136 -44.296  -7.986  1.00  0.00     0.024 C
ENDBRANCH  21  23
ENDBRANCH   4  21
TORSDOF 5
ENDMDL