MODEL 1
REMARK VINA RESULT: -7.159172807      0.000      0.000
REMARK  6 active torsions:
REMARK  status: ('A' for Active; 'I' for Inactive)
REMARK    1  A    between atoms: C2_4  and  N2_5
REMARK    2  A    between atoms: N2_5  and  C3_7
REMARK    3  A    between atoms: C3_7  and  C4_8
REMARK    4  A    between atoms: C4_8  and  C5_9
REMARK    5  A    between atoms: C5_9  and  N3_10
REMARK    6  A    between atoms: C11_17  and  C12_18
ROOT
HETATM    1  C1  UNL     1     -16.789 -36.563 -13.652  1.00  0.00     0.182 A
HETATM    2  N1  UNL     1     -15.590 -37.004 -13.282  1.00  0.00    -0.338 N
ATOM      3  H1  UNL     1     -14.820 -36.334 -13.306  1.00  0.00     0.168 HD
HETATM    4  C2  UNL     1     -15.305 -38.246 -12.882  1.00  0.00     0.119 A
HETATM    5  C10 UNL     1     -16.348 -39.206 -12.834  1.00  0.00     0.049 A
HETATM    6  C11 UNL     1     -16.293 -40.522 -12.413  1.00  0.00    -0.031 A
HETATM    7  C18 UNL     1     -17.477 -41.212 -12.434  1.00  0.00     0.060 A
HETATM    8  S1  UNL     1     -18.620 -40.057 -13.017  1.00  0.00    -0.083 SA
HETATM    9  C19 UNL     1     -17.568 -38.742 -13.214  1.00  0.00     0.089 A
HETATM   10  N4  UNL     1     -17.791 -37.431 -13.621  1.00  0.00    -0.346 N
ATOM     11  H4  UNL     1     -18.728 -37.137 -13.896  1.00  0.00     0.167 HD
ENDROOT
BRANCH   4  12
HETATM   12  N2  UNL     1     -14.145 -38.526 -12.591  1.00  0.00    -0.355 N
ATOM     13  H2  UNL     1     -14.110 -39.030 -11.704  1.00  0.00     0.166 HD
BRANCH  12  14
HETATM   14  C3  UNL     1     -12.865 -38.362 -13.110  1.00  0.00     0.064 C
BRANCH  14  15
HETATM   15  C4  UNL     1     -11.780 -38.282 -12.050  1.00  0.00     0.064 C
BRANCH  15  16
HETATM   16  C5  UNL     1     -12.308 -37.534 -10.862  1.00  0.00     0.122 C
BRANCH  16  17
HETATM   17  N3  UNL     1     -11.984 -36.141 -10.888  1.00  0.00    -0.408 N
HETATM   18  C6  UNL     1     -11.044 -35.782  -9.847  1.00  0.00     0.143 C
HETATM   19  C7  UNL     1     -11.370 -34.537  -9.097  1.00  0.00     0.187 C
HETATM   20  O1  UNL     1     -12.751 -34.613  -8.789  1.00  0.00    -0.388 OA
HETATM   21  C8  UNL     1     -13.387 -34.307  -9.968  1.00  0.00     0.187 C
HETATM   22  C9  UNL     1     -13.041 -35.229 -11.118  1.00  0.00     0.143 C
ENDBRANCH  16  17
ENDBRANCH  15  16
ENDBRANCH  14  15
ENDBRANCH  12  14
ENDBRANCH   4  12
BRANCH   6  23
HETATM   23  C12 UNL     1     -14.984 -41.224 -12.049  1.00  0.00     0.020 C
HETATM   24  C13 UNL     1     -14.783 -41.289 -10.573  1.00  0.00     0.009 C
HETATM   25  C14 UNL     1     -15.784 -42.015  -9.765  1.00  0.00     0.001 C
HETATM   26  C15 UNL     1     -15.582 -43.489 -10.075  1.00  0.00     0.000 C
HETATM   27  C16 UNL     1     -15.564 -43.693 -11.535  1.00  0.00     0.001 C
HETATM   28  C17 UNL     1     -15.079 -42.700 -12.486  1.00  0.00     0.009 C
ENDBRANCH   6  23
TORSDOF 6
ENDMDL