MODEL 4
REMARK VINA RESULT: -6.454964209      3.555      7.684
REMARK  8 active torsions:
REMARK  status: ('A' for Active; 'I' for Inactive)
REMARK    1  A    between atoms: C2_2  and  C3_3
REMARK    2  A    between atoms: C3_3  and  O1_4
REMARK    3  A    between atoms: C3_3  and  C6_8
REMARK    4  A    between atoms: O1_4  and  C4_5
REMARK    5  A    between atoms: C8_11  and  C9_12
REMARK    6  A    between atoms: C9_12  and  C10_13
REMARK    7  A    between atoms: C20_23  and  O4_24
REMARK    8  A    between atoms: C21_26  and  O5_27
ROOT
HETATM    1  C6  UNL     1     -15.168 -43.132 -11.040  1.00  0.00     0.116 C
HETATM    2  C7  UNL     1     -15.398 -44.017  -9.849  1.00  0.00     0.140 C
HETATM    3  O3  UNL     1     -15.563 -43.469  -8.787  1.00  0.00    -0.297 OA
HETATM    4  C8  UNL     1     -15.432 -45.481  -9.904  1.00  0.00     0.059 C
HETATM    5  C19 UNL     1     -14.455 -45.857 -11.063  1.00  0.00     0.046 C
HETATM    6  C20 UNL     1     -14.979 -45.296 -12.341  1.00  0.00     0.148 C
HETATM    7  C21 UNL     1     -14.992 -43.785 -12.330  1.00  0.00     0.160 C
ENDROOT
BRANCH   4   8
HETATM    8  C9  UNL     1     -14.967 -46.234  -8.746  1.00  0.00     0.022 C
BRANCH   8   9
HETATM    9  C10 UNL     1     -15.855 -46.831  -7.753  1.00  0.00     0.022 C
HETATM   10  C11 UNL     1     -15.177 -46.686  -6.393  1.00  0.00    -0.083 C
HETATM   11  C12 UNL     1     -14.674 -45.282  -6.094  1.00  0.00     0.043 C
HETATM   12  C13 UNL     1     -15.029 -47.663  -5.549  1.00  0.00    -0.024 C
HETATM   13  C14 UNL     1     -15.482 -49.064  -5.755  1.00  0.00     0.028 C
HETATM   14  C15 UNL     1     -15.359 -49.257  -7.258  1.00  0.00     0.013 C
HETATM   15  C16 UNL     1     -16.326 -48.214  -7.869  1.00  0.00    -0.040 C
HETATM   16  C17 UNL     1     -16.674 -48.772  -9.202  1.00  0.00     0.015 C
HETATM   17  C18 UNL     1     -17.602 -48.411  -7.010  1.00  0.00     0.015 C
ENDBRANCH   8   9
ENDBRANCH   4   8
BRANCH   1  18
HETATM   18  C3  UNL     1     -16.139 -41.983 -11.088  1.00  0.00     0.145 C
BRANCH  18  19
HETATM   19  C2  UNL     1     -15.594 -40.714 -10.507  1.00  0.00     0.029 C
HETATM   20  C1  UNL     1     -14.133 -40.517 -10.500  1.00  0.00     0.007 C
ENDBRANCH  18  19
BRANCH  18  21
HETATM   21  O1  UNL     1     -16.307 -41.789 -12.530  1.00  0.00    -0.315 OA
BRANCH  21  22
HETATM   22  C4  UNL     1     -17.089 -40.768 -13.028  1.00  0.00     0.255 C
HETATM   23  C5  UNL     1     -18.558 -40.687 -12.695  1.00  0.00     0.126 C
HETATM   24  O2  UNL     1     -16.546 -39.913 -13.760  1.00  0.00    -0.266 OA
ENDBRANCH  21  22
ENDBRANCH  18  21
ENDBRANCH   1  18
BRANCH   6  25
HETATM   25  O4  UNL     1     -14.134 -45.695 -13.374  1.00  0.00    -0.393 OA
ATOM     26  H4  UNL     1     -13.522 -44.990 -13.551  1.00  0.00     0.210 HD
ENDBRANCH   6  25
BRANCH   7  27
HETATM   27  O5  UNL     1     -13.697 -43.393 -12.817  1.00  0.00    -0.392 OA
ATOM     28  H5  UNL     1     -13.232 -43.014 -12.081  1.00  0.00     0.210 HD
ENDBRANCH   7  27
TORSDOF 8
ENDMDL