MODEL 4
REMARK VINA RESULT: -6.569875281      2.186      5.977
REMARK  7 active torsions:
REMARK  status: ('A' for Active; 'I' for Inactive)
REMARK    1  A    between atoms: C2_2  and  C3_4
REMARK    2  A    between atoms: C6_7  and  C7_8
REMARK    3  A    between atoms: C13_16  and  O4_18
REMARK    4  A    between atoms: O4_18  and  C15_19
REMARK    5  A    between atoms: C15_19  and  C16_21
REMARK    6  A    between atoms: C16_21  and  C17_22
REMARK    7  A    between atoms: C17_22  and  C18_23
ROOT
HETATM    1  C3  UNL     1     -15.226 -44.618 -10.801  1.00  0.00    -0.013 C
HETATM    2  C4  UNL     1     -15.818 -44.160 -12.096  1.00  0.00     0.052 C
HETATM    3  C5  UNL     1     -14.602 -45.764 -10.692  1.00  0.00    -0.048 C
HETATM    4  C6  UNL     1     -14.325 -46.808 -11.753  1.00  0.00     0.122 C
HETATM    5  C8  UNL     1     -13.099 -47.132 -10.906  1.00  0.00     0.019 C
HETATM    6  C9  UNL     1     -12.664 -48.537 -10.937  1.00  0.00    -0.013 C
HETATM    7  C10 UNL     1     -12.198 -48.994 -12.277  1.00  0.00     0.010 C
HETATM    8  C11 UNL     1     -13.781 -49.494 -10.491  1.00  0.00     0.007 C
HETATM    9  C12 UNL     1     -14.106 -49.061  -9.111  1.00  0.00     0.039 C
HETATM   10  C13 UNL     1     -14.769 -47.733  -9.091  1.00  0.00     0.075 C
HETATM   11  C14 UNL     1     -14.808 -47.361  -7.584  1.00  0.00     0.047 C
HETATM   12  C19 UNL     1     -13.913 -46.670  -9.743  1.00  0.00     0.056 C
ENDROOT
BRANCH  10  13
HETATM   13  O4  UNL     1     -16.035 -47.624  -9.627  1.00  0.00    -0.310 OA
BRANCH  13  14
HETATM   14  C15 UNL     1     -16.854 -48.714  -9.807  1.00  0.00     0.260 C
HETATM   15  O5  UNL     1     -17.205 -48.939 -10.988  1.00  0.00    -0.265 OA
BRANCH  14  16
HETATM   16  C16 UNL     1     -17.311 -49.582  -8.695  1.00  0.00     0.121 C
BRANCH  16  17
HETATM   17  C17 UNL     1     -18.615 -49.081  -8.144  1.00  0.00     0.123 C
BRANCH  17  18
HETATM   18  C18 UNL     1     -18.546 -48.810  -6.693  1.00  0.00     0.172 C
HETATM   19  O6  UNL     1     -17.482 -48.582  -6.074  1.00  0.00    -0.648 OA
HETATM   20  O7  UNL     1     -19.741 -48.802  -5.950  1.00  0.00    -0.648 OA
ENDBRANCH  17  18
ENDBRANCH  16  17
ENDBRANCH  14  16
ENDBRANCH  13  14
ENDBRANCH  10  13
BRANCH   1  21
HETATM   21  C2  UNL     1     -15.402 -43.723  -9.679  1.00  0.00     0.151 C
HETATM   22  C1  UNL     1     -15.730 -42.276  -9.835  1.00  0.00     0.096 C
HETATM   23  O1  UNL     1     -15.281 -44.148  -8.524  1.00  0.00    -0.293 OA
ENDBRANCH   1  21
BRANCH   4  24
HETATM   24  C7  UNL     1     -13.863 -46.275 -13.047  1.00  0.00     0.181 C
HETATM   25  O2  UNL     1     -14.448 -46.509 -14.135  1.00  0.00    -0.647 OA
HETATM   26  O3  UNL     1     -12.719 -45.457 -13.157  1.00  0.00    -0.647 OA
ENDBRANCH   4  24
TORSDOF 7
ENDMDL