MODEL 4
REMARK VINA RESULT: -5.838874299      7.458      9.664
REMARK  6 active torsions:
REMARK  status: ('A' for Active; 'I' for Inactive)
REMARK    1  A    between atoms: C2_2  and  O1_3
REMARK    2  A    between atoms: O1_3  and  C3_4
REMARK    3  A    between atoms: C3_4  and  C4_6
REMARK    4  A    between atoms: C5_7  and  C6_8
REMARK    5  A    between atoms: C14_18  and  C15_19
REMARK    6  A    between atoms: C15_19  and  C16_20
ROOT
HETATM    1  C4  UNL     1     -15.468 -48.670 -11.472  1.00  0.00     0.102 C
HETATM    2  C5  UNL     1     -16.093 -48.321 -10.381  1.00  0.00     0.053 C
HETATM    3  N1  UNL     1     -15.580 -47.303  -9.473  1.00  0.00    -0.375 N
ATOM      4  H1  UNL     1     -15.821 -47.472  -8.497  1.00  0.00     0.161 HD
HETATM    5  C9  UNL     1     -14.779 -46.073  -9.678  1.00  0.00     0.055 C
HETATM    6  C10 UNL     1     -15.040 -45.510 -11.020  1.00  0.00     0.036 C
HETATM    7  C11 UNL     1     -15.740 -44.171 -11.112  1.00  0.00     0.003 C
HETATM    8  C12 UNL     1     -15.024 -43.266 -10.119  1.00  0.00     0.004 C
HETATM    9  C13 UNL     1     -15.559 -43.817  -8.821  1.00  0.00     0.037 C
HETATM   10  C14 UNL     1     -15.044 -45.213  -8.505  1.00  0.00    -0.045 C
HETATM   11  C17 UNL     1     -13.345 -46.579  -9.679  1.00  0.00     0.046 C
HETATM   12  C18 UNL     1     -12.929 -47.639 -10.582  1.00  0.00     0.082 C
HETATM   13  S1  UNL     1     -13.852 -47.990 -12.043  1.00  0.00    -0.121 SA
ENDROOT
BRANCH  10  14
HETATM   14  C15 UNL     1     -14.125 -45.068  -7.369  1.00  0.00     0.089 C
BRANCH  14  15
HETATM   15  C16 UNL     1     -14.025 -46.007  -6.279  1.00  0.00     0.198 C
HETATM   16  O3  UNL     1     -14.715 -47.059  -6.268  1.00  0.00    -0.644 OA
HETATM   17  O4  UNL     1     -13.209 -45.894  -5.160  1.00  0.00    -0.644 OA
ENDBRANCH  14  15
ENDBRANCH  10  14
BRANCH   2  18
HETATM   18  C6  UNL     1     -17.371 -48.933 -10.032  1.00  0.00    -0.060 C
HETATM   19  C7  UNL     1     -18.620 -48.716 -10.790  1.00  0.00     0.045 C
HETATM   20  C8  UNL     1     -17.471 -49.602  -8.686  1.00  0.00     0.045 C
ENDBRANCH   2  18
BRANCH   1  21
HETATM   21  C3  UNL     1     -16.012 -49.621 -12.360  1.00  0.00     0.302 C
HETATM   22  O2  UNL     1     -16.522 -49.541 -13.466  1.00  0.00    -0.259 OA
BRANCH  21  23
HETATM   23  O1  UNL     1     -15.993 -50.989 -11.919  1.00  0.00    -0.317 OA
BRANCH  23  24
HETATM   24  C2  UNL     1     -14.759 -51.531 -11.405  1.00  0.00     0.174 C
HETATM   25  C1  UNL     1     -15.025 -52.234 -10.107  1.00  0.00     0.034 C
ENDBRANCH  23  24
ENDBRANCH  21  23
ENDBRANCH   1  21
TORSDOF 6
ENDMDL