MODEL 4
REMARK VINA RESULT: -7.710782918      7.340     12.899
REMARK  8 active torsions:
REMARK  status: ('A' for Active; 'I' for Inactive)
REMARK    1  A    between atoms: C2_2  and  C3_3
REMARK    2  A    between atoms: C3_3  and  C4_4
REMARK    3  A    between atoms: C4_4  and  C5_5
REMARK    4  A    between atoms: C5_5  and  C6_6
REMARK    5  A    between atoms: C7_7  and  C8_8
REMARK    6  A    between atoms: N1_10  and  C10_11
REMARK    7  A    between atoms: C12_13  and  O1_14
REMARK    8  A    between atoms: C13_16  and  C14_17
ROOT
HETATM    1  C8  UNL     1     -14.937 -45.686  -6.804  1.00  0.00     0.101 A
HETATM    2  C9  UNL     1     -15.771 -46.758  -6.984  1.00  0.00     0.124 A
HETATM    3  N1  UNL     1     -15.802 -47.827  -6.154  1.00  0.00    -0.281 N
HETATM    4  C20 UNL     1     -14.953 -47.795  -5.111  1.00  0.00     0.331 A
HETATM    5  O3  UNL     1     -14.971 -48.778  -4.334  1.00  0.00    -0.246 OA
HETATM    6  N2  UNL     1     -14.113 -46.748  -4.904  1.00  0.00    -0.274 N
ATOM      7  H2  UNL     1     -13.487 -46.768  -4.098  1.00  0.00     0.173 HD
HETATM    8  C21 UNL     1     -14.083 -45.688  -5.728  1.00  0.00     0.269 A
HETATM    9  O4  UNL     1     -13.316 -44.702  -5.563  1.00  0.00    -0.266 OA
ENDROOT
BRANCH   3  10
HETATM   10  C10 UNL     1     -16.710 -48.880  -6.442  1.00  0.00     0.235 C
HETATM   11  C11 UNL     1     -16.548 -49.423  -7.872  1.00  0.00     0.088 C
HETATM   12  C12 UNL     1     -17.941 -50.097  -7.936  1.00  0.00     0.151 C
HETATM   13  C13 UNL     1     -18.724 -48.963  -7.399  1.00  0.00     0.157 C
HETATM   14  O2  UNL     1     -18.037 -48.587  -6.262  1.00  0.00    -0.358 OA
BRANCH  12  15
HETATM   15  O1  UNL     1     -17.785 -51.153  -7.007  1.00  0.00    -0.393 OA
ATOM     16  H1  UNL     1     -18.410 -50.906  -6.335  1.00  0.00     0.210 HD
ENDBRANCH  12  15
BRANCH  13  17
HETATM   17  C14 UNL     1     -20.195 -49.126  -7.236  1.00  0.00     0.017 C
HETATM   18  C15 UNL     1     -20.655 -49.630  -5.925  1.00  0.00     0.007 C
HETATM   19  C16 UNL     1     -21.086 -51.056  -5.854  1.00  0.00     0.000 C
HETATM   20  C17 UNL     1     -22.109 -51.276  -6.978  1.00  0.00     0.000 C
HETATM   21  C18 UNL     1     -21.251 -51.192  -8.250  1.00  0.00     0.000 C
HETATM   22  C19 UNL     1     -20.759 -49.812  -8.445  1.00  0.00     0.007 C
ENDBRANCH  13  17
ENDBRANCH   3  10
BRANCH   1  23
HETATM   23  C7  UNL     1     -14.919 -44.558  -7.697  1.00  0.00    -0.060 C
HETATM   24  C6  UNL     1     -14.920 -43.622  -8.456  1.00  0.00    -0.101 C
BRANCH  24  25
HETATM   25  C5  UNL     1     -14.943 -42.473  -9.397  1.00  0.00     0.094 C
BRANCH  25  26
HETATM   26  C4  UNL     1     -15.872 -42.723 -10.538  1.00  0.00     0.012 C
BRANCH  26  27
HETATM   27  C3  UNL     1     -15.187 -43.558 -11.582  1.00  0.00     0.000 C
BRANCH  27  28
HETATM   28  C2  UNL     1     -15.831 -44.891 -11.820  1.00  0.00    -0.005 C
HETATM   29  C1  UNL     1     -14.983 -46.011 -11.206  1.00  0.00     0.005 C
ENDBRANCH  27  28
ENDBRANCH  26  27
ENDBRANCH  25  26
ENDBRANCH  24  25
ENDBRANCH   1  23
TORSDOF 8
ENDMDL