MODEL 4
REMARK VINA RESULT: -7.519078183      0.802      1.053
REMARK  6 active torsions:
REMARK  status: ('A' for Active; 'I' for Inactive)
REMARK    1  A    between atoms: O1_1  and  C1_3
REMARK    2  A    between atoms: C3_5  and  O2_6
REMARK    3  A    between atoms: O2_6  and  C4_7
REMARK    4  A    between atoms: C4_7  and  C5_8
REMARK    5  A    between atoms: C11_15  and  C12_16
REMARK    6  A    between atoms: N1_19  and  C15_20
ROOT
HETATM    1  C1  UNL     1     -15.243 -45.116 -10.327  1.00  0.00     0.078 A
HETATM    2  C2  UNL     1     -15.089 -46.018  -9.246  1.00  0.00     0.074 A
HETATM    3  C3  UNL     1     -14.967 -45.604  -7.958  1.00  0.00     0.071 A
HETATM    4  C9  UNL     1     -15.002 -44.195  -7.754  1.00  0.00     0.038 A
HETATM    5  C10 UNL     1     -15.148 -43.340  -8.795  1.00  0.00     0.017 A
HETATM    6  C11 UNL     1     -15.274 -43.787 -10.131  1.00  0.00    -0.000 A
ENDROOT
BRANCH   6   7
HETATM    7  C12 UNL     1     -15.300 -42.742 -11.113  1.00  0.00    -0.064 C
HETATM    8  C13 UNL     1     -14.825 -41.457 -10.455  1.00  0.00     0.054 C
HETATM    9  C14 UNL     1     -15.721 -40.306 -10.882  1.00  0.00     0.121 C
HETATM   10  N1  UNL     1     -15.697 -40.167 -12.288  1.00  0.00    -0.407 N
HETATM   11  C20 UNL     1     -15.855 -41.371 -13.009  1.00  0.00     0.121 C
HETATM   12  C21 UNL     1     -16.370 -42.488 -12.042  1.00  0.00     0.054 C
BRANCH  10  13
HETATM   13  C15 UNL     1     -16.229 -39.011 -12.875  1.00  0.00     0.082 C
HETATM   14  C16 UNL     1     -15.724 -38.624 -14.227  1.00  0.00     0.052 C
HETATM   15  C17 UNL     1     -16.698 -39.035 -15.310  1.00  0.00     0.234 C
HETATM   16  N2  UNL     1     -17.853 -38.159 -15.222  1.00  0.00    -0.075 N
HETATM   17  C18 UNL     1     -18.225 -37.864 -13.864  1.00  0.00     0.234 C
ATOM     18  H22 UNL     1     -17.704 -37.302 -15.754  1.00  0.00     0.277 HD
ATOM     19  H21 UNL     1     -18.642 -38.542 -15.742  1.00  0.00     0.277 HD
HETATM   20  C19 UNL     1     -17.747 -39.004 -12.966  1.00  0.00     0.052 C
ENDBRANCH  10  13
ENDBRANCH   6   7
BRANCH   1  21
HETATM   21  O1  UNL     1     -15.362 -45.672 -11.553  1.00  0.00    -0.360 OA
ATOM     22  H1  UNL     1     -14.560 -45.995 -11.946  1.00  0.00     0.217 HD
ENDBRANCH   1  21
BRANCH   3  23
HETATM   23  O2  UNL     1     -14.826 -46.414  -6.952  1.00  0.00    -0.349 OA
BRANCH  23  24
HETATM   24  C4  UNL     1     -14.953 -47.150  -5.928  1.00  0.00     0.207 C
BRANCH  24  25
HETATM   25  C5  UNL     1     -15.814 -48.426  -5.968  1.00  0.00     0.145 C
HETATM   26  C6  UNL     1     -16.990 -48.269  -6.867  1.00  0.00     0.036 C
HETATM   27  C7  UNL     1     -16.788 -49.188  -8.030  1.00  0.00     0.029 C
HETATM   28  C8  UNL     1     -15.314 -49.532  -7.874  1.00  0.00     0.168 C
HETATM   29  O3  UNL     1     -15.036 -49.385  -6.545  1.00  0.00    -0.384 OA
ENDBRANCH  24  25
ENDBRANCH  23  24
ENDBRANCH   3  23
TORSDOF 6
ENDMDL