MODEL 1
REMARK VINA RESULT: -8.672777520      0.000      0.000
REMARK  5 active torsions:
REMARK  status: ('A' for Active; 'I' for Inactive)
REMARK    1  A    between atoms: N1_1  and  C1_4
REMARK    2  A    between atoms: N3_9  and  O1_10
REMARK    3  A    between atoms: C6_19  and  C7_20
REMARK    4  A    between atoms: N6_21  and  N7_23
REMARK    5  A    between atoms: N7_23  and  C8_25
ROOT
HETATM    1  C1  UNL     1      29.916 -22.998 -18.693  1.00  0.00     0.115 A
HETATM    2  C2  UNL     1      28.650 -23.556 -18.855  1.00  0.00     0.082 A
HETATM    3  C3  UNL     1      27.989 -23.299 -20.037  1.00  0.00     0.083 A
HETATM    4  N2  UNL     1      26.766 -23.817 -20.235  1.00  0.00    -0.271 N
ATOM      5  H2  UNL     1      26.346 -24.394 -19.506  1.00  0.00     0.189 HD
HETATM    6  N3  UNL     1      26.087 -23.596 -21.362  1.00  0.00    -0.144 N
HETATM    7  C4  UNL     1      26.594 -22.849 -22.343  1.00  0.00     0.180 A
HETATM    8  N4  UNL     1      25.949 -22.598 -23.493  1.00  0.00    -0.279 N
ATOM      9  H4  UNL     1      25.019 -22.995 -23.636  1.00  0.00     0.189 HD
HETATM   10  N5  UNL     1      26.479 -21.855 -24.442  1.00  0.00    -0.264 N
ATOM     11  H5  UNL     1      25.937 -21.704 -25.293  1.00  0.00     0.190 HD
HETATM   12  C5  UNL     1      27.681 -21.291 -24.356  1.00  0.00     0.272 A
HETATM   13  O2  UNL     1      28.126 -20.588 -25.314  1.00  0.00    -0.266 OA
HETATM   14  C6  UNL     1      28.440 -21.496 -23.183  1.00  0.00     0.067 A
HETATM   15  C12 UNL     1      27.939 -22.259 -22.164  1.00  0.00     0.061 A
HETATM   16  C13 UNL     1      28.610 -22.507 -20.991  1.00  0.00     0.091 A
HETATM   17  N10 UNL     1      29.821 -22.015 -20.753  1.00  0.00    -0.296 N
ATOM     18  H10 UNL     1      30.254 -21.436 -21.473  1.00  0.00     0.187 HD
HETATM   19  N11 UNL     1      30.496 -22.230 -19.643  1.00  0.00    -0.285 N
ATOM     20  H11 UNL     1      31.425 -21.830 -19.504  1.00  0.00     0.188 HD
ENDROOT
BRANCH  14  21
HETATM   21  C7  UNL     1      29.733 -20.879 -23.111  1.00  0.00     0.126 C
HETATM   22  N6  UNL     1      30.643 -21.299 -23.966  1.00  0.00    -0.297 N
ATOM     23  H6  UNL     1      30.399 -22.032 -24.633  1.00  0.00     0.186 HD
BRANCH  22  24
HETATM   24  N7  UNL     1      31.925 -20.769 -23.981  1.00  0.00    -0.133 N
ATOM     25  H7  UNL     1      32.292 -20.302 -24.810  1.00  0.00     0.205 HD
BRANCH  24  26
HETATM   26  C8  UNL     1      32.710 -20.899 -22.806  1.00  0.00     0.688 C
HETATM   27  N8  UNL     1      33.005 -22.083 -22.396  1.00  0.00    -0.225 N
HETATM   28  C9  UNL     1      33.803 -22.218 -21.201  1.00  0.00     0.139 C
ATOM     29  H8  UNL     1      32.682 -22.906 -22.904  1.00  0.00     0.177 HD
HETATM   30  C10 UNL     1      34.953 -21.242 -21.297  1.00  0.00     0.040 C
HETATM   31  C11 UNL     1      34.383 -19.833 -21.260  1.00  0.00     0.139 C
HETATM   32  N9  UNL     1      33.178 -19.773 -22.072  1.00  0.00    -0.225 N
ATOM     33  H9  UNL     1      32.653 -18.900 -22.116  1.00  0.00     0.177 HD
ENDBRANCH  24  26
ENDBRANCH  22  24
ENDBRANCH  14  21
BRANCH   6  34
HETATM   34  O1  UNL     1      24.821 -24.142 -21.548  1.00  0.00    -0.266 OA
ATOM     35  H1  UNL     1      24.608 -24.610 -22.346  1.00  0.00     0.247 HD
ENDBRANCH   6  34
BRANCH   1  36
HETATM   36  N1  UNL     1      30.520 -23.247 -17.584  1.00  0.00    -0.384 N
ATOM     37  H12 UNL     1      30.480 -24.176 -17.162  1.00  0.00     0.157 HD
ATOM     38  H11 UNL     1      31.033 -22.475 -17.158  1.00  0.00     0.157 HD
ENDBRANCH   1  36
TORSDOF 5
ENDMDL