MODEL 4
REMARK VINA RESULT: -6.188851720      5.024      6.552
REMARK  3 active torsions:
REMARK  status: ('A' for Active; 'I' for Inactive)
REMARK    1  A    between atoms: O1_2  and  C2_3
REMARK       I    between atoms: C2_3  and  N1_5
REMARK    2  A    between atoms: N1_5  and  C3_7
REMARK    3  A    between atoms: C6_19  and  O6_20
ROOT
HETATM    1  C3  UNL     1      28.525 -21.665 -22.569  1.00  0.00     0.239 C
HETATM    2  N2  UNL     1      28.381 -23.110 -22.456  1.00  0.00    -0.272 N
ATOM      3  H2  UNL     1      29.004 -23.869 -22.733  1.00  0.00     0.176 HD
HETATM    4  S1  UNL     1      26.806 -23.136 -21.696  1.00  0.00     0.360 S
HETATM    5  O3  UNL     1      25.942 -24.222 -22.182  1.00  0.00    -0.176 OA
HETATM    6  O4  UNL     1      26.936 -23.217 -20.211  1.00  0.00    -0.176 OA
HETATM    7  O5  UNL     1      26.309 -21.594 -22.182  1.00  0.00    -0.240 OA
HETATM    8  C4  UNL     1      27.255 -21.214 -23.185  1.00  0.00     0.168 C
HETATM    9  C5  UNL     1      27.102 -19.718 -23.257  1.00  0.00     0.209 C
HETATM   10  S2  UNL     1      27.827 -18.955 -24.693  1.00  0.00    -0.069 SA
HETATM   11  N3  UNL     1      25.668 -19.477 -23.359  1.00  0.00    -0.126 NA
HETATM   12  N4  UNL     1      25.278 -19.978 -24.609  1.00  0.00    -0.114 NA
HETATM   13  C6  UNL     1      25.346 -21.432 -24.642  1.00  0.00     0.247 C
HETATM   14  C7  UNL     1      26.793 -21.901 -24.414  1.00  0.00     0.181 C
HETATM   15  C8  UNL     1      27.595 -21.734 -25.592  1.00  0.00     0.071 C
HETATM   16  N5  UNL     1      28.217 -21.611 -26.542  1.00  0.00    -0.197 NA
ENDROOT
BRANCH  13  17
HETATM   17  O6  UNL     1      24.829 -21.889 -25.817  1.00  0.00    -0.377 OA
ATOM     18  H6  UNL     1      24.595 -22.806 -25.727  1.00  0.00     0.211 HD
ENDBRANCH  13  17
BRANCH   1  19
HETATM   19  N1  UNL     1      29.743 -21.234 -23.122  1.00  0.00    -0.312 N
HETATM   20  C2  UNL     1      30.985 -21.638 -22.583  1.00  0.00     0.361 C
HETATM   21  O2  UNL     1      31.072 -22.410 -21.572  1.00  0.00    -0.238 OA
ATOM     22  H1  UNL     1      29.730 -20.615 -23.933  1.00  0.00     0.167 HD
BRANCH  20  23
HETATM   23  O1  UNL     1      32.216 -21.230 -23.106  1.00  0.00    -0.309 OA
HETATM   24  C1  UNL     1      33.215 -20.642 -22.280  1.00  0.00     0.215 C
ENDBRANCH  20  23
ENDBRANCH   1  19
TORSDOF 3
ENDMDL