MODEL 2
REMARK VINA RESULT: -7.108684574      1.341      1.481
REMARK  7 active torsions:
REMARK  status: ('A' for Active; 'I' for Inactive)
REMARK    1  A    between atoms: O1_2  and  C2_3
REMARK    2  A    between atoms: C2_3  and  C3_5
REMARK    3  A    between atoms: C3_5  and  O3_6
REMARK    4  A    between atoms: C6_11  and  O5_12
REMARK    5  A    between atoms: C7_14  and  O6_15
REMARK    6  A    between atoms: C8_17  and  O7_18
REMARK    7  A    between atoms: C13_25  and  O9_26
ROOT
HETATM    1  C3  UNL     1      28.758 -20.534 -22.863  1.00  0.00     0.275 C
HETATM    2  C4  UNL     1      30.202 -20.707 -22.789  1.00  0.00     0.215 C
HETATM    3  O4  UNL     1      30.847 -19.852 -23.450  1.00  0.00    -0.288 OA
HETATM    4  C5  UNL     1      30.989 -21.696 -22.080  1.00  0.00     0.065 A
HETATM    5  C6  UNL     1      32.268 -21.763 -22.590  1.00  0.00     0.116 A
HETATM    6  C7  UNL     1      33.149 -22.637 -22.058  1.00  0.00     0.134 A
HETATM    7  C8  UNL     1      32.757 -23.461 -20.997  1.00  0.00     0.108 A
HETATM    8  C9  UNL     1      31.488 -23.441 -20.442  1.00  0.00    -0.011 A
HETATM    9  C10 UNL     1      31.072 -24.330 -19.336  1.00  0.00     0.052 C
HETATM   10  C11 UNL     1      30.621 -22.526 -21.024  1.00  0.00     0.038 A
HETATM   11  C12 UNL     1      29.327 -22.549 -20.380  1.00  0.00     0.197 C
HETATM   12  O8  UNL     1      29.378 -22.878 -19.176  1.00  0.00    -0.289 OA
HETATM   13  C13 UNL     1      27.970 -22.259 -20.871  1.00  0.00     0.266 C
HETATM   14  C14 UNL     1      27.908 -21.405 -22.069  1.00  0.00     0.215 C
HETATM   15  O10 UNL     1      26.754 -21.448 -22.544  1.00  0.00    -0.290 OA
ENDROOT
BRANCH   1  16
HETATM   16  C2  UNL     1      28.389 -20.751 -24.313  1.00  0.00     0.309 C
HETATM   17  O2  UNL     1      28.599 -21.844 -24.859  1.00  0.00    -0.261 OA
BRANCH  16  18
HETATM   18  O1  UNL     1      27.812 -19.744 -25.063  1.00  0.00    -0.323 OA
HETATM   19  C1  UNL     1      26.482 -19.741 -25.510  1.00  0.00     0.213 C
ENDBRANCH  16  18
ENDBRANCH   1  16
BRANCH   1  20
HETATM   20  O3  UNL     1      28.415 -19.201 -22.534  1.00  0.00    -0.366 OA
ATOM     21  H3  UNL     1      28.581 -19.084 -21.606  1.00  0.00     0.212 HD
ENDBRANCH   1  20
BRANCH  13  22
HETATM   22  O9  UNL     1      27.158 -21.748 -19.857  1.00  0.00    -0.380 OA
ATOM     23  H9  UNL     1      26.664 -20.993 -20.154  1.00  0.00     0.211 HD
ENDBRANCH  13  22
BRANCH   5  24
HETATM   24  O5  UNL     1      32.648 -20.943 -23.639  1.00  0.00    -0.357 OA
ATOM     25  H5  UNL     1      32.297 -20.063 -23.714  1.00  0.00     0.217 HD
ENDBRANCH   5  24
BRANCH   6  26
HETATM   26  O6  UNL     1      34.445 -22.737 -22.540  1.00  0.00    -0.356 OA
ATOM     27  H6  UNL     1      34.705 -23.451 -23.110  1.00  0.00     0.218 HD
ENDBRANCH   6  26
BRANCH   7  28
HETATM   28  O7  UNL     1      33.743 -24.319 -20.526  1.00  0.00    -0.357 OA
ATOM     29  H7  UNL     1      33.424 -25.058 -20.022  1.00  0.00     0.217 HD
ENDBRANCH   7  28
TORSDOF 7
ENDMDL