MODEL 4
REMARK VINA RESULT: -6.665512945      3.360      5.541
REMARK  7 active torsions:
REMARK  status: ('A' for Active; 'I' for Inactive)
REMARK    1  A    between atoms: C5_6  and  O1_7
REMARK    2  A    between atoms: C6_9  and  C7_10
REMARK    3  A    between atoms: C8_13  and  S1_14
REMARK    4  A    between atoms: S1_14  and  O2_15
REMARK    5  A    between atoms: C9_17  and  O3_18
REMARK    6  A    between atoms: C12_25  and  O4_26
REMARK    7  A    between atoms: C13_28  and  O5_29
ROOT
HETATM    1  C1  UNL     1      31.394 -26.271 -16.742  1.00  0.00     0.028 C
HETATM    2  C2  UNL     1      31.526 -25.390 -17.721  1.00  0.00     0.014 A
HETATM    3  C3  UNL     1      30.582 -24.408 -17.936  1.00  0.00     0.091 A
HETATM    4  C4  UNL     1      29.450 -24.413 -17.016  1.00  0.00     0.103 C
HETATM    5  N1  UNL     1      28.560 -24.399 -16.307  1.00  0.00    -0.191 NA
HETATM    6  C5  UNL     1      30.669 -23.478 -18.928  1.00  0.00     0.104 A
HETATM    7  C6  UNL     1      31.764 -23.483 -19.803  1.00  0.00     0.078 A
HETATM    8  C12 UNL     1      32.709 -24.438 -19.618  1.00  0.00     0.116 A
HETATM    9  C13 UNL     1      32.592 -25.387 -18.584  1.00  0.00     0.113 A
ENDROOT
BRANCH   6  10
HETATM   10  O1  UNL     1      29.686 -22.516 -19.089  1.00  0.00    -0.358 OA
ATOM     11  H1  UNL     1      29.777 -21.829 -19.740  1.00  0.00     0.217 HD
ENDBRANCH   6  10
BRANCH   9  12
HETATM   12  O5  UNL     1      33.584 -26.354 -18.425  1.00  0.00    -0.352 OA
HETATM   13  C14 UNL     1      34.689 -26.161 -17.560  1.00  0.00     0.210 C
ENDBRANCH   9  12
BRANCH   7  14
HETATM   14  C7  UNL     1      31.792 -22.572 -20.767  1.00  0.00     0.119 C
HETATM   15  N2  UNL     1      32.792 -21.543 -20.728  1.00  0.00    -0.336 N
HETATM   16  C8  UNL     1      32.862 -20.655 -21.632  1.00  0.00     0.107 C
ATOM     17  H2  UNL     1      33.461 -21.525 -19.957  1.00  0.00     0.168 HD
HETATM   18  C9  UNL     1      31.904 -20.582 -22.775  1.00  0.00     0.213 C
HETATM   19  C10 UNL     1      30.585 -21.243 -22.415  1.00  0.00     0.226 C
HETATM   20  C11 UNL     1      29.797 -20.510 -21.459  1.00  0.00     0.087 C
HETATM   21  N4  UNL     1      30.888 -22.578 -21.842  1.00  0.00    -0.356 N
HETATM   22  N3  UNL     1      29.166 -19.915 -20.714  1.00  0.00    -0.195 NA
ATOM     23  H4  UNL     1      30.471 -23.436 -22.203  1.00  0.00     0.162 HD
BRANCH  16  24
HETATM   24  S1  UNL     1      34.147 -19.370 -21.550  1.00  0.00     0.042 SA
BRANCH  24  25
HETATM   25  O2  UNL     1      34.928 -19.295 -23.063  1.00  0.00    -0.324 OA
ATOM     26  H2  UNL     1      34.843 -18.411 -23.399  1.00  0.00     0.228 HD
ENDBRANCH  24  25
ENDBRANCH  16  24
BRANCH  18  27
HETATM   27  O3  UNL     1      32.479 -21.240 -23.855  1.00  0.00    -0.386 OA
ATOM     28  H3  UNL     1      32.875 -22.040 -23.529  1.00  0.00     0.210 HD
ENDBRANCH  18  27
ENDBRANCH   7  14
BRANCH   8  29
HETATM   29  O4  UNL     1      33.842 -24.547 -20.430  1.00  0.00    -0.357 OA
ATOM     30  H4  UNL     1      34.545 -23.908 -20.420  1.00  0.00     0.217 HD
ENDBRANCH   8  29
TORSDOF 7
ENDMDL