MODEL 3
REMARK VINA RESULT: -6.361082200      1.959      3.864
REMARK  11 active torsions:
REMARK  status: ('A' for Active; 'I' for Inactive)
REMARK    1  A    between atoms: O1_2  and  C2_3
REMARK    2  A    between atoms: C2_3  and  C3_5
REMARK    3  A    between atoms: C4_6  and  O3_7
REMARK    4  A    between atoms: C5_9  and  O4_10
REMARK    5  A    between atoms: C6_12  and  O5_13
REMARK    6  A    between atoms: C7_15  and  N1_16
REMARK    7  A    between atoms: C8_20  and  O6_21
REMARK    8  A    between atoms: O6_21  and  C9_22
REMARK    9  A    between atoms: C9_22  and  O8_24
REMARK   10  A    between atoms: O8_24  and  C10_25
REMARK   11  A    between atoms: C14_29  and  O9_30
ROOT
HETATM    1  C3  UNL     1      30.386 -22.408 -20.481  1.00  0.00     0.148 C
HETATM    2  C4  UNL     1      31.638 -21.838 -20.993  1.00  0.00     0.165 C
HETATM    3  C5  UNL     1      32.123 -22.393 -22.297  1.00  0.00     0.178 C
HETATM    4  C6  UNL     1      31.453 -21.855 -23.505  1.00  0.00     0.182 C
HETATM    5  C7  UNL     1      30.041 -21.415 -23.378  1.00  0.00     0.246 C
HETATM    6  C8  UNL     1      29.100 -22.327 -22.697  1.00  0.00     0.197 C
HETATM    7  C14 UNL     1      29.459 -23.013 -21.473  1.00  0.00     0.166 C
ENDROOT
BRANCH   6   8
HETATM    8  O6  UNL     1      27.882 -21.575 -22.521  1.00  0.00    -0.288 OA
BRANCH   8   9
HETATM    9  C9  UNL     1      26.676 -21.926 -23.054  1.00  0.00     0.407 C
HETATM   10  O7  UNL     1      26.219 -23.070 -22.785  1.00  0.00    -0.229 OA
BRANCH   9  11
HETATM   11  O8  UNL     1      25.921 -21.101 -23.875  1.00  0.00    -0.288 OA
BRANCH  11  12
HETATM   12  C10 UNL     1      26.325 -20.674 -25.139  1.00  0.00     0.062 C
HETATM   13  C11 UNL     1      25.051 -20.463 -25.966  1.00  0.00     0.046 C
HETATM   14  C12 UNL     1      27.044 -19.348 -25.124  1.00  0.00     0.046 C
HETATM   15  C13 UNL     1      27.152 -21.686 -25.886  1.00  0.00     0.046 C
ENDBRANCH  11  12
ENDBRANCH   9  11
ENDBRANCH   8   9
ENDBRANCH   6   8
BRANCH   5  16
HETATM   16  N1  UNL     1      29.888 -20.019 -23.004  1.00  0.00    -0.070 N
ATOM     17  H13 UNL     1      29.470 -19.941 -22.077  1.00  0.00     0.274 HD
ATOM     18  H12 UNL     1      30.797 -19.596 -22.819  1.00  0.00     0.274 HD
ATOM     19  H11 UNL     1      29.366 -19.462 -23.680  1.00  0.00     0.274 HD
ENDBRANCH   5  16
BRANCH   7  20
HETATM   20  O9  UNL     1      29.923 -24.328 -21.738  1.00  0.00    -0.392 OA
ATOM     21  H9  UNL     1      29.635 -24.560 -22.613  1.00  0.00     0.210 HD
ENDBRANCH   7  20
BRANCH   4  22
HETATM   22  O5  UNL     1      32.168 -20.768 -24.065  1.00  0.00    -0.391 OA
ATOM     23  H5  UNL     1      32.555 -20.993 -24.903  1.00  0.00     0.210 HD
ENDBRANCH   4  22
BRANCH   1  24
HETATM   24  C2  UNL     1      30.689 -23.517 -19.530  1.00  0.00     0.267 C
HETATM   25  O2  UNL     1      29.989 -23.716 -18.510  1.00  0.00    -0.265 OA
BRANCH  24  26
HETATM   26  O1  UNL     1      31.758 -24.381 -19.721  1.00  0.00    -0.326 OA
HETATM   27  C1  UNL     1      31.934 -25.475 -18.843  1.00  0.00     0.213 C
ENDBRANCH  24  26
ENDBRANCH   1  24
BRANCH   3  28
HETATM   28  O4  UNL     1      33.483 -21.996 -22.396  1.00  0.00    -0.390 OA
ATOM     29  H4  UNL     1      33.936 -22.468 -21.707  1.00  0.00     0.210 HD
ENDBRANCH   3  28
BRANCH   2  30
HETATM   30  O3  UNL     1      32.706 -21.881 -20.097  1.00  0.00    -0.392 OA
ATOM     31  H3  UNL     1      33.420 -22.451 -20.356  1.00  0.00     0.210 HD
ENDBRANCH   2  30
TORSDOF 11
ENDMDL