MODEL 4
REMARK VINA RESULT: -7.484212341      2.285      5.852
REMARK  3 active torsions:
REMARK  status: ('A' for Active; 'I' for Inactive)
REMARK    1  A    between atoms: O1_2  and  C2_3
REMARK    2  A    between atoms: C2_3  and  C3_5
REMARK    3  A    between atoms: C8_17  and  N6_18
ROOT
HETATM    1  C3  UNL     1      32.685 -21.075 -21.359  1.00  0.00     0.213 C
HETATM    2  N1  UNL     1      32.810 -22.160 -20.618  1.00  0.00    -0.281 N
ATOM      3  H1  UNL     1      33.656 -22.475 -20.143  1.00  0.00     0.184 HD
HETATM    4  N2  UNL     1      31.529 -22.812 -20.604  1.00  0.00    -0.109 NA
HETATM    5  C4  UNL     1      30.623 -21.688 -20.707  1.00  0.00     0.260 C
HETATM    6  N3  UNL     1      31.329 -21.033 -21.820  1.00  0.00    -0.231 N
HETATM    7  N4  UNL     1      30.680 -20.610 -22.962  1.00  0.00    -0.231 N
ATOM      8  H4  UNL     1      31.194 -20.060 -23.652  1.00  0.00     0.209 HD
HETATM    9  N5  UNL     1      29.333 -20.914 -23.198  1.00  0.00    -0.252 N
HETATM   10  C5  UNL     1      28.819 -20.548 -24.409  1.00  0.00     0.127 A
HETATM   11  C6  UNL     1      27.543 -20.903 -24.776  1.00  0.00    -0.017 A
HETATM   12  C7  UNL     1      26.951 -20.517 -26.091  1.00  0.00     0.052 C
HETATM   13  C8  UNL     1      26.824 -21.639 -23.869  1.00  0.00     0.056 A
HETATM   14  C9  UNL     1      27.387 -21.993 -22.638  1.00  0.00     0.098 A
HETATM   15  C10 UNL     1      26.534 -22.785 -21.778  1.00  0.00     0.104 C
HETATM   16  N7  UNL     1      25.836 -23.425 -21.116  1.00  0.00    -0.191 NA
HETATM   17  C11 UNL     1      28.669 -21.624 -22.287  1.00  0.00     0.091 A
HETATM   18  C12 UNL     1      29.192 -21.941 -20.905  1.00  0.00     0.133 C
HETATM   19  C13 UNL     1      28.473 -20.969 -19.961  1.00  0.00     0.208 C
HETATM   20  O3  UNL     1      27.778 -21.505 -18.949  1.00  0.00    -0.387 OA
HETATM   21  C14 UNL     1      28.232 -22.603 -18.304  1.00  0.00     0.187 C
HETATM   22  C15 UNL     1      29.031 -23.550 -19.146  1.00  0.00     0.141 C
HETATM   23  N8  UNL     1      28.900 -23.272 -20.522  1.00  0.00    -0.401 N
ATOM     24  H8  UNL     1      28.614 -23.982 -21.196  1.00  0.00     0.154 HD
ENDROOT
BRANCH  13  25
HETATM   25  N6  UNL     1      25.629 -21.983 -24.194  1.00  0.00    -0.397 N
ATOM     26  H62 UNL     1      25.362 -22.961 -24.311  1.00  0.00     0.156 HD
ATOM     27  H61 UNL     1      24.945 -21.240 -24.334  1.00  0.00     0.156 HD
ENDBRANCH  13  25
BRANCH   1  28
HETATM   28  C2  UNL     1      33.689 -20.071 -21.689  1.00  0.00     0.330 C
HETATM   29  O2  UNL     1      33.754 -19.042 -20.974  1.00  0.00    -0.256 OA
BRANCH  28  30
HETATM   30  O1  UNL     1      34.571 -20.202 -22.746  1.00  0.00    -0.320 OA
HETATM   31  C1  UNL     1      35.731 -19.393 -22.803  1.00  0.00     0.213 C
ENDBRANCH  28  30
ENDBRANCH   1  28
TORSDOF 3
ENDMDL