MODEL 5
REMARK VINA RESULT: -6.973801830      4.560      7.571
REMARK  6 active torsions:
REMARK  status: ('A' for Active; 'I' for Inactive)
REMARK       I    between atoms: C1_2  and  N1_3
REMARK    1  A    between atoms: C1_2  and  O3_14
REMARK    2  A    between atoms: N1_3  and  N2_5
REMARK    3  A    between atoms: C5_11  and  O2_12
REMARK    4  A    between atoms: O3_14  and  N3_15
REMARK    5  A    between atoms: C7_18  and  O4_19
REMARK    6  A    between atoms: N4_22  and  O5_24
ROOT
HETATM    1  N3  UNL     1      29.014 -23.098 -21.184  1.00  0.00    -0.246 N
ATOM      2  H3  UNL     1      29.601 -23.827 -20.779  1.00  0.00     0.195 HD
HETATM    3  C6  UNL     1      29.504 -22.392 -22.130  1.00  0.00     0.161 C
HETATM    4  C7  UNL     1      30.841 -22.448 -22.774  1.00  0.00     0.230 C
HETATM    5  C8  UNL     1      31.190 -21.092 -23.210  1.00  0.00     0.059 C
HETATM    6  N4  UNL     1      32.305 -20.449 -23.033  1.00  0.00    -0.274 N
ATOM      7  H4  UNL     1      32.391 -19.502 -23.402  1.00  0.00     0.193 HD
HETATM    8  C9  UNL     1      30.045 -20.449 -23.949  1.00  0.00     0.204 C
HETATM    9  S2  UNL     1      28.669 -21.080 -22.975  1.00  0.00     0.197 S
HETATM   10  O6  UNL     1      27.594 -21.606 -23.859  1.00  0.00    -0.221 OA
HETATM   11  O7  UNL     1      28.202 -20.090 -21.977  1.00  0.00    -0.221 OA
ENDROOT
BRANCH   1  12
HETATM   12  O3  UNL     1      27.767 -22.939 -20.686  1.00  0.00    -0.179 OA
BRANCH  12  13
HETATM   13  C1  UNL     1      26.706 -23.678 -21.160  1.00  0.00     0.401 C
HETATM   14  O1  UNL     1      25.572 -23.159 -21.214  1.00  0.00    -0.235 OA
HETATM   15  N1  UNL     1      26.904 -25.004 -21.578  1.00  0.00    -0.244 N
ATOM     16  H1  UNL     1      27.832 -25.427 -21.534  1.00  0.00     0.192 HD
BRANCH  15  17
HETATM   17  N2  UNL     1      25.819 -25.733 -22.054  1.00  0.00    -0.301 N
HETATM   18  C2  UNL     1      25.904 -26.954 -22.464  1.00  0.00     0.043 C
HETATM   19  C3  UNL     1      27.131 -27.733 -22.488  1.00  0.00     0.068 C
HETATM   20  C5  UNL     1      24.730 -27.703 -22.965  1.00  0.00     0.226 C
HETATM   21  C4  UNL     1      26.836 -29.108 -21.904  1.00  0.00     0.082 C
HETATM   22  S1  UNL     1      25.242 -29.446 -22.755  1.00  0.00    -0.131 SA
ATOM     23  H2  UNL     1      24.906 -25.278 -22.080  1.00  0.00     0.186 HD
BRANCH  20  24
HETATM   24  O2  UNL     1      23.668 -27.501 -22.079  1.00  0.00    -0.379 OA
ATOM     25  H2  UNL     1      22.858 -27.703 -22.532  1.00  0.00     0.211 HD
ENDBRANCH  20  24
ENDBRANCH  15  17
ENDBRANCH  12  13
ENDBRANCH   1  12
BRANCH   4  26
HETATM   26  O4  UNL     1      30.807 -23.264 -23.926  1.00  0.00    -0.383 OA
ATOM     27  H4  UNL     1      31.556 -23.090 -24.484  1.00  0.00     0.211 HD
ENDBRANCH   4  26
BRANCH   6  28
HETATM   28  O5  UNL     1      33.369 -20.999 -22.367  1.00  0.00    -0.290 OA
ATOM     29  H5  UNL     1      33.680 -21.879 -22.546  1.00  0.00     0.244 HD
ENDBRANCH   6  28
TORSDOF 6
ENDMDL