MODEL 3
REMARK VINA RESULT: -7.654624072      1.848      3.696
REMARK  8 active torsions:
REMARK  status: ('A' for Active; 'I' for Inactive)
REMARK    1  A    between atoms: C1_2  and  O3_4
REMARK    2  A    between atoms: O3_4  and  C2_5
REMARK    3  A    between atoms: C2_5  and  C3_7
REMARK    4  A    between atoms: C4_8  and  O5_9
REMARK    5  A    between atoms: C8_14  and  O6_15
REMARK    6  A    between atoms: C12_22  and  O9_23
REMARK    7  A    between atoms: C12_22  and  O10_25
REMARK    8  A    between atoms: C14_28  and  O11_29
ROOT
HETATM    1  C3  UNL     1      28.074 -21.638 -24.130  1.00  0.00     0.107 A
HETATM    2  C4  UNL     1      27.177 -22.321 -23.354  1.00  0.00     0.085 A
HETATM    3  C5  UNL     1      27.647 -22.975 -22.220  1.00  0.00     0.049 A
HETATM    4  C6  UNL     1      28.947 -22.968 -21.853  1.00  0.00    -0.003 A
HETATM    5  C7  UNL     1      29.856 -22.286 -22.622  1.00  0.00     0.054 A
HETATM    6  C8  UNL     1      29.428 -21.623 -23.756  1.00  0.00     0.099 A
HETATM    7  C9  UNL     1      31.201 -22.405 -22.032  1.00  0.00     0.177 C
HETATM    8  O7  UNL     1      32.297 -22.290 -22.595  1.00  0.00    -0.291 OA
HETATM    9  C10 UNL     1      30.913 -22.698 -20.605  1.00  0.00     0.175 C
HETATM   10  C11 UNL     1      30.346 -21.500 -19.900  1.00  0.00     0.203 C
HETATM   11  O8  UNL     1      30.528 -20.322 -20.148  1.00  0.00    -0.291 OA
HETATM   12  C12 UNL     1      29.500 -22.081 -18.820  1.00  0.00     0.226 C
HETATM   13  C13 UNL     1      28.992 -23.363 -19.407  1.00  0.00     0.121 C
HETATM   14  C14 UNL     1      29.713 -23.580 -20.716  1.00  0.00     0.109 C
ENDROOT
BRANCH   1  15
HETATM   15  C2  UNL     1      27.694 -20.918 -25.335  1.00  0.00     0.308 C
HETATM   16  O4  UNL     1      27.410 -19.668 -25.229  1.00  0.00    -0.258 OA
BRANCH  15  17
HETATM   17  O3  UNL     1      27.600 -21.429 -26.608  1.00  0.00    -0.214 OA
BRANCH  17  18
HETATM   18  C1  UNL     1      26.422 -21.917 -27.153  1.00  0.00     0.340 C
HETATM   19  O1  UNL     1      26.383 -22.130 -28.408  1.00  0.00    -0.623 OA
HETATM   20  O2  UNL     1      25.295 -22.173 -26.378  1.00  0.00    -0.623 OA
ENDBRANCH  17  18
ENDBRANCH  15  17
ENDBRANCH   1  15
BRANCH   2  21
HETATM   21  O5  UNL     1      25.825 -22.401 -23.627  1.00  0.00    -0.360 OA
ATOM     22  H5  UNL     1      25.410 -23.153 -24.034  1.00  0.00     0.217 HD
ENDBRANCH   2  21
BRANCH   6  23
HETATM   23  O6  UNL     1      30.331 -20.923 -24.555  1.00  0.00    -0.359 OA
ATOM     24  H6  UNL     1      29.991 -20.282 -25.168  1.00  0.00     0.217 HD
ENDBRANCH   6  23
BRANCH  14  25
HETATM   25  O11 UNL     1      29.991 -24.898 -20.979  1.00  0.00    -0.383 OA
ATOM     26  H11 UNL     1      30.790 -25.163 -20.540  1.00  0.00     0.211 HD
ENDBRANCH  14  25
BRANCH  12  27
HETATM   27  O9  UNL     1      28.462 -21.208 -18.472  1.00  0.00    -0.359 OA
ATOM     28  H9  UNL     1      27.616 -21.592 -18.668  1.00  0.00     0.213 HD
ENDBRANCH  12  27
BRANCH  12  29
HETATM   29  O10 UNL     1      30.344 -22.285 -17.722  1.00  0.00    -0.359 OA
ATOM     30  H10 UNL     1      30.288 -23.209 -17.508  1.00  0.00     0.213 HD
ENDBRANCH  12  29
TORSDOF 8
ENDMDL