MODEL 5
REMARK VINA RESULT: -5.995693941      2.814      5.381
REMARK  8 active torsions:
REMARK  status: ('A' for Active; 'I' for Inactive)
REMARK    1  A    between atoms: O1_2  and  C2_3
REMARK    2  A    between atoms: C2_3  and  O3_5
REMARK    3  A    between atoms: O3_5  and  C3_6
REMARK    4  A    between atoms: C3_6  and  O4_7
REMARK    5  A    between atoms: C9_21  and  N4_22
REMARK    6  A    between atoms: C10_26  and  O6_27
REMARK    7  A    between atoms: C10_26  and  C11_29
REMARK    8  A    between atoms: C11_29  and  O7_30
ROOT
HETATM    1  C3  UNL     1      28.053 -22.491 -20.387  1.00  0.00     0.305 C
HETATM    2  C4  UNL     1      26.972 -22.539 -21.415  1.00  0.00     0.094 C
HETATM    3  N1  UNL     1      26.246 -23.561 -21.615  1.00  0.00    -0.398 N
ATOM      4  H11 UNL     1      25.507 -23.594 -22.318  1.00  0.00     0.156 HD
ATOM      5  H12 UNL     1      26.400 -24.394 -21.046  1.00  0.00     0.156 HD
HETATM    6  C5  UNL     1      26.744 -21.304 -22.257  1.00  0.00     0.208 C
HETATM    7  C6  UNL     1      26.410 -21.721 -23.628  1.00  0.00     0.081 C
HETATM    8  N2  UNL     1      26.153 -22.065 -24.709  1.00  0.00    -0.196 NA
HETATM    9  S1  UNL     1      28.374 -20.477 -22.317  1.00  0.00    -0.114 SA
HETATM   10  C7  UNL     1      29.583 -21.807 -22.240  1.00  0.00     0.196 C
HETATM   11  N3  UNL     1      29.369 -22.558 -21.029  1.00  0.00    -0.272 N
HETATM   12  C8  UNL     1      30.580 -23.227 -20.743  1.00  0.00     0.259 C
HETATM   13  O5  UNL     1      30.708 -24.256 -20.066  1.00  0.00    -0.271 OA
HETATM   14  C9  UNL     1      31.661 -22.459 -21.410  1.00  0.00     0.314 C
HETATM   15  C10 UNL     1      30.999 -21.316 -22.120  1.00  0.00     0.145 C
ENDROOT
BRANCH   1  16
HETATM   16  O3  UNL     1      27.940 -23.530 -19.465  1.00  0.00    -0.234 OA
BRANCH  16  17
HETATM   17  C2  UNL     1      27.959 -23.411 -18.096  1.00  0.00     0.410 C
HETATM   18  O2  UNL     1      27.271 -24.184 -17.411  1.00  0.00    -0.229 OA
BRANCH  17  19
HETATM   19  O1  UNL     1      28.722 -22.454 -17.430  1.00  0.00    -0.303 OA
HETATM   20  C1  UNL     1      30.038 -22.731 -16.976  1.00  0.00     0.215 C
ENDBRANCH  17  19
ENDBRANCH  16  17
ENDBRANCH   1  16
BRANCH   1  21
HETATM   21  O4  UNL     1      27.938 -21.253 -19.722  1.00  0.00    -0.343 OA
ATOM     22  H4  UNL     1      27.178 -21.264 -19.154  1.00  0.00     0.215 HD
ENDBRANCH   1  21
BRANCH  15  23
HETATM   23  O6  UNL     1      31.011 -20.142 -21.376  1.00  0.00    -0.382 OA
ATOM     24  H6  UNL     1      31.898 -19.806 -21.342  1.00  0.00     0.210 HD
ENDBRANCH  15  23
BRANCH  15  25
HETATM   25  C11 UNL     1      31.524 -21.115 -23.526  1.00  0.00     0.207 C
BRANCH  25  26
HETATM   26  O7  UNL     1      32.912 -21.028 -23.532  1.00  0.00    -0.398 OA
ATOM     27  H7  UNL     1      33.305 -21.880 -23.676  1.00  0.00     0.209 HD
ENDBRANCH  25  26
ENDBRANCH  15  25
BRANCH  14  28
HETATM   28  N4  UNL     1      32.587 -22.040 -20.396  1.00  0.00    -0.063 N
ATOM     29  H43 UNL     1      32.132 -21.827 -19.508  1.00  0.00     0.275 HD
ATOM     30  H42 UNL     1      33.182 -22.799 -20.063  1.00  0.00     0.275 HD
ATOM     31  H41 UNL     1      33.118 -21.253 -20.768  1.00  0.00     0.275 HD
ENDBRANCH  14  28
TORSDOF 8
ENDMDL