MODEL 1
REMARK VINA RESULT: -7.984308877      0.000      0.000
REMARK  2 active torsions:
REMARK  status: ('A' for Active; 'I' for Inactive)
REMARK    1  A    between atoms: N6_16  and  C7_18
REMARK    2  A    between atoms: C10_26  and  N10_27
ROOT
HETATM    1  C7  UNL     1      30.528 -20.715 -20.943  1.00  0.00     0.138 A
HETATM    2  N7  UNL     1      30.393 -20.769 -19.613  1.00  0.00    -0.281 N
ATOM      3  H7  UNL     1      29.520 -20.589 -19.119  1.00  0.00     0.189 HD
HETATM    4  N8  UNL     1      31.523 -21.082 -19.022  1.00  0.00    -0.278 N
HETATM    5  C8  UNL     1      31.802 -21.243 -17.598  1.00  0.00     0.179 C
HETATM    6  C9  UNL     1      32.440 -21.241 -19.989  1.00  0.00     0.155 A
HETATM    7  N9  UNL     1      33.755 -21.558 -20.007  1.00  0.00    -0.174 N
ATOM      8  H9  UNL     1      34.228 -21.730 -19.120  1.00  0.00     0.186 HD
HETATM    9  C10 UNL     1      34.462 -21.655 -21.145  1.00  0.00     0.679 A
HETATM   10  N11 UNL     1      33.896 -21.439 -22.347  1.00  0.00    -0.176 N
ATOM     11  H11 UNL     1      34.438 -21.515 -23.207  1.00  0.00     0.186 HD
HETATM   12  C11 UNL     1      32.589 -21.120 -22.373  1.00  0.00     0.132 A
HETATM   13  N12 UNL     1      31.967 -20.896 -23.490  1.00  0.00    -0.384 N
ATOM     14 1H12 UNL     1      30.975 -20.654 -23.510  1.00  0.00     0.157 HD
ATOM     15 2H12 UNL     1      32.516 -20.973 -24.346  1.00  0.00     0.157 HD
HETATM   16  C12 UNL     1      31.844 -21.016 -21.213  1.00  0.00     0.099 A
ENDROOT
BRANCH   1  17
HETATM   17  N6  UNL     1      29.579 -20.418 -21.950  1.00  0.00    -0.341 N
HETATM   18  C6  UNL     1      28.778 -21.280 -22.468  1.00  0.00     0.061 C
HETATM   19  C2  UNL     1      27.897 -20.720 -23.487  1.00  0.00     0.126 A
HETATM   20  C5  UNL     1      28.807 -22.678 -22.022  1.00  0.00     0.182 C
HETATM   21  N3  UNL     1      28.105 -19.563 -24.157  1.00  0.00    -0.280 N
HETATM   22  C3  UNL     1      26.707 -21.274 -23.939  1.00  0.00     0.199 A
HETATM   23  N2  UNL     1      27.075 -19.416 -24.990  1.00  0.00    -0.238 N
ATOM     24  H3  UNL     1      28.895 -18.928 -24.047  1.00  0.00     0.188 HD
HETATM   25  N1  UNL     1      26.236 -20.413 -24.880  1.00  0.00    -0.259 N
ATOM     26  H2  UNL     1      26.957 -18.630 -25.629  1.00  0.00     0.208 HD
HETATM   27  C1  UNL     1      24.988 -20.669 -25.583  1.00  0.00     0.181 C
HETATM   28  O1  UNL     1      26.090 -22.454 -23.543  1.00  0.00    -0.261 OA
HETATM   29  C4  UNL     1      26.353 -23.133 -22.344  1.00  0.00     0.234 C
HETATM   30  N4  UNL     1      25.256 -23.808 -21.738  1.00  0.00    -0.056 NA
HETATM   31  N5  UNL     1      27.493 -23.188 -21.769  1.00  0.00    -0.353 N
ATOM     32  H5  UNL     1      27.458 -23.737 -20.910  1.00  0.00     0.163 HD
ATOM     33  H6  UNL     1      29.527 -19.456 -22.287  1.00  0.00     0.167 HD
ENDBRANCH   1  17
BRANCH   9  34
HETATM   34  N10 UNL     1      35.731 -21.966 -21.081  1.00  0.00    -0.234 N
ATOM     35 2H10 UNL     1      36.432 -21.247 -21.260  1.00  0.00     0.174 HD
ATOM     36 1H10 UNL     1      35.997 -22.924 -20.852  1.00  0.00     0.174 HD
ENDBRANCH   9  34
TORSDOF 2
ENDMDL