MODEL 1
REMARK VINA RESULT: -6.666684753      0.000      0.000
REMARK  6 active torsions:
REMARK  status: ('A' for Active; 'I' for Inactive)
REMARK    1  A    between atoms: C2_2  and  O2_4
REMARK    2  A    between atoms: O2_4  and  C3_5
REMARK    3  A    between atoms: C3_5  and  C4_6
REMARK    4  A    between atoms: C8_12  and  O5_13
REMARK    5  A    between atoms: C12_18  and  O6_19
REMARK    6  A    between atoms: O6_19  and  C13_20
ROOT
HETATM    1  C4  UNL     1     -12.460 -37.471 -12.757  1.00  0.00     0.134 C
HETATM    2  O3  UNL     1     -11.849 -38.358 -11.786  1.00  0.00    -0.303 OA
HETATM    3  C5  UNL     1     -10.918 -37.544 -11.151  1.00  0.00     0.266 C
HETATM    4  O4  UNL     1      -9.866 -37.946 -10.605  1.00  0.00    -0.265 OA
HETATM    5  C6  UNL     1     -11.335 -36.122 -11.202  1.00  0.00     0.119 C
HETATM    6  C7  UNL     1     -11.472 -35.554  -9.781  1.00  0.00     0.024 C
HETATM    7  C8  UNL     1     -12.726 -36.344 -11.815  1.00  0.00     0.105 C
HETATM    8  C9  UNL     1     -13.386 -35.146 -12.319  1.00  0.00     0.042 C
HETATM    9  C10 UNL     1     -14.861 -35.337 -12.287  1.00  0.00     0.011 C
HETATM   10  C11 UNL     1     -15.447 -36.355 -13.152  1.00  0.00     0.024 C
HETATM   11  C12 UNL     1     -14.988 -37.770 -13.018  1.00  0.00     0.148 C
HETATM   12  C15 UNL     1     -13.582 -38.038 -13.494  1.00  0.00     0.020 C
HETATM   13  C16 UNL     1     -13.484 -39.576 -13.373  1.00  0.00     0.021 C
HETATM   14  C17 UNL     1     -13.640 -37.759 -14.983  1.00  0.00     0.016 C
HETATM   15  C18 UNL     1     -14.250 -36.457 -15.373  1.00  0.00     0.010 C
HETATM   16  C19 UNL     1     -15.451 -36.028 -14.628  1.00  0.00    -0.042 C
HETATM   17  C20 UNL     1     -16.665 -36.720 -15.267  1.00  0.00     0.015 C
HETATM   18  C21 UNL     1     -15.684 -34.546 -14.796  1.00  0.00     0.015 C
ENDROOT
BRANCH   1  19
HETATM   19  C3  UNL     1     -11.269 -37.194 -13.672  1.00  0.00     0.221 C
BRANCH  19  20
HETATM   20  O2  UNL     1     -10.782 -38.416 -14.233  1.00  0.00    -0.319 OA
BRANCH  20  21
HETATM   21  C2  UNL     1      -9.463 -38.750 -14.293  1.00  0.00     0.254 C
HETATM   22  C1  UNL     1      -8.635 -38.170 -15.386  1.00  0.00     0.126 C
HETATM   23  O1  UNL     1      -8.971 -39.520 -13.451  1.00  0.00    -0.266 OA
ENDBRANCH  20  21
ENDBRANCH  19  20
ENDBRANCH   1  19
BRANCH   7  24
HETATM   24  O5  UNL     1     -13.424 -36.791 -10.670  1.00  0.00    -0.386 OA
ATOM     25  H5  UNL     1     -14.304 -36.434 -10.645  1.00  0.00     0.210 HD
ENDBRANCH   7  24
BRANCH  11  26
HETATM   26  O6  UNL     1     -15.386 -38.434 -11.863  1.00  0.00    -0.315 OA
BRANCH  26  27
HETATM   27  C13 UNL     1     -16.521 -39.166 -11.651  1.00  0.00     0.255 C
HETATM   28  C14 UNL     1     -16.610 -40.263 -10.652  1.00  0.00     0.126 C
HETATM   29  O7  UNL     1     -17.532 -38.868 -12.358  1.00  0.00    -0.266 OA
ENDBRANCH  26  27
ENDBRANCH  11  26
TORSDOF 6
ENDMDL