MODEL 4
REMARK VINA RESULT: -6.671121518      4.855      7.863
REMARK  5 active torsions:
REMARK  status: ('A' for Active; 'I' for Inactive)
REMARK    1  A    between atoms: C2_2  and  C3_8
REMARK    2  A    between atoms: N1_3  and  O1_5
REMARK    3  A    between atoms: O1_5  and  O2_6
REMARK    4  A    between atoms: C3_8  and  O3_9
REMARK    5  A    between atoms: C12_21  and  C13_22
ROOT
HETATM    1  C3  UNL     1     -12.443 -36.768 -11.544  1.00  0.00     0.165 C
HETATM    2  C4  UNL     1     -12.955 -36.439 -12.897  1.00  0.00     0.168 C
HETATM    3  O4  UNL     1     -13.832 -35.663 -13.147  1.00  0.00    -0.294 OA
HETATM    4  C5  UNL     1     -12.181 -37.244 -13.862  1.00  0.00     0.088 C
HETATM    5  C6  UNL     1     -11.150 -37.999 -13.061  1.00  0.00     0.009 C
HETATM    6  C7  UNL     1      -9.886 -38.190 -13.818  1.00  0.00    -0.004 C
HETATM    7  C8  UNL     1      -9.766 -37.335 -15.048  1.00  0.00     0.022 C
HETATM    8  C9  UNL     1      -8.333 -37.670 -15.488  1.00  0.00     0.022 C
HETATM    9  C10 UNL     1      -8.485 -38.930 -16.356  1.00  0.00     0.024 C
HETATM   10  C11 UNL     1      -7.776 -36.640 -16.358  1.00  0.00     0.149 C
HETATM   11  O5  UNL     1      -8.463 -35.998 -17.091  1.00  0.00    -0.296 OA
HETATM   12  C12 UNL     1      -6.313 -36.402 -16.316  1.00  0.00     0.157 C
HETATM   13  C14 UNL     1      -5.987 -36.086 -14.876  1.00  0.00     0.024 C
HETATM   14  C15 UNL     1      -6.416 -37.135 -13.918  1.00  0.00     0.007 C
HETATM   15  C16 UNL     1      -7.598 -37.928 -14.225  1.00  0.00     0.006 C
HETATM   16  C17 UNL     1      -8.627 -37.858 -13.083  1.00  0.00    -0.005 C
HETATM   17  C18 UNL     1      -8.727 -36.504 -12.473  1.00  0.00     0.006 C
HETATM   18  C19 UNL     1     -10.087 -36.077 -12.044  1.00  0.00     0.014 C
HETATM   19  C20 UNL     1     -11.024 -37.204 -11.789  1.00  0.00     0.004 C
HETATM   20  C21 UNL     1     -10.538 -38.016 -10.631  1.00  0.00     0.019 C
ENDROOT
BRANCH   1  21
HETATM   21  C2  UNL     1     -12.613 -35.655 -10.613  1.00  0.00     0.051 C
HETATM   22  C1  UNL     1     -11.487 -35.013  -9.921  1.00  0.00     0.069 C
HETATM   23  N1  UNL     1     -13.794 -35.208 -10.379  1.00  0.00    -0.240 N
ATOM     24  H1  UNL     1     -14.575 -35.655 -10.860  1.00  0.00     0.196 HD
BRANCH  23  25
HETATM   25  O1  UNL     1     -14.077 -34.174  -9.531  1.00  0.00    -0.115 OA
BRANCH  25  26
HETATM   26  O2  UNL     1     -15.388 -33.904  -9.331  1.00  0.00    -0.227 OA
ATOM     27  H2  UNL     1     -15.685 -33.041  -9.596  1.00  0.00     0.256 HD
ENDBRANCH  25  26
ENDBRANCH  23  25
ENDBRANCH   1  21
BRANCH   1  28
HETATM   28  O3  UNL     1     -13.144 -37.919 -11.135  1.00  0.00    -0.375 OA
ATOM     29  H3  UNL     1     -12.768 -38.716 -11.492  1.00  0.00     0.211 HD
ENDBRANCH   1  28
BRANCH  12  30
HETATM   30  C13 UNL     1      -5.527 -37.553 -16.772  1.00  0.00     0.184 C
HETATM   31  O6  UNL     1      -5.732 -38.104 -17.884  1.00  0.00    -0.647 OA
HETATM   32  O7  UNL     1      -4.513 -38.086 -15.985  1.00  0.00    -0.647 OA
ENDBRANCH  12  30
TORSDOF 5
ENDMDL