MODEL 3
REMARK VINA RESULT: -7.096282497      8.796     11.169
REMARK  6 active torsions:
REMARK  status: ('A' for Active; 'I' for Inactive)
REMARK    1  A    between atoms: C2_2  and  N1_4
REMARK       I    between atoms: N1_4  and  C4_6
REMARK    2  A    between atoms: C4_6  and  O2_8
REMARK    3  A    between atoms: O2_8  and  C5_9
REMARK    4  A    between atoms: C9_17  and  O3_18
REMARK    5  A    between atoms: O3_18  and  C10_19
REMARK    6  A    between atoms: C10_19  and  C11_21
ROOT
HETATM    1  C5  UNL     1     -11.505 -36.116 -10.953  1.00  0.00     0.202 C
HETATM    2  C6  UNL     1     -10.824 -37.202 -11.756  1.00  0.00     0.018 A
HETATM    3  C7  UNL     1      -9.526 -37.602 -11.935  1.00  0.00     0.119 A
HETATM    4  N2  UNL     1      -9.589 -38.648 -12.787  1.00  0.00    -0.311 N
ATOM      5  H2  UNL     1      -8.779 -39.170 -13.121  1.00  0.00     0.186 HD
HETATM    6  N3  UNL     1     -10.836 -38.904 -13.131  1.00  0.00    -0.302 N
ATOM      7  H3  UNL     1     -11.140 -39.646 -13.763  1.00  0.00     0.186 HD
HETATM    8  C8  UNL     1     -11.641 -38.027 -12.511  1.00  0.00     0.068 A
HETATM    9  C9  UNL     1     -13.052 -37.732 -12.429  1.00  0.00     0.215 C
HETATM   10  C15 UNL     1     -13.221 -36.267 -12.812  1.00  0.00     0.192 C
HETATM   11  O5  UNL     1     -14.576 -35.907 -12.714  1.00  0.00    -0.345 OA
HETATM   12  C16 UNL     1     -14.575 -34.709 -12.005  1.00  0.00     0.158 C
HETATM   13  C17 UNL     1     -15.909 -34.422 -11.371  1.00  0.00     0.078 C
HETATM   14  C18 UNL     1     -14.171 -33.574 -12.945  1.00  0.00     0.078 C
HETATM   15  O6  UNL     1     -13.592 -34.919 -11.044  1.00  0.00    -0.345 OA
HETATM   16  C19 UNL     1     -12.521 -35.402 -11.805  1.00  0.00     0.191 C
ENDROOT
BRANCH   1  17
HETATM   17  O2  UNL     1     -10.514 -35.202 -10.527  1.00  0.00    -0.291 OA
BRANCH  17  18
HETATM   18  C4  UNL     1     -10.615 -34.534  -9.318  1.00  0.00     0.361 C
HETATM   19  N1  UNL     1     -11.855 -34.217  -8.709  1.00  0.00    -0.333 N
ATOM     20  H1  UNL     1     -12.707 -34.498  -9.194  1.00  0.00     0.165 HD
HETATM   21  O1  UNL     1      -9.565 -34.187  -8.719  1.00  0.00    -0.238 OA
BRANCH  19  22
HETATM   22  C2  UNL     1     -11.995 -33.532  -7.465  1.00  0.00     0.078 C
HETATM   23  C1  UNL     1     -11.212 -34.314  -6.414  1.00  0.00     0.032 C
HETATM   24  C3  UNL     1     -13.437 -33.515  -7.001  1.00  0.00     0.032 C
ENDBRANCH  19  22
ENDBRANCH  17  18
ENDBRANCH   1  17
BRANCH   9  25
HETATM   25  O3  UNL     1     -13.987 -38.580 -12.936  1.00  0.00    -0.306 OA
BRANCH  25  26
HETATM   26  C10 UNL     1     -14.229 -39.885 -12.706  1.00  0.00     0.267 C
HETATM   27  O4  UNL     1     -13.566 -40.622 -13.442  1.00  0.00    -0.264 OA
BRANCH  26  28
HETATM   28  C11 UNL     1     -15.151 -40.482 -11.724  1.00  0.00     0.037 C
HETATM   29  C12 UNL     1     -14.433 -40.527 -10.391  1.00  0.00     0.025 C
HETATM   30  C13 UNL     1     -15.473 -41.932 -12.083  1.00  0.00     0.025 C
HETATM   31  C14 UNL     1     -16.436 -39.745 -11.578  1.00  0.00     0.025 C
ENDBRANCH  26  28
ENDBRANCH  25  26
ENDBRANCH   9  25
TORSDOF 6
ENDMDL