MODEL 3
REMARK VINA RESULT: -6.911147001      0.858      1.238
REMARK  6 active torsions:
REMARK  status: ('A' for Active; 'I' for Inactive)
REMARK    1  A    between atoms: C10_13  and  O4_14
REMARK    2  A    between atoms: C12_17  and  O5_18
REMARK    3  A    between atoms: O5_18  and  C13_19
REMARK    4  A    between atoms: C13_19  and  C14_21
REMARK    5  A    between atoms: C14_21  and  C16_23
REMARK    6  A    between atoms: C20_27  and  O7_28
ROOT
HETATM    1  C1  UNL     1     -13.679 -34.785 -11.492  1.00  0.00     0.012 C
HETATM    2  C2  UNL     1     -12.640 -35.851 -11.868  1.00  0.00     0.008 C
HETATM    3  C3  UNL     1     -11.393 -35.512 -11.131  1.00  0.00     0.183 C
HETATM    4  O1  UNL     1     -10.411 -36.462 -11.040  1.00  0.00    -0.321 OA
HETATM    5  C4  UNL     1      -9.819 -37.313 -11.883  1.00  0.00     0.261 C
HETATM    6  O2  UNL     1      -9.497 -38.470 -11.545  1.00  0.00    -0.265 OA
HETATM    7  C5  UNL     1      -9.516 -36.921 -13.273  1.00  0.00     0.151 C
HETATM    8  C6  UNL     1      -8.815 -37.968 -14.061  1.00  0.00     0.092 A
HETATM    9  C7  UNL     1      -7.280 -37.880 -14.149  1.00  0.00     0.049 C
HETATM   10  O3  UNL     1      -9.221 -39.360 -13.724  1.00  0.00    -0.369 OA
HETATM   11  C8  UNL     1      -9.476 -38.790 -14.971  1.00  0.00     0.159 A
HETATM   12  C9  UNL     1     -10.890 -38.587 -15.376  1.00  0.00     0.067 C
HETATM   13  C10 UNL     1     -11.737 -39.835 -15.135  1.00  0.00     0.123 C
HETATM   14  C11 UNL     1     -13.152 -39.514 -15.459  1.00  0.00     0.064 C
HETATM   15  C12 UNL     1     -14.066 -39.357 -14.284  1.00  0.00     0.136 C
HETATM   16  C19 UNL     1     -13.409 -39.039 -12.989  1.00  0.00     0.064 C
HETATM   17  C20 UNL     1     -14.091 -37.848 -12.328  1.00  0.00     0.121 C
HETATM   18  C21 UNL     1     -13.197 -37.160 -11.353  1.00  0.00     0.038 C
ENDROOT
BRANCH  15  19
HETATM   19  O5  UNL     1     -14.876 -40.506 -14.100  1.00  0.00    -0.316 OA
BRANCH  19  20
HETATM   20  C13 UNL     1     -15.581 -40.762 -12.948  1.00  0.00     0.263 C
HETATM   21  O6  UNL     1     -16.586 -40.085 -12.673  1.00  0.00    -0.265 OA
BRANCH  20  22
HETATM   22  C14 UNL     1     -15.155 -41.834 -12.039  1.00  0.00     0.085 C
HETATM   23  C15 UNL     1     -16.020 -43.047 -12.337  1.00  0.00     0.021 C
BRANCH  22  24
HETATM   24  C16 UNL     1     -15.350 -41.472 -10.581  1.00  0.00    -0.010 C
HETATM   25  C17 UNL     1     -15.418 -42.684  -9.695  1.00  0.00     0.010 C
HETATM   26  C18 UNL     1     -14.318 -40.532 -10.058  1.00  0.00     0.010 C
ENDBRANCH  22  24
ENDBRANCH  20  22
ENDBRANCH  19  20
ENDBRANCH  15  19
BRANCH  13  27
HETATM   27  O4  UNL     1     -11.231 -40.799 -16.043  1.00  0.00    -0.395 OA
ATOM     28  H4  UNL     1     -10.577 -41.279 -15.548  1.00  0.00     0.210 HD
ENDBRANCH  13  27
BRANCH  17  29
HETATM   29  O7  UNL     1     -14.664 -36.978 -13.251  1.00  0.00    -0.395 OA
ATOM     30  H7  UNL     1     -15.546 -37.231 -13.495  1.00  0.00     0.210 HD
ENDBRANCH  17  29
TORSDOF 6
ENDMDL