MODEL 5
REMARK VINA RESULT: -7.139278354      7.816     10.456
REMARK  6 active torsions:
REMARK  status: ('A' for Active; 'I' for Inactive)
REMARK    1  A    between atoms: C6_7  and  C7_8
REMARK    2  A    between atoms: C9_12  and  O4_13
REMARK    3  A    between atoms: O4_13  and  C10_14
REMARK    4  A    between atoms: C17_21  and  C19_23
REMARK    5  A    between atoms: C19_23  and  O5_24
REMARK    6  A    between atoms: N1_26  and  O6_28
ROOT
HETATM    1  C10 UNL     1      -6.738 -34.044 -16.911  1.00  0.00     0.126 C
HETATM    2  C11 UNL     1      -7.944 -33.701 -17.721  1.00  0.00     0.033 C
HETATM    3  C12 UNL     1      -7.803 -32.577 -18.657  1.00  0.00     0.008 C
HETATM    4  C13 UNL     1      -6.659 -31.660 -18.469  1.00  0.00     0.002 C
HETATM    5  C14 UNL     1      -5.407 -32.339 -17.944  1.00  0.00     0.013 C
HETATM    6  C15 UNL     1      -5.935 -32.794 -16.578  1.00  0.00     0.016 C
HETATM    7  C16 UNL     1      -6.891 -31.699 -16.143  1.00  0.00     0.025 C
HETATM    8  C17 UNL     1      -6.948 -30.740 -17.284  1.00  0.00     0.027 C
HETATM    9  C18 UNL     1      -5.815 -29.739 -17.103  1.00  0.00     0.024 C
ENDROOT
BRANCH   1  10
HETATM   10  O4  UNL     1      -6.992 -34.732 -15.768  1.00  0.00    -0.380 OA
BRANCH  10  11
HETATM   11  C9  UNL     1      -6.824 -36.148 -15.889  1.00  0.00     0.128 C
HETATM   12  C8  UNL     1      -7.584 -36.679 -14.758  1.00  0.00     0.084 C
HETATM   13  C6  UNL     1      -7.778 -38.085 -14.432  1.00  0.00     0.177 A
HETATM   14  C5  UNL     1      -6.957 -39.152 -14.544  1.00  0.00     0.169 A
HETATM   15  O1  UNL     1      -8.255 -39.028 -15.307  1.00  0.00    -0.357 OA
HETATM   16  C4  UNL     1      -5.928 -39.504 -15.541  1.00  0.00     0.038 C
HETATM   17  C3  UNL     1      -6.196 -39.108 -16.968  1.00  0.00     0.043 C
HETATM   18  C2  UNL     1      -5.099 -38.266 -17.472  1.00  0.00     0.084 A
HETATM   19  C1  UNL     1      -4.057 -39.039 -18.311  1.00  0.00     0.049 C
HETATM   20  C21 UNL     1      -4.737 -37.046 -16.969  1.00  0.00     0.159 A
HETATM   21  O7  UNL     1      -5.608 -37.095 -18.175  1.00  0.00    -0.369 OA
HETATM   22  C20 UNL     1      -5.318 -36.365 -15.801  1.00  0.00     0.067 C
BRANCH  13  23
HETATM   23  C7  UNL     1      -8.682 -38.098 -13.200  1.00  0.00     0.212 C
HETATM   24  O2  UNL     1      -8.606 -37.138 -12.366  1.00  0.00    -0.646 OA
HETATM   25  O3  UNL     1      -9.582 -39.111 -12.954  1.00  0.00    -0.646 OA
ENDBRANCH  13  23
ENDBRANCH  10  11
ENDBRANCH   1  10
BRANCH   8  26
HETATM   26  C19 UNL     1      -8.210 -30.028 -17.424  1.00  0.00     0.144 C
HETATM   27  N1  UNL     1      -8.346 -29.000 -18.174  1.00  0.00    -0.250 N
ATOM     28  H1  UNL     1      -7.535 -28.667 -18.694  1.00  0.00     0.196 HD
BRANCH  26  29
HETATM   29  O5  UNL     1      -9.311 -30.482 -16.717  1.00  0.00    -0.348 OA
ATOM     30  H5  UNL     1      -9.594 -29.995 -15.952  1.00  0.00     0.219 HD
ENDBRANCH  26  29
BRANCH  27  31
HETATM   31  O6  UNL     1      -9.535 -28.323 -18.310  1.00  0.00    -0.288 OA
ATOM     32  H6  UNL     1     -10.045 -28.326 -19.112  1.00  0.00     0.244 HD
ENDBRANCH  27  31
ENDBRANCH   8  26
TORSDOF 6
ENDMDL