MODEL 1
REMARK VINA RESULT: -7.325534988      0.000      0.000
REMARK  6 active torsions:
REMARK  status: ('A' for Active; 'I' for Inactive)
REMARK    1  A    between atoms: C2_2  and  C5_5
REMARK    2  A    between atoms: C10_10  and  C11_11
REMARK    3  A    between atoms: N1_13  and  C12_14
REMARK    4  A    between atoms: C13_15  and  C14_16
REMARK       I    between atoms: C14_16  and  N2_18
REMARK    5  A    between atoms: N2_18  and  S2_20
REMARK    6  A    between atoms: C16_24  and  N3_25
ROOT
HETATM    1  C11 UNL     1     -15.417 -43.237 -10.984  1.00  0.00     0.029 A
HETATM    2  S1  UNL     1     -15.396 -43.211  -9.293  1.00  0.00    -0.009 SA
HETATM    3  N1  UNL     1     -14.873 -44.814  -8.994  1.00  0.00    -0.277 N
HETATM    4  C16 UNL     1     -14.730 -45.327 -10.214  1.00  0.00     0.133 A
HETATM    5  C17 UNL     1     -15.018 -44.492 -11.277  1.00  0.00     0.103 A
HETATM    6  C18 UNL     1     -14.894 -44.930 -12.680  1.00  0.00     0.104 C
HETATM    7  N4  UNL     1     -14.818 -45.271 -13.804  1.00  0.00    -0.191 NA
ENDROOT
BRANCH   1   8
HETATM    8  C10 UNL     1     -15.818 -42.127 -11.937  1.00  0.00     0.033 C
HETATM    9  C5  UNL     1     -15.855 -40.821 -11.201  1.00  0.00     0.002 C
HETATM   10  C6  UNL     1     -17.189 -40.194 -11.053  1.00  0.00     0.006 C
HETATM   11  C7  UNL     1     -18.096 -40.253 -12.210  1.00  0.00     0.000 C
HETATM   12  C8  UNL     1     -18.006 -41.499 -13.032  1.00  0.00     0.001 C
HETATM   13  C9  UNL     1     -17.149 -42.564 -12.460  1.00  0.00     0.010 C
BRANCH   9  14
HETATM   14  C2  UNL     1     -14.803 -39.860 -11.745  1.00  0.00    -0.047 C
HETATM   15  C1  UNL     1     -13.738 -39.630 -10.736  1.00  0.00     0.015 C
HETATM   16  C3  UNL     1     -15.340 -38.589 -12.285  1.00  0.00     0.015 C
HETATM   17  C4  UNL     1     -14.151 -40.601 -12.927  1.00  0.00     0.015 C
ENDBRANCH   9  14
ENDBRANCH   1   8
BRANCH   4  18
HETATM   18  N3  UNL     1     -14.362 -46.522 -10.407  1.00  0.00    -0.383 N
ATOM     19  H32 UNL     1     -13.439 -46.841 -10.113  1.00  0.00     0.157 HD
ATOM     20  H31 UNL     1     -14.958 -47.209 -10.869  1.00  0.00     0.157 HD
ENDBRANCH   4  18
BRANCH   3  21
HETATM   21  C12 UNL     1     -14.732 -45.350  -7.672  1.00  0.00     0.112 C
HETATM   22  C13 UNL     1     -14.238 -44.718  -6.670  1.00  0.00     0.093 C
BRANCH  22  23
HETATM   23  C14 UNL     1     -14.125 -45.360  -5.348  1.00  0.00     0.255 C
HETATM   24  O1  UNL     1     -14.972 -46.250  -5.010  1.00  0.00    -0.268 OA
HETATM   25  N2  UNL     1     -13.113 -45.042  -4.419  1.00  0.00    -0.251 N
ATOM     26  H2  UNL     1     -12.420 -44.327  -4.643  1.00  0.00     0.181 HD
BRANCH  25  27
HETATM   27  S2  UNL     1     -13.046 -45.874  -2.881  1.00  0.00     0.229 S
HETATM   28  C15 UNL     1     -11.358 -45.846  -2.323  1.00  0.00     0.186 C
HETATM   29  O2  UNL     1     -13.467 -47.293  -3.028  1.00  0.00    -0.206 OA
HETATM   30  O3  UNL     1     -13.873 -45.108  -1.910  1.00  0.00    -0.206 OA
ENDBRANCH  25  27
ENDBRANCH  22  23
ENDBRANCH   3  21
TORSDOF 6
ENDMDL