MODEL 1
REMARK VINA RESULT: -7.172863085      0.000      0.000
REMARK  5 active torsions:
REMARK  status: ('A' for Active; 'I' for Inactive)
REMARK    1  A    between atoms: C2_2  and  C4_4
REMARK    2  A    between atoms: C6_6  and  O1_7
REMARK    3  A    between atoms: C9_11  and  N1_12
REMARK    4  A    between atoms: C10_16  and  O2_17
REMARK    5  A    between atoms: O2_17  and  C11_18
ROOT
HETATM    1  C4  UNL     1     -15.971 -41.241 -10.778  1.00  0.00     0.091 C
HETATM    2  C5  UNL     1     -16.974 -41.354 -11.852  1.00  0.00     0.048 C
HETATM    3  C6  UNL     1     -17.859 -40.184 -12.101  1.00  0.00     0.119 C
HETATM    4  C7  UNL     1     -17.206 -38.828 -12.183  1.00  0.00     0.039 C
HETATM    5  C8  UNL     1     -16.623 -38.515 -13.523  1.00  0.00     0.033 C
HETATM    6  C9  UNL     1     -17.233 -37.220 -14.029  1.00  0.00     0.218 C
HETATM    7  C10 UNL     1     -15.957 -36.549 -13.547  1.00  0.00     0.175 C
HETATM    8  C12 UNL     1     -15.271 -37.880 -13.569  1.00  0.00     0.004 C
HETATM    9  C13 UNL     1     -14.597 -38.035 -14.918  1.00  0.00     0.013 C
HETATM   10  C14 UNL     1     -13.186 -37.554 -14.959  1.00  0.00     0.002 C
HETATM   11  C15 UNL     1     -12.302 -37.966 -13.854  1.00  0.00     0.009 C
HETATM   12  C16 UNL     1     -12.982 -37.746 -12.548  1.00  0.00    -0.038 C
HETATM   13  C17 UNL     1     -12.055 -38.314 -11.488  1.00  0.00     0.015 C
HETATM   14  C18 UNL     1     -12.924 -36.231 -12.280  1.00  0.00     0.015 C
HETATM   15  C19 UNL     1     -14.373 -38.271 -12.440  1.00  0.00     0.081 C
HETATM   16  C20 UNL     1     -14.399 -39.773 -12.322  1.00  0.00     0.294 A
HETATM   17  O5  UNL     1     -14.588 -40.536 -13.493  1.00  0.00    -0.185 OA
HETATM   18  O6  UNL     1     -13.410 -40.528 -12.985  1.00  0.00    -0.185 OA
HETATM   19  C21 UNL     1     -14.806 -40.346 -11.049  1.00  0.00     0.202 C
HETATM   20  O7  UNL     1     -14.144 -40.091 -10.037  1.00  0.00    -0.291 OA
ENDROOT
BRANCH   6  21
HETATM   21  N1  UNL     1     -17.591 -37.131 -15.392  1.00  0.00    -0.072 N
ATOM     22  H13 UNL     1     -17.151 -37.898 -15.901  1.00  0.00     0.274 HD
ATOM     23  H12 UNL     1     -18.578 -37.369 -15.492  1.00  0.00     0.274 HD
ATOM     24  H11 UNL     1     -17.408 -36.258 -15.887  1.00  0.00     0.274 HD
ENDBRANCH   6  21
BRANCH   7  25
HETATM   25  O2  UNL     1     -15.603 -35.610 -14.550  1.00  0.00    -0.288 OA
BRANCH  25  26
HETATM   26  C11 UNL     1     -15.402 -34.301 -14.165  1.00  0.00     0.333 C
HETATM   27  O3  UNL     1     -15.566 -33.983 -12.963  1.00  0.00    -0.624 OA
HETATM   28  O4  UNL     1     -15.023 -33.294 -15.038  1.00  0.00    -0.624 OA
ENDBRANCH  25  26
ENDBRANCH   7  25
BRANCH   3  29
HETATM   29  O1  UNL     1     -18.544 -40.443 -13.314  1.00  0.00    -0.396 OA
ATOM     30  H1  UNL     1     -19.367 -39.970 -13.269  1.00  0.00     0.210 HD
ENDBRANCH   3  29
BRANCH   1  31
HETATM   31  C2  UNL     1     -15.488 -42.625 -10.418  1.00  0.00    -0.082 C
HETATM   32  C1  UNL     1     -15.215 -43.540 -11.316  1.00  0.00     0.015 C
HETATM   33  C3  UNL     1     -15.309 -43.000  -8.978  1.00  0.00     0.043 C
ENDBRANCH   1  31
TORSDOF 5
ENDMDL