MODEL 1
REMARK VINA RESULT: -8.152300237      0.000      0.000
REMARK  9 active torsions:
REMARK  status: ('A' for Active; 'I' for Inactive)
REMARK    1  A    between atoms: O1_2  and  C2_3
REMARK    2  A    between atoms: C4_5  and  N1_6
REMARK    3  A    between atoms: C5_11  and  C6_12
REMARK       I    between atoms: N3_14  and  C8_15
REMARK    4  A    between atoms: C8_15  and  O3_17
REMARK    5  A    between atoms: O3_17  and  C9_18
REMARK    6  A    between atoms: C14_23  and  O4_24
REMARK    7  A    between atoms: O4_24  and  C15_25
REMARK    8  A    between atoms: C15_25  and  O6_27
REMARK    9  A    between atoms: O6_27  and  C16_28
ROOT
HETATM    1  C6  UNL     1     -12.051 -35.754 -11.686  1.00  0.00     0.103 C
HETATM    2  C7  UNL     1     -13.295 -35.299 -12.459  1.00  0.00     0.143 C
HETATM    3  N3  UNL     1     -13.589 -36.486 -13.227  1.00  0.00    -0.325 N
HETATM    4  C8  UNL     1     -13.952 -36.509 -14.597  1.00  0.00     0.363 C
HETATM    5  O2  UNL     1     -14.196 -37.578 -15.210  1.00  0.00    -0.238 OA
HETATM    6  C13 UNL     1     -13.433 -37.593 -12.304  1.00  0.00     0.161 C
HETATM    7  C14 UNL     1     -12.119 -37.244 -11.634  1.00  0.00     0.165 C
ENDROOT
BRANCH   1   8
HETATM    8  C5  UNL     1     -11.982 -35.111 -10.354  1.00  0.00     0.093 A
HETATM    9  N2  UNL     1     -10.854 -35.104  -9.627  1.00  0.00    -0.332 N
HETATM   10  C4  UNL     1     -10.701 -34.556  -8.429  1.00  0.00     0.104 A
ATOM     11  H2  UNL     1     -10.040 -35.565 -10.033  1.00  0.00     0.168 HD
HETATM   12  C3  UNL     1     -11.816 -33.930  -7.879  1.00  0.00     0.104 A
HETATM   13  C2  UNL     1     -12.995 -33.913  -8.591  1.00  0.00     0.146 A
HETATM   14  N4  UNL     1     -13.054 -34.496  -9.797  1.00  0.00    -0.326 N
ATOM     15  H4  UNL     1     -13.934 -34.476 -10.312  1.00  0.00     0.169 HD
BRANCH  10  16
HETATM   16  N1  UNL     1      -9.578 -34.614  -7.838  1.00  0.00    -0.385 N
ATOM     17  H12 UNL     1      -9.528 -34.874  -6.853  1.00  0.00     0.157 HD
ATOM     18  H11 UNL     1      -8.693 -34.410  -8.303  1.00  0.00     0.157 HD
ENDBRANCH  10  16
BRANCH  13  19
HETATM   19  O1  UNL     1     -14.107 -33.279  -8.021  1.00  0.00    -0.341 OA
HETATM   20  C1  UNL     1     -14.295 -33.247  -6.620  1.00  0.00     0.211 C
ENDBRANCH  13  19
ENDBRANCH   1   8
BRANCH   7  21
HETATM   21  O4  UNL     1     -11.094 -37.750 -12.502  1.00  0.00    -0.290 OA
BRANCH  21  22
HETATM   22  C15 UNL     1      -9.789 -37.900 -12.070  1.00  0.00     0.407 C
HETATM   23  O5  UNL     1      -9.579 -37.834 -10.837  1.00  0.00    -0.229 OA
BRANCH  22  24
HETATM   24  O6  UNL     1      -8.716 -38.114 -12.906  1.00  0.00    -0.288 OA
BRANCH  24  25
HETATM   25  C16 UNL     1      -8.077 -37.019 -13.505  1.00  0.00     0.062 C
HETATM   26  C17 UNL     1      -6.573 -37.175 -13.573  1.00  0.00     0.046 C
HETATM   27  C18 UNL     1      -8.582 -36.938 -14.943  1.00  0.00     0.046 C
HETATM   28  C19 UNL     1      -8.375 -35.716 -12.822  1.00  0.00     0.046 C
ENDBRANCH  24  25
ENDBRANCH  22  24
ENDBRANCH  21  22
ENDBRANCH   7  21
BRANCH   4  29
HETATM   29  O3  UNL     1     -14.050 -35.327 -15.310  1.00  0.00    -0.294 OA
BRANCH  29  30
HETATM   30  C9  UNL     1     -15.318 -34.776 -15.556  1.00  0.00     0.061 C
HETATM   31  C10 UNL     1     -16.378 -35.277 -14.607  1.00  0.00     0.046 C
HETATM   32  C11 UNL     1     -15.765 -34.919 -16.988  1.00  0.00     0.046 C
HETATM   33  C12 UNL     1     -15.189 -33.270 -15.294  1.00  0.00     0.046 C
ENDBRANCH  29  30
ENDBRANCH   4  29
TORSDOF 9
ENDMDL