MODEL 2
REMARK VINA RESULT: -6.159898356      0.520      1.002
REMARK  9 active torsions:
REMARK  status: ('A' for Active; 'I' for Inactive)
REMARK    1  A    between atoms: S1_2  and  C2_3
REMARK    2  A    between atoms: C2_3  and  N2_12
REMARK    3  A    between atoms: N1_4  and  C3_6
REMARK    4  A    between atoms: N2_12  and  C7_14
REMARK    5  A    between atoms: C7_14  and  S3_23
REMARK       I    between atoms: N3_15  and  C8_17
REMARK    6  A    between atoms: C8_17  and  C9_19
REMARK    7  A    between atoms: S3_23  and  C13_24
REMARK    8  A    between atoms: C13_24  and  C14_25
REMARK    9  A    between atoms: C14_25  and  O3_28
ROOT
HETATM    1  C7  UNL     1     -15.571 -38.240 -12.694  1.00  0.00     0.148 C
HETATM    2  N3  UNL     1     -15.160 -38.958 -11.723  1.00  0.00    -0.307 N
ATOM      3  H3  UNL     1     -14.923 -38.471 -10.859  1.00  0.00     0.171 HD
HETATM    4  C8  UNL     1     -15.001 -40.347 -11.728  1.00  0.00     0.231 C
HETATM    5  O2  UNL     1     -14.011 -40.842 -12.322  1.00  0.00    -0.272 OA
ENDROOT
BRANCH   1   6
HETATM    6  N2  UNL     1     -15.691 -36.847 -12.574  1.00  0.00    -0.317 N
ATOM      7  H2  UNL     1     -16.631 -36.450 -12.580  1.00  0.00     0.170 HD
BRANCH   6   8
HETATM    8  C2  UNL     1     -14.601 -35.951 -12.444  1.00  0.00     0.142 C
HETATM    9  N1  UNL     1     -14.001 -35.899 -11.309  1.00  0.00    -0.351 N
ATOM     10  H1  UNL     1     -14.308 -36.488 -10.534  1.00  0.00     0.163 HD
BRANCH   8  11
HETATM   11  S1  UNL     1     -14.162 -34.974 -13.868  1.00  0.00    -0.099 SA
HETATM   12  C1  UNL     1     -14.856 -33.326 -13.770  1.00  0.00     0.099 C
ENDBRANCH   8  11
BRANCH   9  13
HETATM   13  C3  UNL     1     -12.904 -35.010 -11.148  1.00  0.00     0.215 C
HETATM   14  S2  UNL     1     -12.858 -34.249  -9.481  1.00  0.00    -0.136 SA
HETATM   15  C4  UNL     1     -11.134 -34.716  -9.056  1.00  0.00     0.084 C
HETATM   16  C5  UNL     1     -10.946 -35.908  -9.965  1.00  0.00     0.091 C
HETATM   17  C6  UNL     1     -11.575 -35.636 -11.248  1.00  0.00     0.160 C
HETATM   18  O1  UNL     1     -11.063 -35.898 -12.343  1.00  0.00    -0.295 OA
ENDBRANCH   9  13
ENDBRANCH   6   8
ENDBRANCH   1   6
BRANCH   1  19
HETATM   19  S3  UNL     1     -15.999 -39.026 -14.222  1.00  0.00    -0.091 SA
BRANCH  19  20
HETATM   20  C13 UNL     1     -16.706 -37.786 -15.333  1.00  0.00     0.119 C
BRANCH  20  21
HETATM   21  C14 UNL     1     -18.180 -37.564 -15.057  1.00  0.00     0.059 C
HETATM   22  C15 UNL     1     -18.901 -37.241 -16.332  1.00  0.00     0.046 C
HETATM   23  C16 UNL     1     -18.711 -38.810 -14.386  1.00  0.00     0.046 C
BRANCH  21  24
HETATM   24  O3  UNL     1     -18.272 -36.492 -14.182  1.00  0.00    -0.390 OA
ATOM     25  H3  UNL     1     -18.666 -36.819 -13.382  1.00  0.00     0.210 HD
ENDBRANCH  21  24
ENDBRANCH  20  21
ENDBRANCH  19  20
ENDBRANCH   1  19
BRANCH   4  26
HETATM   26  C9  UNL     1     -15.961 -41.249 -11.057  1.00  0.00     0.030 C
HETATM   27  C10 UNL     1     -17.061 -40.495 -10.343  1.00  0.00     0.025 C
HETATM   28  C11 UNL     1     -15.252 -42.099 -10.016  1.00  0.00     0.025 C
HETATM   29  C12 UNL     1     -16.609 -42.203 -12.059  1.00  0.00     0.025 C
ENDBRANCH   4  26
TORSDOF 9
ENDMDL