MODEL 2
REMARK VINA RESULT: -6.818285801      2.441      6.331
REMARK  6 active torsions:
REMARK  status: ('A' for Active; 'I' for Inactive)
REMARK    1  A    between atoms: C8_8  and  O1_9
REMARK    2  A    between atoms: O1_9  and  C9_10
REMARK    3  A    between atoms: C9_10  and  C10_12
REMARK    4  A    between atoms: C17_21  and  O5_22
REMARK    5  A    between atoms: O5_22  and  C18_23
REMARK    6  A    between atoms: C19_26  and  O7_28
ROOT
HETATM    1  C1  UNL     1     -13.067 -33.878  -8.835  1.00  0.00     0.017 C
HETATM    2  C2  UNL     1     -12.553 -34.766  -9.640  1.00  0.00    -0.059 C
HETATM    3  C3  UNL     1     -11.207 -35.355  -9.586  1.00  0.00     0.049 C
HETATM    4  C4  UNL     1     -10.971 -35.923 -10.978  1.00  0.00    -0.016 C
HETATM    5  C5  UNL     1      -9.661 -35.437 -11.496  1.00  0.00     0.020 C
HETATM    6  C6  UNL     1     -11.077 -37.399 -10.856  1.00  0.00    -0.018 C
HETATM    7  C7  UNL     1     -11.409 -38.118 -11.905  1.00  0.00     0.003 C
HETATM    8  C8  UNL     1     -11.672 -37.439 -13.190  1.00  0.00     0.162 C
HETATM    9  C13 UNL     1     -12.318 -36.088 -13.067  1.00  0.00     0.064 C
HETATM   10  C14 UNL     1     -12.112 -35.364 -11.808  1.00  0.00     0.041 C
HETATM   11  C15 UNL     1     -13.229 -35.382 -10.801  1.00  0.00     0.166 C
HETATM   12  O3  UNL     1     -14.348 -34.609 -11.172  1.00  0.00    -0.309 OA
HETATM   13  C16 UNL     1     -14.973 -34.430 -12.378  1.00  0.00     0.292 C
HETATM   14  O4  UNL     1     -16.074 -33.838 -12.315  1.00  0.00    -0.262 OA
HETATM   15  C17 UNL     1     -14.443 -34.878 -13.691  1.00  0.00     0.267 C
HETATM   16  C19 UNL     1     -13.738 -36.213 -13.548  1.00  0.00     0.097 C
HETATM   17  C20 UNL     1     -14.582 -37.188 -12.805  1.00  0.00     0.049 C
ENDROOT
BRANCH   8  18
HETATM   18  O1  UNL     1     -10.417 -37.368 -13.859  1.00  0.00    -0.311 OA
BRANCH  18  19
HETATM   19  C9  UNL     1      -9.709 -38.484 -14.206  1.00  0.00     0.263 C
HETATM   20  O2  UNL     1     -10.381 -39.494 -14.572  1.00  0.00    -0.265 OA
BRANCH  19  21
HETATM   21  C10 UNL     1      -8.250 -38.602 -14.189  1.00  0.00     0.077 C
HETATM   22  C11 UNL     1      -7.668 -38.982 -15.529  1.00  0.00     0.020 C
HETATM   23  C12 UNL     1      -7.663 -37.247 -13.792  1.00  0.00     0.020 C
ENDBRANCH  19  21
ENDBRANCH  18  19
ENDBRANCH   8  18
BRANCH  16  24
HETATM   24  O7  UNL     1     -13.646 -36.693 -14.878  1.00  0.00    -0.387 OA
ATOM     25  H7  UNL     1     -14.047 -37.555 -14.864  1.00  0.00     0.210 HD
ENDBRANCH  16  24
BRANCH  15  26
HETATM   26  O5  UNL     1     -15.551 -35.096 -14.558  1.00  0.00    -0.288 OA
BRANCH  26  27
HETATM   27  C18 UNL     1     -15.794 -34.281 -15.654  1.00  0.00     0.373 C
HETATM   28  N1  UNL     1     -15.260 -32.972 -15.707  1.00  0.00    -0.032 NA
HETATM   29  O6  UNL     1     -16.502 -34.742 -16.594  1.00  0.00    -0.242 OA
ENDBRANCH  26  27
ENDBRANCH  15  26
TORSDOF 6
ENDMDL