MODEL 4
REMARK VINA RESULT: -5.879187330      2.136      4.689
REMARK  5 active torsions:
REMARK  status: ('A' for Active; 'I' for Inactive)
REMARK    1  A    between atoms: C2_2  and  C4_4
REMARK    2  A    between atoms: C9_10  and  C10_11
REMARK    3  A    between atoms: C10_11  and  O2_12
REMARK    4  A    between atoms: N1_20  and  O3_21
REMARK    5  A    between atoms: C18_24  and  O4_25
ROOT
HETATM    1  C4  UNL     1      17.357   7.206  11.262  1.00  0.00     0.128 A
HETATM    2  O1  UNL     1      15.899   7.064  11.019  1.00  0.00    -0.364 OA
HETATM    3  C5  UNL     1      16.438   7.351  12.238  1.00  0.00     0.177 A
HETATM    4  C6  UNL     1      17.122   6.255  13.052  1.00  0.00     0.070 C
HETATM    5  C7  UNL     1      17.843   6.908  14.194  1.00  0.00     0.019 A
HETATM    6  C8  UNL     1      16.920   7.877  14.902  1.00  0.00    -0.005 A
HETATM    7  C9  UNL     1      17.986   8.378  14.277  1.00  0.00    -0.046 A
HETATM    8  C11 UNL     1      18.533   6.005  15.143  1.00  0.00     0.019 C
HETATM    9  C12 UNL     1      17.696   4.793  15.515  1.00  0.00     0.008 C
HETATM   10  C13 UNL     1      17.225   4.144  14.264  1.00  0.00     0.013 C
HETATM   11  C14 UNL     1      16.488   2.864  14.472  1.00  0.00     0.012 C
HETATM   12  C15 UNL     1      16.354   5.063  13.389  1.00  0.00     0.073 C
HETATM   13  C16 UNL     1      15.031   5.328  14.067  1.00  0.00     0.042 C
HETATM   14  N1  UNL     1      16.201   4.317  12.163  1.00  0.00    -0.262 N
HETATM   15  C17 UNL     1      17.024   4.771  11.302  1.00  0.00     0.132 C
HETATM   16  C18 UNL     1      17.850   5.895  11.825  1.00  0.00     0.140 C
ENDROOT
BRANCH   7  17
HETATM   17  C10 UNL     1      18.691   9.663  13.979  1.00  0.00     0.199 C
BRANCH  17  18
HETATM   18  O2  UNL     1      18.954  10.394  15.132  1.00  0.00    -0.397 OA
ATOM     19  H2  UNL     1      19.642  10.000  15.656  1.00  0.00     0.209 HD
ENDBRANCH  17  18
ENDBRANCH   7  17
BRANCH  16  20
HETATM   20  O4  UNL     1      19.173   5.657  11.840  1.00  0.00    -0.380 OA
ATOM     21  H4  UNL     1      19.643   5.644  11.014  1.00  0.00     0.211 HD
ENDBRANCH  16  20
BRANCH   1  22
HETATM   22  C2  UNL     1      18.022   7.946  10.208  1.00  0.00     0.018 C
HETATM   23  C1  UNL     1      19.283   8.652  10.561  1.00  0.00     0.012 C
HETATM   24  C3  UNL     1      18.338   7.022   9.024  1.00  0.00     0.012 C
ENDBRANCH   1  22
BRANCH  14  25
HETATM   25  O3  UNL     1      15.289   3.283  12.003  1.00  0.00    -0.287 OA
ATOM     26  H3  UNL     1      15.445   2.525  11.452  1.00  0.00     0.244 HD
ENDBRANCH  14  25
TORSDOF 5
ENDMDL