MODEL 2
REMARK VINA RESULT: -6.494211976      2.565      3.843
REMARK  4 active torsions:
REMARK  status: ('A' for Active; 'I' for Inactive)
REMARK    1  A    between atoms: C1_2  and  N1_3
REMARK    2  A    between atoms: C1_2  and  N2_11
REMARK    3  A    between atoms: N1_3  and  C2_5
REMARK    4  A    between atoms: C10_14  and  N3_15
ROOT
HETATM    1  N2  UNL     1      16.055   7.074  13.334  1.00  0.00    -0.358 N
HETATM    2  C8  UNL     1      15.152   7.283  14.447  1.00  0.00     0.127 C
HETATM    3  C9  UNL     1      14.902   5.947  15.119  1.00  0.00     0.055 C
HETATM    4  C10 UNL     1      16.228   5.416  15.684  1.00  0.00     0.226 C
HETATM    5  C15 UNL     1      17.311   5.561  14.679  1.00  0.00     0.055 C
HETATM    6  C16 UNL     1      16.718   5.788  13.285  1.00  0.00     0.127 C
ENDROOT
BRANCH   1   7
HETATM    7  C1  UNL     1      16.223   8.114  12.400  1.00  0.00     0.170 C
HETATM    8  S1  UNL     1      17.721   8.639  12.064  1.00  0.00    -0.041 SA
BRANCH   7   9
HETATM    9  N1  UNL     1      15.117   8.708  11.761  1.00  0.00    -0.363 N
ATOM     10  H1  UNL     1      14.206   8.663  12.215  1.00  0.00     0.162 HD
BRANCH   9  11
HETATM   11  C2  UNL     1      15.226   9.377  10.486  1.00  0.00     0.083 C
HETATM   12  C3  UNL     1      14.427   8.641   9.467  1.00  0.00     0.025 C
HETATM   13  C4  UNL     1      13.198   9.473   9.140  1.00  0.00     0.002 C
HETATM   14  C5  UNL     1      13.670  10.740   8.457  1.00  0.00     0.000 C
HETATM   15  C6  UNL     1      14.804  11.410   9.169  1.00  0.00     0.002 C
HETATM   16  C7  UNL     1      14.827  10.838  10.591  1.00  0.00     0.025 C
ENDBRANCH   9  11
ENDBRANCH   7   9
ENDBRANCH   1   7
BRANCH   4  17
HETATM   17  N3  UNL     1      16.081   4.144  16.280  1.00  0.00     0.097 N
HETATM   18  C11 UNL     1      16.976   3.115  15.939  1.00  0.00     0.299 C
HETATM   19  C12 UNL     1      16.266   1.784  15.766  1.00  0.00     0.198 C
HETATM   20  O1  UNL     1      15.373   1.499  16.777  1.00  0.00    -0.388 OA
HETATM   21  C13 UNL     1      14.504   2.508  17.102  1.00  0.00     0.198 C
HETATM   22  C14 UNL     1      14.685   3.741  16.242  1.00  0.00     0.299 C
ENDBRANCH   4  17
TORSDOF 4
ENDMDL