MODEL 4
REMARK VINA RESULT: -6.632086502      2.702      3.273
REMARK  5 active torsions:
REMARK  status: ('A' for Active; 'I' for Inactive)
REMARK    1  A    between atoms: N1_2  and  C2_3
REMARK    2  A    between atoms: N1_2  and  C11_17
REMARK    3  A    between atoms: C2_3  and  N2_5
REMARK    4  A    between atoms: C5_8  and  O1_9
REMARK    5  A    between atoms: C6_11  and  N3_12
ROOT
HETATM    1  N2  UNL     1      17.009   4.797  12.228  1.00  0.00    -0.334 N
HETATM    2  C3  UNL     1      16.188   4.030  11.360  1.00  0.00     0.130 C
HETATM    3  C4  UNL     1      16.111   2.604  11.826  1.00  0.00     0.055 C
HETATM    4  C5  UNL     1      17.002   2.543  13.005  1.00  0.00     0.162 C
HETATM    5  C6  UNL     1      17.294   3.960  13.406  1.00  0.00     0.216 C
ENDROOT
BRANCH   1   6
HETATM    6  C2  UNL     1      17.488   6.128  12.065  1.00  0.00     0.173 C
HETATM    7  S1  UNL     1      18.830   6.531  13.018  1.00  0.00    -0.041 SA
BRANCH   6   8
HETATM    8  N1  UNL     1      17.040   7.155  11.253  1.00  0.00    -0.358 N
HETATM    9  C1  UNL     1      17.528   7.057   9.822  1.00  0.00     0.152 C
BRANCH   8  10
HETATM   10  C11 UNL     1      16.208   8.285  11.544  1.00  0.00     0.086 C
HETATM   11  C12 UNL     1      15.049   8.400  10.558  1.00  0.00     0.025 C
HETATM   12  C13 UNL     1      14.182   9.608  10.923  1.00  0.00     0.002 C
HETATM   13  C14 UNL     1      14.976  10.872  10.752  1.00  0.00     0.000 C
HETATM   14  C15 UNL     1      16.447  10.579  10.531  1.00  0.00     0.002 C
HETATM   15  C16 UNL     1      17.014   9.585  11.493  1.00  0.00     0.025 C
ENDBRANCH   8  10
ENDBRANCH   6   8
ENDBRANCH   1   6
BRANCH   5  16
HETATM   16  N3  UNL     1      16.627   4.316  14.555  1.00  0.00    -0.370 N
HETATM   17  C7  UNL     1      15.333   4.776  14.632  1.00  0.00     0.060 C
HETATM   18  C8  UNL     1      14.760   4.174  15.897  1.00  0.00     0.046 C
HETATM   19  C9  UNL     1      15.967   3.592  16.600  1.00  0.00     0.025 C
HETATM   20  C10 UNL     1      17.168   4.171  15.832  1.00  0.00     0.124 C
ENDBRANCH   5  16
BRANCH   4  21
HETATM   21  O1  UNL     1      16.319   1.821  14.012  1.00  0.00    -0.392 OA
ATOM     22  H1  UNL     1      16.933   1.194  14.375  1.00  0.00     0.210 HD
ENDBRANCH   4  21
TORSDOF 5
ENDMDL