MODEL 2
REMARK VINA RESULT: -7.277254596      1.036      2.090
REMARK  2 active torsions:
REMARK  status: ('A' for Active; 'I' for Inactive)
REMARK    1  A    between atoms: N2_7  and  C3_8
REMARK    2  A    between atoms: C8_14  and  C9_15
ROOT
HETATM    1  O1  UNL     1      18.080   9.377  15.002  1.00  0.00    -0.271 OA
HETATM    2  C1  UNL     1      18.132   8.400  14.218  1.00  0.00     0.249 C
HETATM    3  N1  UNL     1      19.317   7.728  13.751  1.00  0.00    -0.277 N
ATOM      4  H1  UNL     1      20.264   8.106  13.724  1.00  0.00     0.173 HD
HETATM    5  C2  UNL     1      18.899   6.411  13.330  1.00  0.00     0.326 C
HETATM    6  O2  UNL     1      19.662   5.539  12.863  1.00  0.00    -0.247 OA
HETATM    7  N2  UNL     1      17.473   6.298  13.542  1.00  0.00    -0.315 N
HETATM    8  C8  UNL     1      17.020   7.649  13.544  1.00  0.00     0.190 C
ENDROOT
BRANCH   8   9
HETATM    9  C9  UNL     1      16.656   8.270  12.255  1.00  0.00    -0.010 C
HETATM   10  C10 UNL     1      17.375   9.558  11.921  1.00  0.00     0.016 C
HETATM   11  C11 UNL     1      16.821  10.116  10.627  1.00  0.00    -0.013 C
HETATM   12  C12 UNL     1      15.368  10.430  10.837  1.00  0.00     0.009 C
HETATM   13  C16 UNL     1      16.963   9.208   9.454  1.00  0.00     0.009 C
HETATM   14  C13 UNL     1      14.626   9.142  11.053  1.00  0.00    -0.013 C
HETATM   15  C14 UNL     1      14.820   8.143   9.945  1.00  0.00     0.009 C
HETATM   16  C18 UNL     1      15.139   8.517  12.322  1.00  0.00     0.016 C
HETATM   17  C15 UNL     1      16.294   7.893   9.811  1.00  0.00    -0.013 C
HETATM   18  C17 UNL     1      16.929   7.341  11.068  1.00  0.00     0.016 C
ENDBRANCH   8   9
BRANCH   7  19
HETATM   19  C3  UNL     1      16.747   5.059  13.734  1.00  0.00     0.093 C
HETATM   20  C4  UNL     1      16.968   4.050  12.673  1.00  0.00     0.051 C
HETATM   21  C5  UNL     1      16.775   2.627  13.099  1.00  0.00     0.169 C
HETATM   22  O3  UNL     1      15.927   2.597  14.225  1.00  0.00    -0.391 OA
HETATM   23  C6  UNL     1      16.688   3.064  15.281  1.00  0.00     0.169 C
HETATM   24  C7  UNL     1      16.950   4.516  15.138  1.00  0.00     0.051 C
ENDBRANCH   7  19
TORSDOF 2
ENDMDL