MODEL 2
REMARK VINA RESULT: -6.558411275      3.088      7.199
REMARK  4 active torsions:
REMARK  status: ('A' for Active; 'I' for Inactive)
REMARK    1  A    between atoms: C4_5  and  N2_6
REMARK    2  A    between atoms: N2_6  and  C5_8
REMARK    3  A    between atoms: C5_8  and  N3_10
REMARK    4  A    between atoms: C9_14  and  C10_15
ROOT
HETATM    1  N3  UNL     1      16.994   6.340  12.808  1.00  0.00    -0.358 N
HETATM    2  C6  UNL     1      17.828   7.058  13.742  1.00  0.00     0.125 C
HETATM    3  C7  UNL     1      16.946   7.699  14.775  1.00  0.00     0.020 C
HETATM    4  C8  UNL     1      15.608   7.102  14.929  1.00  0.00     0.010 C
HETATM    5  C9  UNL     1      15.437   5.680  14.558  1.00  0.00     0.033 C
HETATM    6  C15 UNL     1      16.281   5.215  13.396  1.00  0.00     0.132 C
ENDROOT
BRANCH   1   7
HETATM    7  C5  UNL     1      16.878   6.696  11.453  1.00  0.00     0.170 C
HETATM    8  S1  UNL     1      17.954   5.985  10.414  1.00  0.00    -0.041 SA
BRANCH   7   9
HETATM    9  N2  UNL     1      15.947   7.590  10.903  1.00  0.00    -0.362 N
ATOM     10  H2  UNL     1      15.433   7.306  10.068  1.00  0.00     0.162 HD
BRANCH   9  11
HETATM   11  C4  UNL     1      15.680   8.904  11.469  1.00  0.00     0.087 C
HETATM   12  C3  UNL     1      16.755   9.860  11.089  1.00  0.00     0.044 C
HETATM   13  C2  UNL     1      16.307  11.153  10.525  1.00  0.00     0.118 C
HETATM   14  N1  UNL     1      15.226  11.129   9.618  1.00  0.00    -0.416 N
HETATM   15  C1  UNL     1      14.615  12.416   9.384  1.00  0.00     0.143 C
HETATM   16  C17 UNL     1      14.293  10.061   9.736  1.00  0.00     0.118 C
HETATM   17  C16 UNL     1      14.297   9.389  11.088  1.00  0.00     0.044 C
ENDBRANCH   9  11
ENDBRANCH   7   9
ENDBRANCH   1   7
BRANCH   5  18
HETATM   18  C10 UNL     1      15.539   4.722  15.747  1.00  0.00     0.127 C
HETATM   19  C11 UNL     1      16.002   3.363  15.353  1.00  0.00     0.032 C
HETATM   20  C12 UNL     1      16.031   2.509  16.608  1.00  0.00     0.004 C
HETATM   21  C13 UNL     1      14.659   2.465  17.188  1.00  0.00     0.026 C
HETATM   22  C14 UNL     1      13.770   3.558  16.696  1.00  0.00     0.168 C
HETATM   23  O1  UNL     1      14.385   4.760  16.483  1.00  0.00    -0.385 OA
ENDBRANCH   5  18
TORSDOF 4
ENDMDL