MODEL 1
REMARK VINA RESULT: -7.754376528      0.000      0.000
REMARK  2 active torsions:
REMARK  status: ('A' for Active; 'I' for Inactive)
REMARK    1  A    between atoms: C5_5  and  C6_6
REMARK    2  A    between atoms: C6_6  and  N1_7
ROOT
HETATM    1  N1  UNL     1      17.593   6.430  13.145  1.00  0.00    -0.412 N
HETATM    2  C7  UNL     1      18.996   6.473  13.352  1.00  0.00     0.117 C
HETATM    3  C8  UNL     1      19.321   7.646  14.258  1.00  0.00     0.029 C
HETATM    4  C9  UNL     1      18.896   8.973  13.698  1.00  0.00    -0.032 C
HETATM    5  C10 UNL     1      17.666   8.827  12.833  1.00  0.00     0.029 C
HETATM    6  C11 UNL     1      16.887   7.641  13.369  1.00  0.00     0.117 C
HETATM    7  C12 UNL     1      18.514   9.843  14.875  1.00  0.00     0.040 C
HETATM    8  C13 UNL     1      19.730  10.563  15.406  1.00  0.00     0.276 C
HETATM    9  N2  UNL     1      20.300  11.467  14.441  1.00  0.00     0.120 N
HETATM   10  C14 UNL     1      19.772  12.794  14.536  1.00  0.00     0.377 C
HETATM   11  C15 UNL     1      19.156  13.065  13.209  1.00  0.00     0.247 C
HETATM   12  O1  UNL     1      18.702  14.183  12.802  1.00  0.00    -0.272 OA
HETATM   13  N3  UNL     1      19.183  11.827  12.509  1.00  0.00    -0.330 N
ATOM     14  H3  UNL     1      18.576  11.556  11.736  1.00  0.00     0.164 HD
HETATM   15  C16 UNL     1      20.218  11.036  13.090  1.00  0.00     0.325 C
HETATM   16  C17 UNL     1      20.030   9.555  12.923  1.00  0.00     0.067 C
ENDROOT
BRANCH   1  17
HETATM   17  C6  UNL     1      16.938   5.222  13.485  1.00  0.00     0.121 C
BRANCH  17  18
HETATM   18  C5  UNL     1      16.454   5.101  14.884  1.00  0.00     0.003 C
HETATM   19  C4  UNL     1      17.050   3.966  15.663  1.00  0.00     0.006 C
HETATM   20  C3  UNL     1      15.990   3.036  16.220  1.00  0.00     0.005 C
HETATM   21  C2  UNL     1      14.969   3.763  17.072  1.00  0.00    -0.019 C
HETATM   22  C1  UNL     1      13.891   2.774  17.461  1.00  0.00     0.010 C
HETATM   23  C19 UNL     1      14.370   4.863  16.236  1.00  0.00     0.005 C
HETATM   24  C18 UNL     1      14.947   4.867  14.835  1.00  0.00     0.006 C
ENDBRANCH  17  18
ENDBRANCH   1  17
TORSDOF 2
ENDMDL