MODEL 5
REMARK VINA RESULT: -6.583016650      3.961      5.698
REMARK  3 active torsions:
REMARK  status: ('A' for Active; 'I' for Inactive)
REMARK    1  A    between atoms: C4_5  and  N2_6
REMARK    2  A    between atoms: C7_9  and  C8_10
REMARK       I    between atoms: C8_10  and  N3_12
REMARK    3  A    between atoms: N3_12  and  C9_14
ROOT
HETATM    1  N2  UNL     1      21.657   6.777  10.785  1.00  0.00     0.093 N
HETATM    2  C5  UNL     1      20.506   7.644  10.610  1.00  0.00     0.273 C
HETATM    3  C6  UNL     1      19.954   8.053  11.958  1.00  0.00     0.044 C
HETATM    4  C7  UNL     1      19.990   6.807  12.832  1.00  0.00     0.081 C
HETATM    5  C16 UNL     1      19.941   5.590  11.943  1.00  0.00     0.044 C
HETATM    6  C17 UNL     1      21.297   5.465  11.232  1.00  0.00     0.273 C
ENDROOT
BRANCH   4   7
HETATM    7  C8  UNL     1      18.907   6.798  13.818  1.00  0.00     0.222 C
HETATM    8  O1  UNL     1      18.568   7.853  14.406  1.00  0.00    -0.273 OA
HETATM    9  N3  UNL     1      18.196   5.606  14.154  1.00  0.00    -0.356 N
ATOM     10  H3  UNL     1      18.449   4.733  13.692  1.00  0.00     0.162 HD
BRANCH   9  11
HETATM   11  C9  UNL     1      17.124   5.598  15.131  1.00  0.00     0.088 C
HETATM   12  C10 UNL     1      17.112   4.243  15.817  1.00  0.00     0.030 C
HETATM   13  C11 UNL     1      15.819   3.578  15.416  1.00  0.00    -0.012 C
HETATM   14  C12 UNL     1      14.708   4.258  16.156  1.00  0.00     0.005 C
HETATM   15  C15 UNL     1      15.629   4.190  14.016  1.00  0.00     0.011 C
HETATM   16  C13 UNL     1      14.743   5.682  15.579  1.00  0.00     0.007 C
HETATM   17  C14 UNL     1      15.768   5.642  14.470  1.00  0.00     0.009 C
ENDBRANCH   9  11
ENDBRANCH   4   7
BRANCH   1  18
HETATM   18  C4  UNL     1      22.498   6.779   9.603  1.00  0.00     0.226 C
HETATM   19  C3  UNL     1      21.765   6.557   8.340  1.00  0.00     0.066 C
HETATM   20  C2  UNL     1      22.212   5.481   7.440  1.00  0.00     0.274 C
HETATM   21  N1  UNL     1      23.243   4.613   7.912  1.00  0.00     0.084 N
HETATM   22  C1  UNL     1      23.871   3.981   6.739  1.00  0.00     0.309 C
HETATM   23  C19 UNL     1      24.284   5.351   8.576  1.00  0.00     0.274 C
HETATM   24  C18 UNL     1      23.689   5.908   9.844  1.00  0.00     0.066 C
ENDBRANCH   1  18
TORSDOF 3
ENDMDL