MODEL 5
REMARK VINA RESULT: -6.041644494      3.520      6.267
REMARK  1 active torsions:
REMARK  status: ('A' for Active; 'I' for Inactive)
REMARK    1  A    between atoms: O1_2  and  C2_3
ROOT
HETATM    1  C2  UNL     1      17.476   6.890   9.425  1.00  0.00     0.150 C
HETATM    2  C3  UNL     1      17.968   7.160   8.062  1.00  0.00     0.034 C
HETATM    3  C4  UNL     1      16.948   7.250   6.972  1.00  0.00     0.003 C
HETATM    4  C5  UNL     1      16.749   8.599   6.382  1.00  0.00     0.005 C
HETATM    5  C6  UNL     1      15.665   9.459   6.957  1.00  0.00    -0.004 C
HETATM    6  C7  UNL     1      14.313   8.858   6.860  1.00  0.00     0.031 C
HETATM    7  C8  UNL     1      13.254   9.411   7.676  1.00  0.00    -0.030 C
HETATM    8  C9  UNL     1      13.199   9.828   8.919  1.00  0.00    -0.023 C
HETATM    9  C10 UNL     1      14.217   9.882   9.950  1.00  0.00     0.044 C
HETATM   10  C11 UNL     1      13.984   8.976  11.156  1.00  0.00     0.012 C
HETATM   11  C12 UNL     1      15.394   9.096  11.773  1.00  0.00     0.018 C
HETATM   12  C13 UNL     1      16.335   8.893  10.576  1.00  0.00     0.037 C
HETATM   13  C14 UNL     1      17.599   9.622  10.715  1.00  0.00     0.138 C
HETATM   14  N1  UNL     1      17.550  11.046  10.531  1.00  0.00    -0.360 N
ATOM     15  H1  UNL     1      18.187  11.573  11.129  1.00  0.00     0.162 HD
HETATM   16  C15 UNL     1      16.760  11.846   9.651  1.00  0.00     0.218 C
HETATM   17  O2  UNL     1      16.744  13.079   9.894  1.00  0.00    -0.274 OA
HETATM   18  C16 UNL     1      15.937  11.469   8.474  1.00  0.00     0.110 C
HETATM   19  C17 UNL     1      16.091   9.963   8.297  1.00  0.00     0.035 C
HETATM   20  C18 UNL     1      15.477   9.248   9.437  1.00  0.00     0.084 C
HETATM   21  O3  UNL     1      15.276   7.919   9.185  1.00  0.00    -0.369 OA
HETATM   22  C19 UNL     1      16.308   7.518   9.998  1.00  0.00     0.164 C
ENDROOT
BRANCH   1  23
HETATM   23  O1  UNL     1      17.324   5.479   9.523  1.00  0.00    -0.388 OA
HETATM   24  C1  UNL     1      16.948   5.064  10.773  1.00  0.00     0.202 C
ENDBRANCH   1  23
TORSDOF 1
ENDMDL