MODEL 3
REMARK VINA RESULT: -6.471619208      1.823      3.426
REMARK  4 active torsions:
REMARK  status: ('A' for Active; 'I' for Inactive)
REMARK    1  A    between atoms: C2_2  and  N1_4
REMARK    2  A    between atoms: N3_12  and  C10_13
REMARK    3  A    between atoms: C10_13  and  N4_15
REMARK    4  A    between atoms: N4_15  and  C11_17
ROOT
HETATM    1  N1  UNL     1      18.429   6.380  10.244  1.00  0.00    -0.405 N
HETATM    2  C4  UNL     1      19.799   6.484  10.541  1.00  0.00     0.147 C
HETATM    3  C5  UNL     1      20.038   5.674  11.825  1.00  0.00     0.292 C
HETATM    4  N2  UNL     1      19.130   6.084  12.873  1.00  0.00     0.097 N
HETATM    5  C6  UNL     1      19.591   7.334  13.391  1.00  0.00     0.311 C
HETATM    6  C7  UNL     1      17.752   6.076  12.481  1.00  0.00     0.177 C
HETATM    7  C8  UNL     1      17.334   4.688  12.062  1.00  0.00     0.063 C
HETATM    8  C9  UNL     1      16.289   4.113  12.998  1.00  0.00     0.128 C
HETATM    9  N3  UNL     1      16.648   4.298  14.380  1.00  0.00    -0.358 N
HETATM   10  C14 UNL     1      17.116   5.606  14.788  1.00  0.00     0.128 C
HETATM   11  C15 UNL     1      16.899   6.551  13.607  1.00  0.00     0.063 C
HETATM   12  C16 UNL     1      17.572   6.950  11.230  1.00  0.00     0.159 C
ENDROOT
BRANCH   1  13
HETATM   13  C2  UNL     1      18.016   6.475   8.906  1.00  0.00     0.071 C
HETATM   14  C1  UNL     1      19.186   6.252   7.986  1.00  0.00     0.031 C
HETATM   15  C3  UNL     1      17.339   7.763   8.521  1.00  0.00     0.031 C
ENDBRANCH   1  13
BRANCH   9  16
HETATM   16  C10 UNL     1      16.561   3.256  15.363  1.00  0.00     0.170 C
HETATM   17  S1  UNL     1      16.694   1.736  14.807  1.00  0.00    -0.041 SA
BRANCH  16  18
HETATM   18  N4  UNL     1      16.356   3.557  16.719  1.00  0.00    -0.362 N
ATOM     19  H4  UNL     1      17.194   3.771  17.260  1.00  0.00     0.162 HD
BRANCH  18  20
HETATM   20  C11 UNL     1      15.122   3.600  17.432  1.00  0.00     0.084 A
HETATM   21  C12 UNL     1      14.014   4.501  16.955  1.00  0.00     0.027 A
HETATM   22  C13 UNL     1      13.872   2.963  17.058  1.00  0.00     0.027 A
ENDBRANCH  18  20
ENDBRANCH  16  18
ENDBRANCH   9  16
TORSDOF 4
ENDMDL