MODEL 3
REMARK VINA RESULT: -7.754883913      0.135      1.456
REMARK  3 active torsions:
REMARK  status: ('A' for Active; 'I' for Inactive)
REMARK    1  A    between atoms: N1_6  and  C4_7
REMARK    2  A    between atoms: C4_7  and  C5_8
REMARK       I    between atoms: N2_12  and  C8_13
REMARK       I    between atoms: C8_13  and  N3_15
REMARK    3  A    between atoms: N3_15  and  C9_17
ROOT
HETATM    1  C5  UNL     1      16.550   4.762  14.251  1.00  0.00     0.245 C
HETATM    2  O3  UNL     1      15.146   4.897  14.371  1.00  0.00    -0.363 OA
HETATM    3  C6  UNL     1      14.922   6.113  14.975  1.00  0.00     0.190 C
HETATM    4  C7  UNL     1      16.135   6.983  14.634  1.00  0.00     0.156 C
HETATM    5  N2  UNL     1      16.905   6.083  13.830  1.00  0.00    -0.304 N
HETATM    6  C8  UNL     1      17.829   6.401  12.825  1.00  0.00     0.321 C
HETATM    7  O4  UNL     1      18.050   7.606  12.551  1.00  0.00    -0.247 OA
HETATM    8  N3  UNL     1      18.545   5.430  12.083  1.00  0.00    -0.334 N
ATOM      9  H3  UNL     1      18.376   4.445  12.292  1.00  0.00     0.165 HD
ENDROOT
BRANCH   8  10
HETATM   10  C9  UNL     1      19.487   5.746  11.061  1.00  0.00     0.035 C
HETATM   11  C10 UNL     1      20.658   6.546  11.544  1.00  0.00     0.035 C
HETATM   12  C11 UNL     1      21.696   6.675  10.448  1.00  0.00    -0.012 C
HETATM   13  C12 UNL     1      22.168   5.352   9.941  1.00  0.00     0.009 C
HETATM   14  C16 UNL     1      21.042   7.471   9.326  1.00  0.00     0.009 C
HETATM   15  C13 UNL     1      20.962   4.620   9.344  1.00  0.00    -0.012 C
HETATM   16  C14 UNL     1      20.361   5.415   8.217  1.00  0.00     0.009 C
HETATM   17  C18 UNL     1      19.983   4.425  10.461  1.00  0.00     0.035 C
HETATM   18  C15 UNL     1      19.853   6.710   8.823  1.00  0.00    -0.012 C
HETATM   19  C17 UNL     1      18.835   6.471   9.897  1.00  0.00     0.035 C
ENDBRANCH   8  10
BRANCH   1  20
HETATM   20  C4  UNL     1      17.041   4.417  15.636  1.00  0.00     0.182 C
BRANCH  20  21
HETATM   21  N1  UNL     1      16.269   3.425  16.300  1.00  0.00    -0.322 N
HETATM   22  C1  UNL     1      16.152   2.042  16.000  1.00  0.00     0.362 C
HETATM   23  O1  UNL     1      16.802   1.436  15.120  1.00  0.00    -0.238 OA
HETATM   24  O2  UNL     1      15.189   1.464  16.849  1.00  0.00    -0.302 OA
HETATM   25  C2  UNL     1      14.378   2.549  17.261  1.00  0.00     0.200 C
HETATM   26  C3  UNL     1      15.422   3.644  17.455  1.00  0.00     0.155 C
ENDBRANCH  20  21
ENDBRANCH   1  20
TORSDOF 3
ENDMDL