MODEL 1
REMARK VINA RESULT: -7.557432887      0.000      0.000
REMARK  3 active torsions:
REMARK  status: ('A' for Active; 'I' for Inactive)
REMARK    1  A    between atoms: C1_2  and  C2_3
REMARK       I    between atoms: C1_2  and  N4_17
REMARK    2  A    between atoms: C2_3  and  C3_4
REMARK    3  A    between atoms: C3_4  and  N1_5
ROOT
HETATM    1  C2  UNL     1      16.907   7.242  14.028  1.00  0.00     0.133 C
ENDROOT
BRANCH   1   2
HETATM    2  C1  UNL     1      17.401   8.230  13.043  1.00  0.00     0.221 C
HETATM    3  O1  UNL     1      16.709   8.365  11.975  1.00  0.00    -0.273 OA
HETATM    4  N4  UNL     1      18.571   8.992  13.255  1.00  0.00    -0.352 N
HETATM    5  C10 UNL     1      19.013   9.936  12.278  1.00  0.00     0.126 C
HETATM    6  C14 UNL     1      19.327   8.824  14.458  1.00  0.00     0.126 C
HETATM    7  C11 UNL     1      19.307  11.300  12.859  1.00  0.00     0.030 C
HETATM    8  C12 UNL     1      20.123  11.165  14.111  1.00  0.00    -0.033 C
HETATM    9  C13 UNL     1      19.467  10.229  15.059  1.00  0.00     0.030 C
HETATM   10  C15 UNL     1      21.533  10.689  13.715  1.00  0.00     0.014 C
HETATM   11  C18 UNL     1      20.463  12.454  14.755  1.00  0.00    -0.005 C
HETATM   12  C16 UNL     1      22.317  11.888  14.188  1.00  0.00    -0.013 C
HETATM   13  C17 UNL     1      21.486  13.110  13.816  1.00  0.00     0.010 C
HETATM   14  C19 UNL     1      21.706  12.095  15.583  1.00  0.00     0.010 C
ENDBRANCH   1   2
BRANCH   1  15
HETATM   15  C3  UNL     1      17.156   5.859  13.485  1.00  0.00     0.281 C
BRANCH  15  16
HETATM   16  N1  UNL     1      16.191   4.877  13.929  1.00  0.00     0.089 N
HETATM   17  C4  UNL     1      16.954   3.778  14.497  1.00  0.00     0.277 C
HETATM   18  C5  UNL     1      16.967   3.844  16.010  1.00  0.00     0.094 C
HETATM   19  C6  UNL     1      15.547   3.573  16.473  1.00  0.00     0.165 C
HETATM   20  C7  UNL     1      14.601   4.509  15.772  1.00  0.00     0.094 C
HETATM   21  N2  UNL     1      15.418   3.630  17.894  1.00  0.00    -0.351 N
HETATM   22  O2  UNL     1      15.210   2.277  16.120  1.00  0.00    -0.246 OA
HETATM   23  C8  UNL     1      15.350   5.508  14.928  1.00  0.00     0.277 C
HETATM   24  C9  UNL     1      15.464   2.424  18.342  1.00  0.00     0.202 C
ATOM     25  H2  UNL     1      15.310   4.476  18.453  1.00  0.00     0.163 HD
HETATM   26  N3  UNL     1      15.624   1.584  17.194  1.00  0.00    -0.260 N
ATOM     27  H3  UNL     1      15.988   0.631  17.191  1.00  0.00     0.195 HD
ENDBRANCH  15  16
ENDBRANCH   1  15
TORSDOF 3
ENDMDL