MODEL 3
REMARK VINA RESULT: -7.317465400      0.743      1.087
REMARK  3 active torsions:
REMARK  status: ('A' for Active; 'I' for Inactive)
REMARK    1  A    between atoms: C2_2  and  N1_4
REMARK    2  A    between atoms: C7_11  and  C8_12
REMARK    3  A    between atoms: C17_23  and  C18_24
ROOT
HETATM    1  N1  UNL     1      19.711   5.778  11.056  1.00  0.00    -0.371 N
ATOM      2  H1  UNL     1      19.880   4.828  11.386  1.00  0.00     0.161 HD
HETATM    3  C4  UNL     1      18.506   6.099  10.861  1.00  0.00     0.143 C
HETATM    4  N2  UNL     1      18.022   7.344  10.408  1.00  0.00    -0.332 N
HETATM    5  C5  UNL     1      18.259   8.632   9.781  1.00  0.00     0.205 C
HETATM    6  C6  UNL     1      17.105   8.676   8.810  1.00  0.00     0.153 C
HETATM    7  O1  UNL     1      17.048   9.145   7.706  1.00  0.00    -0.296 OA
HETATM    8  C7  UNL     1      15.984   7.987   9.526  1.00  0.00     0.109 C
HETATM    9  C11 UNL     1      16.597   7.332  10.720  1.00  0.00     0.240 C
HETATM   10  O2  UNL     1      16.230   6.031  10.892  1.00  0.00    -0.322 OA
HETATM   11  C12 UNL     1      17.323   5.236  11.063  1.00  0.00     0.240 C
HETATM   12  O3  UNL     1      17.362   4.163  10.183  1.00  0.00    -0.342 OA
HETATM   13  C13 UNL     1      16.656   3.126  10.727  1.00  0.00     0.130 C
HETATM   14  C14 UNL     1      17.483   1.923  11.140  1.00  0.00     0.033 C
HETATM   15  C15 UNL     1      16.947   2.080  12.548  1.00  0.00     0.011 C
HETATM   16  C16 UNL     1      16.393   3.412  12.165  1.00  0.00     0.035 C
HETATM   17  C17 UNL     1      17.323   4.590  12.435  1.00  0.00     0.164 C
ENDROOT
BRANCH  17  18
HETATM   18  C18 UNL     1      16.700   5.444  13.464  1.00  0.00     0.183 C
HETATM   19  O4  UNL     1      15.511   5.275  13.851  1.00  0.00    -0.648 OA
HETATM   20  O5  UNL     1      17.417   6.474  14.043  1.00  0.00    -0.648 OA
ENDBRANCH  17  18
BRANCH   1  21
HETATM   21  C2  UNL     1      20.862   6.595  10.865  1.00  0.00     0.074 C
HETATM   22  C1  UNL     1      21.257   7.371  12.103  1.00  0.00     0.031 C
HETATM   23  C3  UNL     1      22.037   5.656  10.563  1.00  0.00     0.031 C
ENDBRANCH   1  21
BRANCH   8  24
HETATM   24  C8  UNL     1      14.973   9.047   9.883  1.00  0.00    -0.007 C
HETATM   25  C9  UNL     1      13.735   8.827   9.038  1.00  0.00     0.010 C
HETATM   26  C10 UNL     1      14.595   9.044  11.328  1.00  0.00     0.010 C
ENDBRANCH   8  24
TORSDOF 3
ENDMDL