MODEL 1
REMARK VINA RESULT: -7.462510562      0.000      0.000
REMARK  4 active torsions:
REMARK  status: ('A' for Active; 'I' for Inactive)
REMARK    1  A    between atoms: C2_2  and  C5_5
REMARK       I    between atoms: C5_5  and  N1_7
REMARK    2  A    between atoms: N1_7  and  C6_9
REMARK    3  A    between atoms: C6_9  and  C7_10
REMARK    4  A    between atoms: C7_10  and  C8_11
REMARK       I    between atoms: C8_11  and  N2_13
ROOT
HETATM    1  C8  UNL     1      17.228   4.173  10.962  1.00  0.00     0.222 C
HETATM    2  O2  UNL     1      15.944   4.188  10.976  1.00  0.00    -0.273 OA
HETATM    3  N2  UNL     1      17.881   5.412  10.928  1.00  0.00    -0.343 N
HETATM    4  C9  UNL     1      17.082   6.617  10.922  1.00  0.00     0.129 C
HETATM    5  C10 UNL     1      17.526   7.553  12.045  1.00  0.00     0.058 C
HETATM    6  C11 UNL     1      18.996   7.920  11.850  1.00  0.00     0.066 C
HETATM    7  C12 UNL     1      19.591   8.061  13.212  1.00  0.00     0.059 C
HETATM    8  C13 UNL     1      19.994   9.521  13.238  1.00  0.00     0.119 C
HETATM    9  C14 UNL     1      19.786  10.052  14.588  1.00  0.00     0.066 C
HETATM   10  N3  UNL     1      19.604  10.466  15.657  1.00  0.00    -0.197 NA
HETATM   11  C15 UNL     1      18.941  10.104  12.320  1.00  0.00     0.188 C
HETATM   12  O3  UNL     1      18.961   9.197  11.270  1.00  0.00    -0.379 OA
HETATM   13  C16 UNL     1      19.712   7.039  10.907  1.00  0.00     0.068 C
HETATM   14  C17 UNL     1      19.314   5.584  10.892  1.00  0.00     0.030 C
HETATM   15  C18 UNL     1      20.041   4.817  11.981  1.00  0.00     0.038 C
HETATM   16  C19 UNL     1      19.810   5.036   9.564  1.00  0.00     0.038 C
ENDROOT
BRANCH   1  17
HETATM   17  C7  UNL     1      17.841   2.838  10.986  1.00  0.00     0.122 C
BRANCH  17  18
HETATM   18  C6  UNL     1      17.474   2.060  12.236  1.00  0.00     0.132 C
BRANCH  18  19
HETATM   19  N1  UNL     1      17.189   2.966  13.343  1.00  0.00    -0.360 N
HETATM   20  C5  UNL     1      16.714   2.453  14.594  1.00  0.00     0.225 C
HETATM   21  O1  UNL     1      16.535   1.220  14.763  1.00  0.00    -0.273 OA
ATOM     22  H1  UNL     1      17.328   3.969  13.226  1.00  0.00     0.162 HD
BRANCH  20  23
HETATM   23  C2  UNL     1      16.446   3.440  15.676  1.00  0.00     0.030 C
HETATM   24  C1  UNL     1      15.842   2.770  16.882  1.00  0.00     0.024 C
HETATM   25  C3  UNL     1      17.806   4.052  16.039  1.00  0.00     0.024 C
HETATM   26  C4  UNL     1      15.536   4.513  15.100  1.00  0.00     0.024 C
ENDBRANCH  20  23
ENDBRANCH  18  19
ENDBRANCH  17  18
ENDBRANCH   1  17
TORSDOF 4
ENDMDL