MODEL 3
REMARK VINA RESULT: -6.552533386      1.108      1.725
REMARK  5 active torsions:
REMARK  status: ('A' for Active; 'I' for Inactive)
REMARK    1  A    between atoms: C2_2  and  N1_3
REMARK    2  A    between atoms: N1_3  and  C3_5
REMARK    3  A    between atoms: C3_5  and  N2_7
REMARK    4  A    between atoms: C6_10  and  N3_11
REMARK    5  A    between atoms: N4_14  and  C9_15
ROOT
HETATM    1  N3  UNL     1      18.112   5.082  12.681  1.00  0.00    -0.387 N
HETATM    2  C7  UNL     1      17.216   5.977  13.272  1.00  0.00     0.138 C
HETATM    3  C8  UNL     1      16.967   5.498  14.704  1.00  0.00     0.141 C
HETATM    4  N4  UNL     1      16.674   4.129  14.800  1.00  0.00    -0.384 N
HETATM    5  C14 UNL     1      17.342   3.231  13.953  1.00  0.00     0.098 C
HETATM    6  C15 UNL     1      17.663   3.738  12.564  1.00  0.00     0.226 C
HETATM    7  C16 UNL     1      16.439   3.608  11.767  1.00  0.00     0.089 C
HETATM    8  N5  UNL     1      15.487   3.488  11.147  1.00  0.00    -0.195 NA
ENDROOT
BRANCH   1   9
HETATM    9  C6  UNL     1      19.172   5.500  11.884  1.00  0.00     0.084 C
HETATM   10  C5  UNL     1      20.234   6.350  12.477  1.00  0.00     0.045 C
HETATM   11  C4  UNL     1      21.016   6.973  11.289  1.00  0.00     0.127 C
HETATM   12  N2  UNL     1      21.481   5.985  10.385  1.00  0.00    -0.358 N
HETATM   13  C18 UNL     1      20.853   4.663  10.247  1.00  0.00     0.127 C
HETATM   14  C17 UNL     1      19.909   4.280  11.313  1.00  0.00     0.045 C
BRANCH  12  15
HETATM   15  C3  UNL     1      22.569   6.179   9.506  1.00  0.00     0.169 C
HETATM   16  S1  UNL     1      23.457   7.628   9.726  1.00  0.00    -0.041 SA
BRANCH  15  17
HETATM   17  N1  UNL     1      23.058   5.403   8.482  1.00  0.00    -0.367 N
ATOM     18  H1  UNL     1      23.706   4.684   8.802  1.00  0.00     0.161 HD
BRANCH  17  19
HETATM   19  C2  UNL     1      22.858   5.382   7.075  1.00  0.00     0.117 C
HETATM   20  C1  UNL     1      21.470   5.714   6.615  1.00  0.00     0.026 C
ENDBRANCH  17  19
ENDBRANCH  15  17
ENDBRANCH  12  15
ENDBRANCH   1   9
BRANCH   4  21
HETATM   21  C9  UNL     1      15.444   3.738  15.353  1.00  0.00     0.083 C
HETATM   22  C10 UNL     1      15.638   2.653  16.389  1.00  0.00     0.025 C
HETATM   23  C11 UNL     1      14.324   2.741  17.169  1.00  0.00     0.002 C
HETATM   24  C12 UNL     1      14.222   4.248  17.388  1.00  0.00     0.002 C
HETATM   25  C13 UNL     1      14.669   4.819  16.056  1.00  0.00     0.025 C
ENDBRANCH   4  21
TORSDOF 5
ENDMDL