MODEL 3
REMARK VINA RESULT: -7.920938164      5.398      8.489
REMARK  3 active torsions:
REMARK  status: ('A' for Active; 'I' for Inactive)
REMARK       I    between atoms: N2_7  and  C6_8
REMARK       I    between atoms: C6_8  and  N3_10
REMARK    1  A    between atoms: N3_10  and  C7_12
REMARK    2  A    between atoms: C7_12  and  C8_13
REMARK    3  A    between atoms: C11_16  and  C12_17
REMARK       I    between atoms: C12_17  and  N4_19
ROOT
HETATM    1  N1  UNL     1      16.593   1.365  14.419  1.00  0.00    -0.197 NA
HETATM    2  C1  UNL     1      16.766   2.083  15.312  1.00  0.00     0.065 C
HETATM    3  C2  UNL     1      16.970   2.973  16.448  1.00  0.00     0.111 C
HETATM    4  C3  UNL     1      15.668   3.466  17.026  1.00  0.00     0.022 C
HETATM    5  C4  UNL     1      14.790   4.164  16.061  1.00  0.00     0.021 C
HETATM    6  C5  UNL     1      15.417   4.700  14.838  1.00  0.00     0.127 C
HETATM    7  N2  UNL     1      16.844   4.677  14.795  1.00  0.00    -0.333 N
HETATM    8  C6  UNL     1      17.504   5.128  13.622  1.00  0.00     0.318 C
HETATM    9  O1  UNL     1      18.777   5.128  13.535  1.00  0.00    -0.247 OA
HETATM   10  N3  UNL     1      16.723   5.585  12.533  1.00  0.00    -0.341 N
ATOM     11  H3  UNL     1      15.705   5.590  12.590  1.00  0.00     0.164 HD
HETATM   12  C18 UNL     1      17.679   4.216  15.891  1.00  0.00     0.146 C
ENDROOT
BRANCH  10  13
HETATM   13  C7  UNL     1      17.391   6.042  11.348  1.00  0.00     0.156 C
BRANCH  13  14
HETATM   14  C8  UNL     1      16.988   7.436  10.947  1.00  0.00     0.140 C
HETATM   15  C9  UNL     1      16.138   8.127  11.979  1.00  0.00     0.036 C
HETATM   16  C10 UNL     1      15.190   8.961  11.121  1.00  0.00     0.044 C
HETATM   17  C11 UNL     1      15.741   8.675   9.711  1.00  0.00     0.214 C
HETATM   18  O3  UNL     1      16.101   7.350   9.867  1.00  0.00    -0.370 OA
BRANCH  17  19
HETATM   19  C12 UNL     1      14.716   8.961   8.720  1.00  0.00     0.248 C
HETATM   20  O2  UNL     1      13.963   7.947   8.442  1.00  0.00    -0.270 OA
HETATM   21  N4  UNL     1      14.436  10.145   8.044  1.00  0.00    -0.350 N
HETATM   22  C13 UNL     1      15.081  11.414   8.119  1.00  0.00     0.126 C
HETATM   23  C17 UNL     1      13.297  10.167   7.085  1.00  0.00     0.126 C
HETATM   24  C14 UNL     1      14.184  12.483   8.719  1.00  0.00     0.020 C
HETATM   25  C15 UNL     1      12.913  12.493   7.898  1.00  0.00     0.003 C
HETATM   26  C16 UNL     1      12.303  11.139   7.720  1.00  0.00     0.020 C
ENDBRANCH  17  19
ENDBRANCH  13  14
ENDBRANCH  10  13
TORSDOF 3
ENDMDL