MODEL 5
REMARK VINA RESULT: -6.249631494      2.772      5.099
REMARK  4 active torsions:
REMARK  status: ('A' for Active; 'I' for Inactive)
REMARK    1  A    between atoms: N1_2  and  C3_4
REMARK    2  A    between atoms: C3_4  and  C4_5
REMARK       I    between atoms: N2_10  and  C9_11
REMARK    3  A    between atoms: C9_11  and  C10_13
REMARK    4  A    between atoms: C10_13  and  C11_14
ROOT
HETATM    1  C11 UNL     1      18.827   4.894  12.133  1.00  0.00     0.007 C
HETATM    2  C12 UNL     1      19.999   4.738  11.189  1.00  0.00     0.009 C
HETATM    3  C13 UNL     1      20.228   3.223  11.292  1.00  0.00     0.039 C
HETATM    4  C14 UNL     1      18.831   2.717  11.192  1.00  0.00     0.073 C
HETATM    5  C15 UNL     1      18.546   1.311  11.557  1.00  0.00     0.076 C
HETATM    6  C16 UNL     1      17.692   1.424  10.330  1.00  0.00     0.163 C
HETATM    7  C17 UNL     1      16.268   1.684  10.562  1.00  0.00     0.087 C
HETATM    8  N3  UNL     1      15.862   2.964  10.959  1.00  0.00    -0.399 N
ATOM      9  H3  UNL     1      14.908   3.134  11.277  1.00  0.00     0.158 HD
HETATM   10  C18 UNL     1      16.808   4.016  10.907  1.00  0.00     0.131 C
HETATM   11  C19 UNL     1      17.930   3.734  11.855  1.00  0.00     0.007 C
HETATM   12  C20 UNL     1      17.392   3.234  13.179  1.00  0.00     0.020 C
HETATM   13  O2  UNL     1      18.439   2.470   9.855  1.00  0.00    -0.369 OA
ENDROOT
BRANCH   1  14
HETATM   14  C10 UNL     1      18.165   6.237  11.990  1.00  0.00     0.108 C
BRANCH  14  15
HETATM   15  C9  UNL     1      18.391   6.978  13.252  1.00  0.00     0.220 C
HETATM   16  N2  UNL     1      19.176   8.133  13.402  1.00  0.00    -0.346 N
HETATM   17  C4  UNL     1      19.846   8.713  12.279  1.00  0.00     0.115 C
HETATM   18  C8  UNL     1      19.310   8.745  14.692  1.00  0.00     0.126 C
HETATM   19  C5  UNL     1      19.356  10.138  12.157  1.00  0.00     0.027 C
HETATM   20  C6  UNL     1      19.426  10.917  13.423  1.00  0.00     0.004 C
HETATM   21  C7  UNL     1      18.959  10.212  14.643  1.00  0.00     0.020 C
HETATM   22  O1  UNL     1      17.793   6.471  14.269  1.00  0.00    -0.273 OA
BRANCH  17  23
HETATM   23  C3  UNL     1      21.354   8.652  12.406  1.00  0.00     0.296 C
BRANCH  23  24
HETATM   24  N1  UNL     1      21.933   7.610  11.617  1.00  0.00     0.082 N
HETATM   25  C1  UNL     1      23.358   7.473  11.840  1.00  0.00     0.309 C
HETATM   26  C2  UNL     1      21.732   7.929  10.215  1.00  0.00     0.309 C
ENDBRANCH  23  24
ENDBRANCH  17  23
ENDBRANCH  14  15
ENDBRANCH   1  14
TORSDOF 4
ENDMDL