MODEL 1
REMARK VINA RESULT: -7.350431126      0.000      0.000
REMARK  2 active torsions:
REMARK  status: ('A' for Active; 'I' for Inactive)
REMARK    1  A    between atoms: C12_14  and  C13_15
REMARK    2  A    between atoms: C12_14  and  C14_18
REMARK       I    between atoms: C14_18  and  N3_20
ROOT
HETATM    1  N1  UNL     1      14.840   6.935  15.634  1.00  0.00    -0.197 NA
HETATM    2  C1  UNL     1      15.699   7.133  14.867  1.00  0.00     0.064 C
HETATM    3  C2  UNL     1      16.769   7.378  13.879  1.00  0.00     0.099 C
HETATM    4  C3  UNL     1      17.949   6.622  14.366  1.00  0.00     0.053 C
HETATM    5  C4  UNL     1      19.066   6.470  13.372  1.00  0.00    -0.077 C
HETATM    6  C5  UNL     1      19.637   7.725  12.870  1.00  0.00    -0.001 C
HETATM    7  C6  UNL     1      18.935   8.577  11.922  1.00  0.00    -0.019 C
HETATM    8  C7  UNL     1      17.905   8.063  11.040  1.00  0.00     0.046 C
HETATM    9  C8  UNL     1      16.727   9.057  10.873  1.00  0.00     0.038 C
HETATM   10  C9  UNL     1      15.764   8.110  10.163  1.00  0.00     0.169 C
HETATM   11  O1  UNL     1      16.275   6.827  10.277  1.00  0.00    -0.378 OA
HETATM   12  C10 UNL     1      17.156   6.848  11.406  1.00  0.00     0.094 C
HETATM   13  C11 UNL     1      16.242   6.962  12.559  1.00  0.00     0.060 C
HETATM   14  C12 UNL     1      17.927   5.565  11.271  1.00  0.00     0.154 C
HETATM   15  C19 UNL     1      18.867   5.340  12.417  1.00  0.00     0.066 C
ENDROOT
BRANCH  14  16
HETATM   16  C13 UNL     1      18.743   5.677  10.029  1.00  0.00     0.252 C
HETATM   17  N2  UNL     1      18.252   5.711   8.713  1.00  0.00    -0.061 NA
HETATM   18  O2  UNL     1      20.024   5.749  10.155  1.00  0.00    -0.275 OA
ENDBRANCH  14  16
BRANCH  14  19
HETATM   19  C14 UNL     1      17.048   4.396  11.015  1.00  0.00     0.240 C
HETATM   20  O3  UNL     1      15.823   4.486  10.757  1.00  0.00    -0.272 OA
HETATM   21  N3  UNL     1      17.589   3.078  11.056  1.00  0.00    -0.351 N
HETATM   22  C15 UNL     1      18.952   2.674  11.333  1.00  0.00     0.126 C
HETATM   23  C18 UNL     1      16.804   1.845  10.794  1.00  0.00     0.126 C
HETATM   24  C16 UNL     1      19.007   1.192  11.005  1.00  0.00     0.021 C
HETATM   25  C17 UNL     1      17.615   0.795  11.503  1.00  0.00     0.021 C
ENDBRANCH  14  19
TORSDOF 2
ENDMDL