MODEL 5
REMARK VINA RESULT: -7.094277788      3.278      4.771
REMARK  3 active torsions:
REMARK  status: ('A' for Active; 'I' for Inactive)
REMARK    1  A    between atoms: C6_6  and  N1_7
REMARK       I    between atoms: N1_7  and  C7_9
REMARK    2  A    between atoms: C7_9  and  C8_11
REMARK    3  A    between atoms: C8_11  and  N2_12
ROOT
HETATM    1  N1  UNL     1      18.421   6.390  11.579  1.00  0.00    -0.351 N
ATOM      2  H1  UNL     1      19.051   7.063  12.017  1.00  0.00     0.163 HD
HETATM    3  C7  UNL     1      17.093   6.246  12.048  1.00  0.00     0.256 C
HETATM    4  O1  UNL     1      16.340   5.419  11.502  1.00  0.00    -0.267 OA
ENDROOT
BRANCH   3   5
HETATM    5  C8  UNL     1      16.606   7.067  13.174  1.00  0.00     0.160 C
BRANCH   5   6
HETATM    6  N2  UNL     1      16.499   6.336  14.363  1.00  0.00    -0.385 N
HETATM    7  C9  UNL     1      15.202   5.876  14.779  1.00  0.00     0.128 C
HETATM    8  C10 UNL     1      15.536   4.880  15.854  1.00  0.00     0.024 C
HETATM    9  C11 UNL     1      14.600   3.772  16.098  1.00  0.00     0.147 C
HETATM   10  C13 UNL     1      16.694   4.160  15.151  1.00  0.00     0.024 C
HETATM   11  S1  UNL     1      15.763   2.628  16.895  1.00  0.00     0.145 S
HETATM   12  O2  UNL     1      15.661   1.272  16.307  1.00  0.00    -0.228 OA
HETATM   13  O3  UNL     1      15.628   2.677  18.369  1.00  0.00    -0.228 OA
HETATM   14  C12 UNL     1      17.287   3.452  16.350  1.00  0.00     0.147 C
HETATM   15  C14 UNL     1      17.444   5.289  14.595  1.00  0.00     0.128 C
ENDBRANCH   5   6
ENDBRANCH   3   5
BRANCH   1  16
HETATM   16  C6  UNL     1      18.875   5.580  10.481  1.00  0.00     0.093 C
HETATM   17  C5  UNL     1      19.699   4.410  11.004  1.00  0.00     0.027 C
HETATM   18  C4  UNL     1      20.489   4.043   9.759  1.00  0.00     0.011 C
HETATM   19  C2  UNL     1      21.014   5.410   9.339  1.00  0.00    -0.039 C
HETATM   20  C1  UNL     1      21.420   5.327   7.885  1.00  0.00     0.015 C
HETATM   21  C3  UNL     1      22.207   5.710  10.185  1.00  0.00     0.015 C
HETATM   22  C15 UNL     1      19.838   6.290   9.577  1.00  0.00    -0.020 C
HETATM   23  C16 UNL     1      19.128   6.483   8.235  1.00  0.00     0.018 C
HETATM   24  C17 UNL     1      20.205   7.672  10.063  1.00  0.00     0.018 C
ENDBRANCH   1  16
TORSDOF 3
ENDMDL