MODEL 1
REMARK VINA RESULT: -7.539913931      0.000      0.000
REMARK  4 active torsions:
REMARK  status: ('A' for Active; 'I' for Inactive)
REMARK    1  A    between atoms: C2_2  and  O1_3
REMARK    2  A    between atoms: O1_3  and  C3_4
REMARK       I    between atoms: C3_4  and  N1_6
REMARK    3  A    between atoms: C6_9  and  C7_10
REMARK       I    between atoms: C7_10  and  N2_12
REMARK    4  A    between atoms: N2_12  and  C8_14
ROOT
HETATM    1  C3  UNL     1      16.696   3.137  15.913  1.00  0.00     0.362 C
HETATM    2  O2  UNL     1      17.770   2.500  16.064  1.00  0.00    -0.238 OA
HETATM    3  N1  UNL     1      16.702   4.499  15.526  1.00  0.00    -0.328 N
HETATM    4  C4  UNL     1      15.473   5.242  15.349  1.00  0.00     0.129 C
HETATM    5  C5  UNL     1      15.453   5.927  14.024  1.00  0.00     0.039 C
HETATM    6  C6  UNL     1      16.722   6.663  13.672  1.00  0.00     0.047 C
HETATM    7  C14 UNL     1      16.895   7.887  14.517  1.00  0.00     0.020 C
HETATM    8  C15 UNL     1      18.282   8.395  14.641  1.00  0.00     0.001 C
HETATM    9  C16 UNL     1      19.281   7.821  13.698  1.00  0.00     0.001 C
HETATM   10  C17 UNL     1      19.217   6.344  13.515  1.00  0.00     0.007 C
HETATM   11  C18 UNL     1      17.883   5.741  13.863  1.00  0.00     0.021 C
HETATM   12  C19 UNL     1      17.928   5.231  15.283  1.00  0.00     0.134 C
ENDROOT
BRANCH   6  13
HETATM   13  C7  UNL     1      16.579   7.064  12.242  1.00  0.00     0.227 C
HETATM   14  O3  UNL     1      16.768   6.229  11.350  1.00  0.00    -0.273 OA
HETATM   15  N2  UNL     1      16.232   8.384  11.860  1.00  0.00    -0.356 N
ATOM     16  H2  UNL     1      16.076   9.073  12.597  1.00  0.00     0.162 HD
BRANCH  15  17
HETATM   17  C8  UNL     1      16.086   8.807  10.494  1.00  0.00     0.087 C
HETATM   18  C9  UNL     1      14.674   8.606   9.982  1.00  0.00     0.055 C
HETATM   19  C10 UNL     1      14.338   9.555   8.855  1.00  0.00     0.274 C
HETATM   20  N3  UNL     1      14.382  10.936   9.250  1.00  0.00     0.084 N
HETATM   21  C11 UNL     1      14.793  11.725   8.114  1.00  0.00     0.309 C
HETATM   22  C12 UNL     1      15.205  11.119  10.406  1.00  0.00     0.274 C
HETATM   23  C13 UNL     1      16.459  10.255  10.294  1.00  0.00     0.055 C
ENDBRANCH  15  17
ENDBRANCH   6  13
BRANCH   1  24
HETATM   24  O1  UNL     1      15.509   2.468  16.135  1.00  0.00    -0.304 OA
BRANCH  24  25
HETATM   25  C2  UNL     1      15.137   2.089  17.442  1.00  0.00     0.176 C
HETATM   26  C1  UNL     1      14.918   3.343  18.242  1.00  0.00     0.034 C
ENDBRANCH  24  25
ENDBRANCH   1  24
TORSDOF 4
ENDMDL