MODEL 4
REMARK VINA RESULT: -6.354736045      4.158      5.741
REMARK  2 active torsions:
REMARK  status: ('A' for Active; 'I' for Inactive)
REMARK    1  A    between atoms: C10_12  and  C11_13
REMARK    2  A    between atoms: C11_13  and  C12_14
ROOT
HETATM    1  C1  UNL     1      21.331   5.244   7.102  1.00  0.00     0.143 C
HETATM    2  N1  UNL     1      21.647   6.223   8.082  1.00  0.00    -0.412 N
HETATM    3  C2  UNL     1      22.761   5.944   8.911  1.00  0.00     0.117 C
HETATM    4  C3  UNL     1      22.549   6.188  10.376  1.00  0.00     0.029 C
HETATM    5  C4  UNL     1      21.273   6.919  10.649  1.00  0.00    -0.028 C
HETATM    6  C5  UNL     1      21.103   7.984   9.590  1.00  0.00     0.035 C
HETATM    7  C6  UNL     1      20.548   6.855   8.709  1.00  0.00     0.085 C
HETATM    8  C7  UNL     1      20.144   6.179  10.025  1.00  0.00     0.034 C
HETATM    9  C8  UNL     1      18.773   6.712  10.448  1.00  0.00     0.125 C
HETATM   10  N2  UNL     1      18.771   6.897  11.829  1.00  0.00    -0.404 N
HETATM   11  C9  UNL     1      17.476   6.952  12.480  1.00  0.00     0.151 C
HETATM   12  C10 UNL     1      17.720   6.338  13.834  1.00  0.00    -0.065 C
HETATM   13  C17 UNL     1      18.835   7.055  14.579  1.00  0.00     0.037 C
HETATM   14  C18 UNL     1      19.477   8.149  13.780  1.00  0.00     0.029 C
HETATM   15  C19 UNL     1      19.705   7.841  12.351  1.00  0.00     0.080 C
HETATM   16  C20 UNL     1      21.088   7.340  12.053  1.00  0.00     0.035 C
ENDROOT
BRANCH  12  17
HETATM   17  C11 UNL     1      16.566   5.976  14.649  1.00  0.00    -0.011 C
BRANCH  17  18
HETATM   18  C12 UNL     1      16.230   4.632  15.059  1.00  0.00    -0.001 C
HETATM   19  C13 UNL     1      14.791   4.477  15.509  1.00  0.00     0.021 C
HETATM   20  C14 UNL     1      17.075   3.917  16.037  1.00  0.00     0.042 C
HETATM   21  C15 UNL     1      16.776   2.439  15.741  1.00  0.00     0.233 C
HETATM   22  N3  UNL     1      16.552   2.398  14.315  1.00  0.00    -0.074 N
HETATM   23  C16 UNL     1      16.345   3.711  13.828  1.00  0.00     0.245 C
ATOM     24  H32 UNL     1      17.305   1.919  13.821  1.00  0.00     0.277 HD
ATOM     25  H31 UNL     1      15.788   1.770  14.064  1.00  0.00     0.277 HD
ENDBRANCH  17  18
ENDBRANCH  12  17
TORSDOF 2
ENDMDL