MODEL 5
REMARK VINA RESULT: -6.534903871      1.593      1.901
REMARK  2 active torsions:
REMARK  status: ('A' for Active; 'I' for Inactive)
REMARK       I    between atoms: C2_2  and  N1_4
REMARK    1  A    between atoms: N1_4  and  C3_6
REMARK    2  A    between atoms: C3_6  and  C4_7
ROOT
HETATM    1  C4  UNL     1      17.019   6.248  14.666  1.00  0.00     0.012 C
HETATM    2  C5  UNL     1      15.527   6.564  14.708  1.00  0.00     0.008 C
HETATM    3  C6  UNL     1      15.659   7.108  13.300  1.00  0.00     0.010 C
HETATM    4  C7  UNL     1      17.052   6.475  13.193  1.00  0.00    -0.035 C
HETATM    5  C8  UNL     1      17.045   5.220  12.367  1.00  0.00     0.012 C
HETATM    6  C9  UNL     1      16.888   5.498  10.917  1.00  0.00     0.037 C
HETATM    7  C10 UNL     1      17.425   6.819  10.464  1.00  0.00     0.229 C
HETATM    8  C11 UNL     1      18.537   7.315  11.343  1.00  0.00     0.048 C
HETATM    9  C12 UNL     1      19.079   8.626  10.894  1.00  0.00     0.279 C
HETATM   10  N2  UNL     1      18.997   8.896   9.507  1.00  0.00     0.097 N
HETATM   11  C13 UNL     1      17.659   9.124   9.030  1.00  0.00     0.308 C
HETATM   12  C14 UNL     1      17.240   7.850   8.292  1.00  0.00     0.252 C
HETATM   13  C15 UNL     1      17.986   7.905   6.960  1.00  0.00     0.040 C
HETATM   14  C16 UNL     1      19.405   8.414   7.219  1.00  0.00     0.040 C
HETATM   15  C17 UNL     1      19.717   7.994   8.664  1.00  0.00     0.251 C
HETATM   16  C18 UNL     1      19.137   6.578   8.783  1.00  0.00     0.309 C
HETATM   17  N3  UNL     1      17.740   6.746   9.083  1.00  0.00     0.102 N
HETATM   18  C19 UNL     1      18.037   7.488  12.753  1.00  0.00     0.018 C
ENDROOT
BRANCH   1  19
HETATM   19  C3  UNL     1      17.268   4.853  15.141  1.00  0.00     0.128 C
BRANCH  19  20
HETATM   20  N1  UNL     1      16.110   4.297  15.813  1.00  0.00    -0.361 N
HETATM   21  C2  UNL     1      16.136   3.078  16.516  1.00  0.00     0.213 C
HETATM   22  C1  UNL     1      14.936   2.537  17.193  1.00  0.00     0.117 C
HETATM   23  O1  UNL     1      17.235   2.443  16.554  1.00  0.00    -0.274 OA
ATOM     24  H1  UNL     1      15.233   4.816  15.775  1.00  0.00     0.162 HD
ENDBRANCH  19  20
ENDBRANCH   1  19
TORSDOF 2
ENDMDL