MODEL 5
REMARK VINA RESULT: -6.955772170      3.458      4.958
REMARK  2 active torsions:
REMARK  status: ('A' for Active; 'I' for Inactive)
REMARK    1  A    between atoms: C2_2  and  N1_4
REMARK    2  A    between atoms: N3_14  and  C8_15
ROOT
HETATM    1  N1  UNL     1      16.044   8.697  10.411  1.00  0.00    -0.369 N
HETATM    2  C4  UNL     1      17.035   9.498  11.013  1.00  0.00     0.065 C
HETATM    3  C5  UNL     1      18.018   8.489  11.551  1.00  0.00     0.067 C
HETATM    4  C6  UNL     1      17.165   7.287  11.973  1.00  0.00     0.046 C
HETATM    5  C7  UNL     1      16.662   7.582  13.319  1.00  0.00     0.154 C
HETATM    6  N2  UNL     1      16.209   6.487  14.109  1.00  0.00    -0.301 N
ATOM      7  H2  UNL     1      15.294   6.366  14.543  1.00  0.00     0.173 HD
HETATM    8  S1  UNL     1      17.576   5.396  14.167  1.00  0.00     0.321 S
HETATM    9  O1  UNL     1      18.732   6.246  14.683  1.00  0.00    -0.182 OA
HETATM   10  O2  UNL     1      17.374   4.309  15.146  1.00  0.00    -0.182 OA
HETATM   11  N3  UNL     1      17.868   4.983  12.589  1.00  0.00    -0.268 N
HETATM   12  C14 UNL     1      17.960   6.077  11.731  1.00  0.00     0.095 C
HETATM   13  C15 UNL     1      16.008   7.413  10.984  1.00  0.00     0.080 C
ENDROOT
BRANCH  11  14
HETATM   14  C8  UNL     1      17.720   3.690  12.110  1.00  0.00     0.102 C
HETATM   15  C9  UNL     1      16.525   3.618  11.156  1.00  0.00     0.026 C
HETATM   16  C10 UNL     1      16.190   2.120  11.085  1.00  0.00     0.002 C
HETATM   17  C11 UNL     1      17.310   1.508  10.267  1.00  0.00     0.000 C
HETATM   18  C12 UNL     1      18.659   1.754  10.827  1.00  0.00     0.002 C
HETATM   19  C13 UNL     1      18.892   3.150  11.332  1.00  0.00     0.026 C
ENDBRANCH  11  14
BRANCH   1  20
HETATM   20  C2  UNL     1      14.826   9.321  10.075  1.00  0.00     0.080 C
HETATM   21  C1  UNL     1      13.959   9.446  11.335  1.00  0.00     0.032 C
HETATM   22  C3  UNL     1      13.988   8.612   9.054  1.00  0.00     0.032 C
ENDBRANCH   1  20
TORSDOF 2
ENDMDL