MODEL 1
REMARK VINA RESULT: -7.003469306      0.000      0.000
REMARK  2 active torsions:
REMARK  status: ('A' for Active; 'I' for Inactive)
REMARK       I    between atoms: N1_2  and  C3_4
REMARK       I    between atoms: C3_4  and  N2_6
REMARK    1  A    between atoms: N2_6  and  C4_8
REMARK    2  A    between atoms: C4_8  and  C5_9
ROOT
HETATM    1  C5  UNL     1      17.532   4.262  12.138  1.00  0.00     0.055 C
HETATM    2  C6  UNL     1      16.522   4.409  11.017  1.00  0.00     0.041 C
HETATM    3  C7  UNL     1      17.625   5.468  12.994  1.00  0.00     0.043 C
HETATM    4  C8  UNL     1      17.961   6.752  12.345  1.00  0.00    -0.023 C
HETATM    5  C9  UNL     1      18.266   7.709  13.519  1.00  0.00     0.016 C
HETATM    6  C10 UNL     1      16.765   7.404  11.638  1.00  0.00     0.016 C
HETATM    7  C11 UNL     1      19.176   6.765  11.493  1.00  0.00     0.082 C
HETATM    8  C12 UNL     1      19.047   7.741  10.328  1.00  0.00     0.034 C
HETATM    9  C13 UNL     1      20.411   7.234  12.276  1.00  0.00     0.034 C
HETATM   10  S1  UNL     1      19.591   5.199  10.792  1.00  0.00     0.237 S
HETATM   11  O2  UNL     1      21.093   4.946  10.847  1.00  0.00    -0.205 OA
HETATM   12  O3  UNL     1      19.248   5.160   9.308  1.00  0.00    -0.205 OA
HETATM   13  N3  UNL     1      18.795   3.975  11.578  1.00  0.00    -0.303 N
HETATM   14  C14 UNL     1      19.102   2.655  11.212  1.00  0.00     0.163 C
ENDROOT
BRANCH   1  15
HETATM   15  C4  UNL     1      17.008   3.118  12.980  1.00  0.00     0.155 C
BRANCH  15  16
HETATM   16  N2  UNL     1      16.243   3.531  14.103  1.00  0.00    -0.341 N
HETATM   17  C3  UNL     1      16.036   2.637  15.177  1.00  0.00     0.317 C
HETATM   18  N1  UNL     1      15.282   2.994  16.321  1.00  0.00    -0.343 N
HETATM   19  O1  UNL     1      16.532   1.488  15.127  1.00  0.00    -0.247 OA
HETATM   20  C1  UNL     1      15.052   2.110  17.429  1.00  0.00     0.154 C
HETATM   21  C2  UNL     1      14.707   4.326  16.379  1.00  0.00     0.154 C
ATOM     22  H2  UNL     1      15.843   4.470  14.133  1.00  0.00     0.164 HD
ENDBRANCH  15  16
ENDBRANCH   1  15
TORSDOF 2
ENDMDL