MODEL 1
REMARK VINA RESULT: -7.507923872      0.000      0.000
REMARK  2 active torsions:
REMARK  status: ('A' for Active; 'I' for Inactive)
REMARK    1  A    between atoms: C11_11  and  C12_12
REMARK       I    between atoms: C12_12  and  N1_14
REMARK    2  A    between atoms: N1_14  and  C13_16
ROOT
HETATM    1  C1  UNL     1      17.537   8.357  11.908  1.00  0.00     0.012 C
HETATM    2  C2  UNL     1      18.116   7.580  11.181  1.00  0.00    -0.111 C
HETATM    3  C3  UNL     1      18.806   6.616  10.305  1.00  0.00     0.086 C
HETATM    4  C4  UNL     1      20.017   7.323   9.747  1.00  0.00     0.003 C
HETATM    5  C5  UNL     1      20.771   7.904  10.935  1.00  0.00     0.010 C
HETATM    6  C6  UNL     1      21.129   6.794  11.879  1.00  0.00    -0.013 C
HETATM    7  C7  UNL     1      22.077   5.866  11.123  1.00  0.00     0.009 C
HETATM    8  C8  UNL     1      21.343   5.288   9.947  1.00  0.00    -0.013 C
HETATM    9  C9  UNL     1      20.851   6.336   8.983  1.00  0.00     0.010 C
HETATM   10  C10 UNL     1      20.160   4.513  10.469  1.00  0.00     0.025 C
HETATM   11  C11 UNL     1      19.188   5.443  11.175  1.00  0.00     0.056 C
HETATM   12  C17 UNL     1      19.946   6.011  12.363  1.00  0.00     0.025 C
ENDROOT
BRANCH  11  13
HETATM   13  C12 UNL     1      17.978   4.724  11.562  1.00  0.00     0.228 C
HETATM   14  O1  UNL     1      17.168   4.368  10.657  1.00  0.00    -0.273 OA
HETATM   15  N1  UNL     1      17.627   4.384  12.889  1.00  0.00    -0.355 N
ATOM     16  H1  UNL     1      18.254   4.653  13.647  1.00  0.00     0.162 HD
BRANCH  15  17
HETATM   17  C13 UNL     1      16.421   3.675  13.209  1.00  0.00     0.099 C
HETATM   18  C14 UNL     1      15.452   4.470  14.016  1.00  0.00     0.041 C
HETATM   19  C15 UNL     1      15.795   4.395  15.451  1.00  0.00     0.142 C
HETATM   20  S1  UNL     1      16.426   2.729  15.614  1.00  0.00     0.146 S
HETATM   21  O2  UNL     1      15.414   1.804  16.193  1.00  0.00    -0.228 OA
HETATM   22  O3  UNL     1      17.704   2.683  16.362  1.00  0.00    -0.228 OA
HETATM   23  C16 UNL     1      16.662   2.361  13.891  1.00  0.00     0.165 C
ENDBRANCH  15  17
ENDBRANCH  11  13
TORSDOF 2
ENDMDL