MODEL 5
REMARK VINA RESULT: -5.838080564      2.759      4.927
REMARK  4 active torsions:
REMARK  status: ('A' for Active; 'I' for Inactive)
REMARK    1  A    between atoms: C2_2  and  O1_3
REMARK    2  A    between atoms: O1_3  and  C3_4
REMARK       I    between atoms: C3_4  and  N1_6
REMARK    3  A    between atoms: C4_7  and  C5_8
REMARK    4  A    between atoms: C5_8  and  O3_9
ROOT
HETATM    1  C3  UNL     1      17.170   4.933  10.920  1.00  0.00     0.367 C
HETATM    2  O2  UNL     1      16.020   5.163  10.527  1.00  0.00    -0.238 OA
HETATM    3  N1  UNL     1      18.126   5.799  11.459  1.00  0.00    -0.293 N
HETATM    4  C4  UNL     1      17.718   7.134  11.701  1.00  0.00     0.022 C
HETATM    5  C6  UNL     1      18.450   8.227  11.003  1.00  0.00     0.040 C
HETATM    6  C7  UNL     1      18.629   9.378  12.001  1.00  0.00     0.011 C
HETATM    7  C8  UNL     1      19.458   9.005  13.161  1.00  0.00     0.001 C
HETATM    8  C9  UNL     1      20.428   7.895  13.004  1.00  0.00     0.005 C
HETATM    9  C10 UNL     1      20.661   7.359  11.654  1.00  0.00    -0.000 C
HETATM   10  C11 UNL     1      19.839   7.917  10.533  1.00  0.00     0.026 C
HETATM   11  C12 UNL     1      19.932   7.148   9.273  1.00  0.00     0.242 C
HETATM   12  N2  UNL     1      21.015   6.197   9.214  1.00  0.00    -0.070 N
HETATM   13  C13 UNL     1      20.722   5.351   8.041  1.00  0.00     0.272 C
HETATM   14  C14 UNL     1      22.305   6.778   8.954  1.00  0.00     0.272 C
HETATM   15  C15 UNL     1      21.083   5.293  10.329  1.00  0.00     0.198 C
HETATM   16  C16 UNL     1      19.849   4.378  10.413  1.00  0.00     0.060 C
HETATM   17  C17 UNL     1      19.403   5.136  11.644  1.00  0.00     0.103 C
HETATM   18  C18 UNL     1      20.632   5.874  11.645  1.00  0.00     0.045 C
ENDROOT
BRANCH   1  19
HETATM   19  O1  UNL     1      17.515   3.563  10.784  1.00  0.00    -0.304 OA
BRANCH  19  20
HETATM   20  C2  UNL     1      16.530   2.594  10.960  1.00  0.00     0.176 C
HETATM   21  C1  UNL     1      17.039   1.244  11.323  1.00  0.00     0.034 C
ENDBRANCH  19  20
ENDBRANCH   1  19
BRANCH   4  22
HETATM   22  C5  UNL     1      16.253   7.435  11.670  1.00  0.00     0.217 C
BRANCH  22  23
HETATM   23  O3  UNL     1      15.603   7.228  12.901  1.00  0.00    -0.395 OA
ATOM     24  H3  UNL     1      15.495   6.312  13.129  1.00  0.00     0.209 HD
ENDBRANCH  22  23
ENDBRANCH   4  22
TORSDOF 4
ENDMDL