MODEL 5
REMARK VINA RESULT: -6.756393109      1.276      1.539
REMARK  2 active torsions:
REMARK  status: ('A' for Active; 'I' for Inactive)
REMARK    1  A    between atoms: C10_12  and  C11_13
REMARK    2  A    between atoms: C11_13  and  C12_14
ROOT
HETATM    1  C12 UNL     1      16.791   1.745  12.609  1.00  0.00     0.126 C
HETATM    2  C13 UNL     1      17.363   0.817  11.659  1.00  0.00     0.059 C
HETATM    3  N2  UNL     1      17.830   0.088  10.890  1.00  0.00    -0.197 NA
ENDROOT
BRANCH   1   4
HETATM    4  C11 UNL     1      16.303   2.963  11.825  1.00  0.00     0.040 C
BRANCH   4   5
HETATM    5  C10 UNL     1      16.367   4.211  12.671  1.00  0.00     0.096 C
HETATM    6  C9  UNL     1      17.751   4.813  12.717  1.00  0.00     0.075 C
HETATM    7  C4  UNL     1      18.416   4.943  11.382  1.00  0.00     0.076 C
HETATM    8  C16 UNL     1      17.733   6.021  13.575  1.00  0.00    -0.024 C
HETATM    9  O1  UNL     1      19.786   5.072  11.460  1.00  0.00    -0.353 OA
HETATM   10  C5  UNL     1      17.723   5.752  10.380  1.00  0.00     0.234 C
HETATM   11  C3  UNL     1      20.347   6.252  11.691  1.00  0.00     0.186 C
HETATM   12  C2  UNL     1      19.446   7.344  12.212  1.00  0.00     0.003 C
HETATM   13  C1  UNL     1      20.457   8.458  12.590  1.00  0.00     0.019 C
HETATM   14  C8  UNL     1      18.524   7.907  11.221  1.00  0.00     0.253 C
HETATM   15  C18 UNL     1      18.904   6.919  13.512  1.00  0.00     0.023 C
HETATM   16  N1  UNL     1      18.073   7.086  10.163  1.00  0.00    -0.052 N
HETATM   17  C6  UNL     1      16.857   7.759   9.650  1.00  0.00     0.278 C
HETATM   18  C7  UNL     1      19.029   7.189   9.047  1.00  0.00     0.278 C
HETATM   19  C15 UNL     1      17.735   5.494  15.033  1.00  0.00     0.112 C
HETATM   20  C17 UNL     1      16.430   6.815  13.532  1.00  0.00     0.016 C
HETATM   21  C14 UNL     1      16.756   4.374  15.142  1.00  0.00     0.218 C
HETATM   22  N3  UNL     1      15.986   3.921  14.039  1.00  0.00    -0.356 N
HETATM   23  O2  UNL     1      16.612   3.818  16.240  1.00  0.00    -0.274 OA
ATOM     24  H3  UNL     1      15.142   3.377  14.214  1.00  0.00     0.162 HD
ENDBRANCH   4   5
ENDBRANCH   1   4
TORSDOF 2
ENDMDL