MODEL 4
REMARK VINA RESULT: -6.445344939      2.866      3.266
REMARK  2 active torsions:
REMARK  status: ('A' for Active; 'I' for Inactive)
REMARK       I    between atoms: N1_4  and  C4_5
REMARK       I    between atoms: C4_5  and  N2_7
REMARK    1  A    between atoms: N2_7  and  C5_9
REMARK    2  A    between atoms: N3_12  and  C8_13
ROOT
HETATM    1  C1  UNL     1      18.008  11.619  10.861  1.00  0.00     0.013 C
HETATM    2  C2  UNL     1      17.070  10.429  10.611  1.00  0.00     0.015 A
HETATM    3  C3  UNL     1      17.648   9.187  10.278  1.00  0.00     0.102 A
HETATM    4  N1  UNL     1      17.156   7.911   9.952  1.00  0.00    -0.328 N
HETATM    5  C4  UNL     1      16.611   7.062  10.940  1.00  0.00     0.319 C
HETATM    6  O1  UNL     1      16.196   5.933  10.566  1.00  0.00    -0.247 OA
HETATM    7  N2  UNL     1      16.524   7.440  12.308  1.00  0.00    -0.337 N
ATOM      8  H2  UNL     1      16.867   8.360  12.584  1.00  0.00     0.164 HD
HETATM    9  C14 UNL     1      17.266   7.577   8.546  1.00  0.00     0.128 C
HETATM   10  C15 UNL     1      18.024   8.587   7.758  1.00  0.00     0.021 C
HETATM   11  C16 UNL     1      17.690  10.045   8.071  1.00  0.00     0.013 C
HETATM   12  C17 UNL     1      16.837  10.069   9.258  1.00  0.00    -0.018 A
HETATM   13  C18 UNL     1      15.405   9.616   8.951  1.00  0.00     0.018 C
ENDROOT
BRANCH   7  14
HETATM   14  C5  UNL     1      15.979   6.588  13.305  1.00  0.00     0.116 C
HETATM   15  C6  UNL     1      14.699   7.093  13.934  1.00  0.00     0.057 C
HETATM   16  C7  UNL     1      14.778   6.499  15.320  1.00  0.00     0.275 C
HETATM   17  N3  UNL     1      16.025   5.796  15.451  1.00  0.00     0.095 N
HETATM   18  C13 UNL     1      16.897   6.357  14.482  1.00  0.00     0.298 C
BRANCH  17  19
HETATM   19  C8  UNL     1      15.802   4.394  15.386  1.00  0.00     0.227 C
HETATM   20  C9  UNL     1      17.012   3.573  15.773  1.00  0.00     0.062 C
HETATM   21  C10 UNL     1      16.634   2.113  15.665  1.00  0.00     0.169 C
HETATM   22  O2  UNL     1      15.402   1.803  16.181  1.00  0.00    -0.391 OA
HETATM   23  C11 UNL     1      14.992   2.751  17.084  1.00  0.00     0.169 C
HETATM   24  C12 UNL     1      14.679   4.026  16.326  1.00  0.00     0.062 C
ENDBRANCH  17  19
ENDBRANCH   7  14
TORSDOF 2
ENDMDL