MODEL 2
REMARK VINA RESULT: -6.843603726      2.244      3.414
REMARK  2 active torsions:
REMARK  status: ('A' for Active; 'I' for Inactive)
REMARK    1  A    between atoms: N2_13  and  C10_14
REMARK    2  A    between atoms: C10_14  and  C11_15
ROOT
HETATM    1  C1  UNL     1      19.485   8.572  10.517  1.00  0.00     0.010 C
HETATM    2  C2  UNL     1      18.942   9.054  11.847  1.00  0.00    -0.019 C
HETATM    3  C3  UNL     1      19.638   8.241  12.914  1.00  0.00     0.004 C
HETATM    4  C4  UNL     1      19.127   8.524  14.285  1.00  0.00     0.004 C
HETATM    5  C5  UNL     1      17.740   8.153  14.573  1.00  0.00     0.049 C
HETATM    6  C6  UNL     1      17.125   7.046  13.761  1.00  0.00     0.105 C
HETATM    7  C7  UNL     1      17.139   7.374  12.266  1.00  0.00     0.049 C
HETATM    8  C8  UNL     1      17.430   8.788  11.942  1.00  0.00     0.008 C
HETATM    9  N1  UNL     1      15.726   7.059  14.135  1.00  0.00    -0.319 N
ATOM     10  H1  UNL     1      15.154   7.815  13.758  1.00  0.00     0.166 HD
HETATM   11  C9  UNL     1      15.078   6.123  14.974  1.00  0.00     0.334 C
HETATM   12  O1  UNL     1      14.221   6.468  15.830  1.00  0.00    -0.246 OA
HETATM   13  N2  UNL     1      15.436   4.758  14.812  1.00  0.00    -0.214 N
HETATM   14  S1  UNL     1      16.632   4.503  13.561  1.00  0.00     0.310 S
HETATM   15  O2  UNL     1      15.946   4.704  12.243  1.00  0.00    -0.188 OA
HETATM   16  O3  UNL     1      17.265   3.167  13.678  1.00  0.00    -0.188 OA
HETATM   17  N3  UNL     1      17.775   5.790  13.885  1.00  0.00    -0.169 NA
HETATM   18  C14 UNL     1      18.437   5.489  15.081  1.00  0.00     0.133 C
ENDROOT
BRANCH  13  19
HETATM   19  C10 UNL     1      14.882   3.716  15.588  1.00  0.00     0.152 C
BRANCH  19  20
HETATM   20  C11 UNL     1      15.588   3.432  16.878  1.00  0.00     0.005 A
HETATM   21  C12 UNL     1      15.169   2.243  17.655  1.00  0.00     0.007 A
HETATM   22  C13 UNL     1      14.891   3.652  18.186  1.00  0.00     0.007 A
ENDBRANCH  19  20
ENDBRANCH  13  19
TORSDOF 2
ENDMDL