MODEL 1
REMARK VINA RESULT: -7.440035384      0.000      0.000
REMARK  2 active torsions:
REMARK  status: ('A' for Active; 'I' for Inactive)
REMARK    1  A    between atoms: C10_10  and  N1_11
REMARK       I    between atoms: N1_11  and  C11_13
REMARK    2  A    between atoms: C11_13  and  C12_15
ROOT
HETATM    1  C1  UNL     1      20.727  11.628  15.353  1.00  0.00     0.011 C
HETATM    2  C2  UNL     1      19.415  11.324  14.659  1.00  0.00     0.010 C
HETATM    3  C3  UNL     1      19.630  11.377  13.200  1.00  0.00     0.008 C
HETATM    4  C4  UNL     1      19.465  10.051  12.496  1.00  0.00     0.036 C
HETATM    5  C5  UNL     1      20.036   8.997  13.387  1.00  0.00     0.227 C
HETATM    6  C6  UNL     1      20.012   7.616  12.807  1.00  0.00     0.026 C
HETATM    7  C7  UNL     1      19.538   7.590  11.375  1.00  0.00     0.007 C
HETATM    8  C8  UNL     1      19.692   6.169  10.875  1.00  0.00     0.002 C
HETATM    9  C9  UNL     1      19.078   5.169  11.819  1.00  0.00     0.026 C
HETATM   10  C10 UNL     1      18.190   5.899  12.808  1.00  0.00     0.090 C
HETATM   11  C17 UNL     1      19.045   6.801  13.633  1.00  0.00     0.043 C
HETATM   12  C18 UNL     1      18.275   7.854  14.399  1.00  0.00     0.280 C
HETATM   13  N3  UNL     1      19.290   8.859  14.596  1.00  0.00     0.094 N
HETATM   14  C19 UNL     1      18.827  10.060  15.189  1.00  0.00     0.277 C
ENDROOT
BRANCH  10  15
HETATM   15  N1  UNL     1      17.517   4.952  13.679  1.00  0.00    -0.354 N
HETATM   16  C11 UNL     1      16.136   5.029  13.973  1.00  0.00     0.251 C
HETATM   17  O1  UNL     1      15.447   5.948  13.469  1.00  0.00    -0.271 OA
ATOM     18  H1  UNL     1      18.064   4.199  14.097  1.00  0.00     0.162 HD
BRANCH  16  19
HETATM   19  C12 UNL     1      15.500   4.037  14.865  1.00  0.00     0.313 C
HETATM   20  C13 UNL     1      14.558   4.701  15.855  1.00  0.00     0.047 C
HETATM   21  C14 UNL     1      14.658   3.862  17.120  1.00  0.00     0.033 C
HETATM   22  C15 UNL     1      16.067   3.303  17.020  1.00  0.00     0.273 C
HETATM   23  N2  UNL     1      16.436   3.292  15.636  1.00  0.00     0.098 N
HETATM   24  C16 UNL     1      16.627   1.963  15.116  1.00  0.00     0.310 C
ENDBRANCH  16  19
ENDBRANCH  10  15
TORSDOF 2
ENDMDL