MODEL 1
REMARK VINA RESULT: -7.212257162      0.000      0.000
REMARK  5 active torsions:
REMARK  status: ('A' for Active; 'I' for Inactive)
REMARK    1  A    between atoms: C9_9  and  C10_10
REMARK    2  A    between atoms: C10_10  and  C11_11
REMARK    3  A    between atoms: C12_13  and  O2_14
REMARK    4  A    between atoms: C16_19  and  O3_20
REMARK    5  A    between atoms: C18_23  and  O4_24
ROOT
HETATM    1  C1  UNL     1      21.447   5.610  11.081  1.00  0.00     0.010 C
HETATM    2  C2  UNL     1      20.143   6.370  11.477  1.00  0.00    -0.011 C
HETATM    3  C3  UNL     1      20.383   7.302  12.618  1.00  0.00     0.010 C
HETATM    4  C4  UNL     1      19.570   7.407  13.836  1.00  0.00    -0.002 C
HETATM    5  C5  UNL     1      19.219   6.107  14.399  1.00  0.00     0.011 C
HETATM    6  C6  UNL     1      17.999   5.639  13.560  1.00  0.00     0.009 C
HETATM    7  C7  UNL     1      16.695   6.104  14.095  1.00  0.00     0.065 C
HETATM    8  C8  UNL     1      17.128   7.319  14.700  1.00  0.00     0.025 C
HETATM    9  C9  UNL     1      18.217   8.040  13.834  1.00  0.00    -0.003 C
HETATM   10  C12 UNL     1      17.910   7.692  12.405  1.00  0.00     0.136 C
HETATM   11  C13 UNL     1      17.968   6.183  12.208  1.00  0.00    -0.007 C
HETATM   12  C14 UNL     1      16.956   6.140  11.187  1.00  0.00     0.019 C
HETATM   13  C15 UNL     1      19.135   5.442  11.757  1.00  0.00     0.029 C
HETATM   14  C16 UNL     1      18.569   4.263  11.068  1.00  0.00     0.126 C
HETATM   15  C17 UNL     1      17.857   3.209  11.805  1.00  0.00     0.068 C
HETATM   16  C18 UNL     1      16.645   3.139  12.612  1.00  0.00     0.146 C
HETATM   17  C19 UNL     1      16.444   3.494  14.012  1.00  0.00     0.055 C
HETATM   18  C20 UNL     1      16.207   4.847  14.579  1.00  0.00     0.152 C
HETATM   19  O5  UNL     1      15.514   4.900  15.575  1.00  0.00    -0.293 OA
ENDROOT
BRANCH   9  20
HETATM   20  C10 UNL     1      18.303   9.451  14.181  1.00  0.00     0.081 C
BRANCH  20  21
HETATM   21  C11 UNL     1      19.497   9.931  14.854  1.00  0.00     0.232 C
HETATM   22  O1  UNL     1      19.419  10.532  15.905  1.00  0.00    -0.307 OA
ENDBRANCH  20  21
ENDBRANCH   9  20
BRANCH  10  23
HETATM   23  O2  UNL     1      18.393   8.484  11.443  1.00  0.00    -0.394 OA
ATOM     24  H2  UNL     1      17.777   8.989  10.925  1.00  0.00     0.210 HD
ENDBRANCH  10  23
BRANCH  14  25
HETATM   25  O3  UNL     1      19.745   3.571  10.580  1.00  0.00    -0.395 OA
ATOM     26  H3  UNL     1      19.542   2.658  10.745  1.00  0.00     0.210 HD
ENDBRANCH  14  25
BRANCH  16  27
HETATM   27  O4  UNL     1      16.393   1.705  12.641  1.00  0.00    -0.392 OA
ATOM     28  H4  UNL     1      17.271   1.359  12.753  1.00  0.00     0.210 HD
ENDBRANCH  16  27
TORSDOF 5
ENDMDL