MODEL 3
REMARK VINA RESULT: -7.742111062      0.945      1.430
REMARK  4 active torsions:
REMARK  status: ('A' for Active; 'I' for Inactive)
REMARK    1  A    between atoms: O1_2  and  C2_3
REMARK    2  A    between atoms: C2_3  and  C3_5
REMARK    3  A    between atoms: C11_13  and  C12_14
REMARK       I    between atoms: C12_14  and  N1_16
REMARK       I    between atoms: N1_16  and  C13_18
REMARK       I    between atoms: C13_18  and  N2_20
REMARK    4  A    between atoms: N2_20  and  C14_22
ROOT
HETATM    1  C3  UNL     1      19.166   5.480  11.274  1.00  0.00     0.178 C
HETATM    2  C4  UNL     1      20.337   6.437  11.286  1.00  0.00     0.040 C
HETATM    3  C5  UNL     1      19.854   7.734  11.963  1.00  0.00    -0.011 C
HETATM    4  C6  UNL     1      18.631   8.268  11.319  1.00  0.00     0.009 C
HETATM    5  C7  UNL     1      17.366   8.166  12.116  1.00  0.00    -0.011 C
HETATM    6  C8  UNL     1      17.677   8.510  13.584  1.00  0.00     0.012 C
HETATM    7  C9  UNL     1      18.414   7.242  13.956  1.00  0.00     0.024 C
HETATM    8  C10 UNL     1      19.820   7.485  13.424  1.00  0.00     0.012 C
HETATM    9  C11 UNL     1      17.749   6.114  13.172  1.00  0.00     0.112 C
HETATM   10  C18 UNL     1      16.803   6.795  12.281  1.00  0.00     0.045 C
HETATM   11  N3  UNL     1      18.689   5.252  12.556  1.00  0.00    -0.392 N
ATOM     12  H3  UNL     1      19.026   4.440  13.072  1.00  0.00     0.155 HD
ENDROOT
BRANCH   9  13
HETATM   13  C12 UNL     1      17.021   5.288  14.206  1.00  0.00     0.254 C
HETATM   14  O3  UNL     1      17.549   4.144  14.409  1.00  0.00    -0.270 OA
HETATM   15  N1  UNL     1      15.887   5.710  14.880  1.00  0.00    -0.277 N
HETATM   16  C13 UNL     1      15.183   5.011  15.837  1.00  0.00     0.323 C
ATOM     17  H1  UNL     1      15.536   6.638  14.644  1.00  0.00     0.173 HD
HETATM   18  O4  UNL     1      14.147   5.585  16.349  1.00  0.00    -0.247 OA
HETATM   19  N2  UNL     1      15.475   3.735  16.316  1.00  0.00    -0.335 N
ATOM     20  H2  UNL     1      16.280   3.226  15.952  1.00  0.00     0.165 HD
BRANCH  19  21
HETATM   21  C14 UNL     1      14.625   3.122  17.343  1.00  0.00     0.023 C
HETATM   22  C15 UNL     1      14.661   3.870  18.643  1.00  0.00     0.037 C
HETATM   23  C16 UNL     1      15.192   1.721  17.573  1.00  0.00     0.037 C
HETATM   24  C17 UNL     1      13.191   3.014  16.884  1.00  0.00     0.037 C
ENDBRANCH  19  21
ENDBRANCH   9  13
BRANCH   1  25
HETATM   25  C2  UNL     1      19.607   4.208  10.645  1.00  0.00     0.281 C
HETATM   26  O2  UNL     1      19.937   4.216   9.433  1.00  0.00    -0.263 OA
BRANCH  25  27
HETATM   27  O1  UNL     1      19.676   3.007  11.326  1.00  0.00    -0.325 OA
HETATM   28  C1  UNL     1      18.726   1.995  11.045  1.00  0.00     0.213 C
ENDBRANCH  25  27
ENDBRANCH   1  25
TORSDOF 4
ENDMDL