MODEL 4
REMARK VINA RESULT: -6.933158530      1.419      1.721
REMARK  5 active torsions:
REMARK  status: ('A' for Active; 'I' for Inactive)
REMARK    1  A    between atoms: C3_3  and  C4_4
REMARK       I    between atoms: C4_4  and  N1_6
REMARK    2  A    between atoms: C5_8  and  C6_9
REMARK    3  A    between atoms: C11_15  and  O3_17
REMARK    4  A    between atoms: C18_24  and  O4_25
REMARK    5  A    between atoms: C19_27  and  O5_28
ROOT
HETATM    1  C6  UNL     1      17.625   4.694  11.301  1.00  0.00     0.080 C
HETATM    2  C7  UNL     1      16.895   5.657  10.471  1.00  0.00     0.181 C
HETATM    3  O2  UNL     1      17.584   6.539   9.690  1.00  0.00    -0.376 OA
HETATM    4  C8  UNL     1      18.769   6.974  10.142  1.00  0.00     0.099 C
HETATM    5  C9  UNL     1      19.933   7.166   9.152  1.00  0.00     0.052 C
HETATM    6  C10 UNL     1      20.766   6.462  10.248  1.00  0.00     0.063 C
HETATM    7  C11 UNL     1      21.193   7.364  11.329  1.00  0.00     0.065 C
HETATM    8  C12 UNL     1      22.574   7.918  10.988  1.00  0.00     0.047 C
HETATM    9  C13 UNL     1      20.192   8.436  11.575  1.00  0.00     0.027 C
HETATM   10  C14 UNL     1      19.971   8.700  13.072  1.00  0.00     0.008 C
HETATM   11  C15 UNL     1      18.560   9.304  13.018  1.00  0.00     0.001 C
HETATM   12  C16 UNL     1      17.827   8.360  12.049  1.00  0.00     0.008 C
HETATM   13  C17 UNL     1      18.835   8.168  10.992  1.00  0.00     0.030 C
HETATM   14  C18 UNL     1      19.551   5.722  10.464  1.00  0.00     0.122 C
HETATM   15  C19 UNL     1      19.048   5.139  11.686  1.00  0.00     0.167 C
ENDROOT
BRANCH   1  16
HETATM   16  C5  UNL     1      16.942   4.322  12.545  1.00  0.00     0.073 C
HETATM   17  N1  UNL     1      17.474   4.662  13.667  1.00  0.00    -0.337 N
HETATM   18  C4  UNL     1      16.917   4.366  14.926  1.00  0.00     0.244 C
ATOM     19  H1  UNL     1      18.353   5.179  13.642  1.00  0.00     0.168 HD
HETATM   20  O1  UNL     1      17.614   4.155  15.957  1.00  0.00    -0.268 OA
BRANCH  18  21
HETATM   21  C3  UNL     1      15.474   4.293  15.071  1.00  0.00     0.070 C
HETATM   22  C2  UNL     1      14.690   5.347  15.162  1.00  0.00    -0.026 C
HETATM   23  C1  UNL     1      15.169   6.732  15.129  1.00  0.00     0.036 C
ENDBRANCH  18  21
ENDBRANCH   1  16
BRANCH  15  24
HETATM   24  O5  UNL     1      19.787   3.966  11.978  1.00  0.00    -0.392 OA
ATOM     25  H5  UNL     1      20.704   4.211  11.994  1.00  0.00     0.210 HD
ENDBRANCH  15  24
BRANCH  14  26
HETATM   26  O4  UNL     1      19.351   4.810   9.386  1.00  0.00    -0.384 OA
ATOM     27  H4  UNL     1      18.432   4.851   9.149  1.00  0.00     0.210 HD
ENDBRANCH  14  26
BRANCH   7  28
HETATM   28  O3  UNL     1      21.369   6.635  12.529  1.00  0.00    -0.389 OA
ATOM     29  H3  UNL     1      21.838   7.162  13.165  1.00  0.00     0.210 HD
ENDBRANCH   7  28
TORSDOF 5
ENDMDL