MODEL 2
REMARK VINA RESULT: -8.413467362      1.129      1.334
REMARK  3 active torsions:
REMARK  status: ('A' for Active; 'I' for Inactive)
REMARK    1  A    between atoms: C2_2  and  C4_4
REMARK    2  A    between atoms: C11_11  and  C12_12
REMARK       I    between atoms: C12_12  and  N1_14
REMARK       I    between atoms: N1_14  and  C13_16
REMARK    3  A    between atoms: C16_23  and  O3_24
ROOT
HETATM    1  C4  UNL     1      15.668   4.357  16.558  1.00  0.00     0.077 C
HETATM    2  C5  UNL     1      14.545   4.821  15.662  1.00  0.00     0.022 C
HETATM    3  C6  UNL     1      14.892   5.344  14.330  1.00  0.00     0.029 C
HETATM    4  C7  UNL     1      15.421   6.748  14.483  1.00  0.00     0.130 C
HETATM    5  C8  UNL     1      15.810   7.458  13.258  1.00  0.00     0.037 C
HETATM    6  C9  UNL     1      17.238   7.367  12.839  1.00  0.00     0.002 C
HETATM    7  C10 UNL     1      17.904   8.748  13.000  1.00  0.00     0.011 C
HETATM    8  C11 UNL     1      18.076   6.330  13.554  1.00  0.00     0.146 C
HETATM    9  C15 UNL     1      17.182   5.491  14.381  1.00  0.00     0.250 C
HETATM   10  N2  UNL     1      17.815   4.695  15.401  1.00  0.00    -0.008 N
ATOM     11  H21 UNL     1      18.202   5.240  16.171  1.00  0.00     0.284 HD
ATOM     12  H22 UNL     1      18.694   4.269  15.108  1.00  0.00     0.284 HD
HETATM   13  C16 UNL     1      16.785   3.720  15.816  1.00  0.00     0.236 C
HETATM   14  C17 UNL     1      16.291   3.274  14.482  1.00  0.00     0.084 C
HETATM   15  C18 UNL     1      16.161   4.659  13.796  1.00  0.00     0.026 C
HETATM   16  C19 UNL     1      15.972   4.389  12.383  1.00  0.00     0.021 C
HETATM   17  O4  UNL     1      16.563   6.488  15.212  1.00  0.00    -0.347 OA
ENDROOT
BRANCH   8  18
HETATM   18  C12 UNL     1      19.058   5.638  12.733  1.00  0.00     0.233 C
HETATM   19  O1  UNL     1      20.229   6.042  12.496  1.00  0.00    -0.273 OA
HETATM   20  N1  UNL     1      18.703   4.407  12.136  1.00  0.00    -0.297 N
HETATM   21  C13 UNL     1      19.652   3.713  11.343  1.00  0.00     0.220 C
ATOM     22  H1  UNL     1      17.770   4.020  12.275  1.00  0.00     0.171 HD
HETATM   23  C14 UNL     1      19.280   2.420  10.737  1.00  0.00     0.117 C
HETATM   24  O2  UNL     1      20.799   4.165  11.142  1.00  0.00    -0.274 OA
ENDBRANCH   8  18
BRANCH  13  25
HETATM   25  O3  UNL     1      17.470   2.745  16.520  1.00  0.00    -0.364 OA
ATOM     26  H3  UNL     1      18.412   2.752  16.399  1.00  0.00     0.212 HD
ENDBRANCH  13  25
BRANCH   1  27
HETATM   27  C2  UNL     1      14.993   3.434  17.528  1.00  0.00    -0.084 C
HETATM   28  C1  UNL     1      15.173   3.623  18.829  1.00  0.00     0.014 C
HETATM   29  C3  UNL     1      14.075   2.351  17.093  1.00  0.00     0.043 C
ENDBRANCH   1  27
TORSDOF 3
ENDMDL