MODEL 1
REMARK VINA RESULT: -6.937771326      0.000      0.000
REMARK  4 active torsions:
REMARK  status: ('A' for Active; 'I' for Inactive)
REMARK    1  A    between atoms: C7_10  and  O1_11
REMARK    2  A    between atoms: C10_16  and  C11_17
REMARK    3  A    between atoms: C11_17  and  C12_18
REMARK    4  A    between atoms: C16_23  and  O3_25
ROOT
HETATM    1  C1  UNL     1      18.395   9.162  14.501  1.00  0.00     0.036 C
HETATM    2  C2  UNL     1      17.656   7.926  14.748  1.00  0.00    -0.027 C
HETATM    3  C3  UNL     1      17.325   6.938  13.958  1.00  0.00    -0.061 C
HETATM    4  C4  UNL     1      16.559   5.931  14.786  1.00  0.00     0.077 C
HETATM    5  C5  UNL     1      15.266   6.539  15.309  1.00  0.00     0.244 C
HETATM    6  N1  UNL     1      14.673   5.329  15.914  1.00  0.00    -0.071 N
ATOM      7  H11 UNL     1      13.738   5.432  16.310  1.00  0.00     0.277 HD
ATOM      8  H12 UNL     1      15.087   5.012  16.791  1.00  0.00     0.277 HD
HETATM    9  C6  UNL     1      14.798   4.440  14.787  1.00  0.00     0.271 C
HETATM   10  C7  UNL     1      16.247   4.649  14.274  1.00  0.00     0.095 C
HETATM   11  C8  UNL     1      16.243   4.237  12.884  1.00  0.00     0.084 C
HETATM   12  C9  UNL     1      17.484   3.917  12.162  1.00  0.00     0.064 C
HETATM   13  N2  UNL     1      18.359   4.875  11.711  1.00  0.00    -0.361 N
HETATM   14  C10 UNL     1      19.115   4.660  10.511  1.00  0.00     0.223 C
HETATM   15  O2  UNL     1      19.080   5.842   9.785  1.00  0.00    -0.361 OA
HETATM   16  C14 UNL     1      18.544   6.942  10.339  1.00  0.00     0.134 C
HETATM   17  C15 UNL     1      17.044   7.012  10.285  1.00  0.00     0.071 C
HETATM   18  C16 UNL     1      16.841   7.712  11.627  1.00  0.00     0.070 C
HETATM   19  C17 UNL     1      17.293   9.129  11.312  1.00  0.00     0.047 C
HETATM   20  C18 UNL     1      17.737   7.043  12.583  1.00  0.00     0.043 A
HETATM   21  C19 UNL     1      18.933   7.220  11.812  1.00  0.00     0.057 A
HETATM   22  C20 UNL     1      18.683   5.959  12.451  1.00  0.00     0.110 A
ENDROOT
BRANCH  14  23
HETATM   23  C11 UNL     1      20.571   4.477  10.880  1.00  0.00     0.053 C
BRANCH  23  24
HETATM   24  C12 UNL     1      21.506   5.224   9.976  1.00  0.00    -0.000 C
HETATM   25  C13 UNL     1      22.528   5.991  10.813  1.00  0.00     0.005 C
ENDBRANCH  23  24
ENDBRANCH  14  23
BRANCH  10  26
HETATM   26  O1  UNL     1      16.906   3.628  15.025  1.00  0.00    -0.387 OA
ATOM     27  H1  UNL     1      16.304   3.213  15.631  1.00  0.00     0.210 HD
ENDBRANCH  10  26
BRANCH  18  28
HETATM   28  O3  UNL     1      15.515   7.802  11.973  1.00  0.00    -0.389 OA
ATOM     29  H3  UNL     1      15.234   8.702  12.097  1.00  0.00     0.210 HD
ENDBRANCH  18  28
TORSDOF 4
ENDMDL