MODEL 1
REMARK VINA RESULT: -7.531965350      0.000      0.000
REMARK  6 active torsions:
REMARK  status: ('A' for Active; 'I' for Inactive)
REMARK    1  A    between atoms: O1_2  and  C2_3
REMARK    2  A    between atoms: C3_4  and  C4_5
REMARK    3  A    between atoms: C4_5  and  O2_7
REMARK    4  A    between atoms: C9_13  and  O3_14
REMARK    5  A    between atoms: C10_16  and  C11_17
REMARK    6  A    between atoms: C12_18  and  C13_19
ROOT
HETATM    1  C2  UNL     1      16.372   5.624  14.785  1.00  0.00     0.165 C
HETATM    2  C3  UNL     1      16.986   4.245  14.894  1.00  0.00     0.047 C
HETATM    3  C6  UNL     1      16.691   3.402  13.695  1.00  0.00     0.040 C
HETATM    4  C7  UNL     1      16.684   4.348  12.487  1.00  0.00     0.274 C
HETATM    5  N1  UNL     1      17.622   5.394  12.762  1.00  0.00     0.103 N
HETATM    6  C8  UNL     1      18.185   5.927  11.565  1.00  0.00     0.306 C
HETATM    7  C9  UNL     1      17.218   6.778  10.791  1.00  0.00     0.162 C
HETATM    8  C10 UNL     1      16.686   7.839  11.726  1.00  0.00     0.098 C
HETATM    9  C18 UNL     1      16.000   7.230  12.914  1.00  0.00     0.064 C
HETATM   10  C19 UNL     1      17.040   6.362  13.634  1.00  0.00     0.183 C
HETATM   11  C20 UNL     1      18.081   7.305  14.197  1.00  0.00     0.052 C
ENDROOT
BRANCH   8  12
HETATM   12  C11 UNL     1      15.675   8.664  11.037  1.00  0.00    -0.099 C
HETATM   13  C12 UNL     1      14.848   9.334  10.455  1.00  0.00    -0.101 C
BRANCH  13  14
HETATM   14  C13 UNL     1      13.852  10.134   9.732  1.00  0.00     0.068 C
HETATM   15  C14 UNL     1      13.175   9.307   8.639  1.00  0.00     0.044 C
HETATM   16  C15 UNL     1      12.057  10.187   8.086  1.00  0.00     0.233 C
HETATM   17  N2  UNL     1      12.542  11.416   7.544  1.00  0.00    -0.075 N
HETATM   18  C16 UNL     1      13.413  12.143   8.429  1.00  0.00     0.233 C
ATOM     19  H22 UNL     1      12.998  11.257   6.645  1.00  0.00     0.277 HD
ATOM     20  H21 UNL     1      11.767  12.006   7.242  1.00  0.00     0.277 HD
HETATM   21  C17 UNL     1      14.519  11.299   8.993  1.00  0.00     0.044 C
ENDBRANCH  13  14
ENDBRANCH   8  12
BRANCH   7  22
HETATM   22  O3  UNL     1      16.229   6.055  10.162  1.00  0.00    -0.393 OA
ATOM     23  H3  UNL     1      15.431   6.550  10.018  1.00  0.00     0.210 HD
ENDBRANCH   7  22
BRANCH   1  24
HETATM   24  O1  UNL     1      15.000   5.578  14.640  1.00  0.00    -0.388 OA
HETATM   25  C1  UNL     1      14.355   6.345  15.636  1.00  0.00     0.202 C
ENDBRANCH   1  24
BRANCH   2  26
HETATM   26  C4  UNL     1      16.610   3.569  16.192  1.00  0.00     0.120 C
HETATM   27  C5  UNL     1      15.269   2.910  16.130  1.00  0.00     0.040 C
BRANCH  26  28
HETATM   28  O2  UNL     1      17.550   2.583  16.517  1.00  0.00    -0.395 OA
ATOM     29  H2  UNL     1      17.329   1.764  16.091  1.00  0.00     0.210 HD
ENDBRANCH  26  28
ENDBRANCH   2  26
TORSDOF 6
ENDMDL