MODEL 3
REMARK VINA RESULT: -7.840607368      0.745      1.093
REMARK  5 active torsions:
REMARK  status: ('A' for Active; 'I' for Inactive)
REMARK    1  A    between atoms: C2_2  and  C4_4
REMARK       I    between atoms: C4_4  and  N1_6
REMARK    2  A    between atoms: N1_6  and  C5_8
REMARK    3  A    between atoms: C6_13  and  C7_14
REMARK       I    between atoms: C7_14  and  N4_16
REMARK    4  A    between atoms: N4_16  and  C8_18
REMARK    5  A    between atoms: C9_23  and  C10_24
ROOT
HETATM    1  C7  UNL     1      16.791   3.451  12.301  1.00  0.00     0.295 C
HETATM    2  O2  UNL     1      15.684   3.813  11.958  1.00  0.00    -0.265 OA
HETATM    3  N4  UNL     1      17.140   2.480  13.278  1.00  0.00    -0.152 N
ATOM      4  H4  UNL     1      17.755   1.713  13.006  1.00  0.00     0.187 HD
ENDROOT
BRANCH   1   5
HETATM    5  C6  UNL     1      17.989   4.073  11.675  1.00  0.00     0.161 A
HETATM    6  N3  UNL     1      19.251   3.664  11.883  1.00  0.00    -0.287 N
HETATM    7  N2  UNL     1      20.233   4.315  11.439  1.00  0.00    -0.278 N
ATOM      8  H3  UNL     1      19.417   2.809  12.413  1.00  0.00     0.188 HD
HETATM    9  C5  UNL     1      19.964   5.465  10.728  1.00  0.00     0.168 A
ATOM     10  H2  UNL     1      21.191   4.003  11.600  1.00  0.00     0.189 HD
HETATM   11  S1  UNL     1      18.267   5.481  10.767  1.00  0.00    -0.028 SA
BRANCH   9  12
HETATM   12  N1  UNL     1      20.903   6.203  10.286  1.00  0.00    -0.306 N
HETATM   13  C4  UNL     1      22.042   6.529  10.999  1.00  0.00     0.227 C
HETATM   14  O1  UNL     1      22.938   5.659  11.276  1.00  0.00    -0.273 OA
ATOM     15  H1  UNL     1      20.809   6.579   9.343  1.00  0.00     0.171 HD
BRANCH  13  16
HETATM   16  C2  UNL     1      22.222   7.931  11.416  1.00  0.00     0.070 C
HETATM   17  C1  UNL     1      23.516   8.075  12.131  1.00  0.00     0.019 C
HETATM   18  C3  UNL     1      21.059   8.406  12.264  1.00  0.00     0.019 C
ENDBRANCH  13  16
ENDBRANCH   9  12
ENDBRANCH   1   5
BRANCH   3  19
HETATM   19  C8  UNL     1      16.715   2.527  14.488  1.00  0.00     0.701 A
HETATM   20  N5  UNL     1      16.802   1.555  15.422  1.00  0.00    -0.130 N
HETATM   21  N6  UNL     1      16.026   1.943  16.415  1.00  0.00    -0.274 N
ATOM     22  H5  UNL     1      17.354   0.699  15.371  1.00  0.00     0.205 HD
HETATM   23  C9  UNL     1      15.425   3.147  16.157  1.00  0.00     0.120 A
ATOM     24  H6  UNL     1      15.889   1.410  17.273  1.00  0.00     0.189 HD
HETATM   25  N7  UNL     1      15.861   3.506  14.954  1.00  0.00    -0.177 N
ATOM     26  H7  UNL     1      15.607   4.361  14.459  1.00  0.00     0.185 HD
BRANCH  23  27
HETATM   27  C10 UNL     1      14.477   3.756  17.112  1.00  0.00     0.009 C
HETATM   28  C11 UNL     1      15.005   3.604  18.497  1.00  0.00     0.023 C
HETATM   29  C12 UNL     1      14.169   5.157  16.731  1.00  0.00     0.023 C
HETATM   30  C13 UNL     1      13.205   2.872  17.043  1.00  0.00     0.023 C
ENDBRANCH  23  27
ENDBRANCH   3  19
TORSDOF 5
ENDMDL