MODEL 1
REMARK VINA RESULT: -6.981210501      0.000      0.000
REMARK  7 active torsions:
REMARK  status: ('A' for Active; 'I' for Inactive)
REMARK    1  A    between atoms: N2_10  and  C8_11
REMARK    2  A    between atoms: C8_11  and  C9_12
REMARK    3  A    between atoms: C9_12  and  O1_13
REMARK    4  A    between atoms: C9_12  and  C10_15
REMARK    5  A    between atoms: C11_16  and  C12_17
REMARK    6  A    between atoms: C12_17  and  O2_18
REMARK    7  A    between atoms: C15_22  and  O3_23
ROOT
HETATM    1  N1  UNL     1      23.668   5.977  10.243  1.00  0.00    -0.197 NA
HETATM    2  C1  UNL     1      22.601   5.932  10.668  1.00  0.00     0.065 C
HETATM    3  C2  UNL     1      21.242   5.871  11.182  1.00  0.00     0.114 C
HETATM    4  C3  UNL     1      20.429   4.782  10.532  1.00  0.00     0.031 C
HETATM    5  C4  UNL     1      20.352   5.107   9.057  1.00  0.00     0.076 C
HETATM    6  S1  UNL     1      20.116   6.933   9.128  1.00  0.00    -0.156 SA
HETATM    7  C5  UNL     1      20.537   7.177  10.875  1.00  0.00     0.052 C
HETATM    8  C6  UNL     1      21.407   8.356  11.140  1.00  0.00     0.054 C
HETATM    9  C7  UNL     1      21.021   8.721  12.558  1.00  0.00     0.274 C
HETATM   10  N2  UNL     1      19.594   8.468  12.655  1.00  0.00     0.093 N
HETATM   11  C18 UNL     1      19.319   7.379  11.734  1.00  0.00     0.294 C
ENDROOT
BRANCH  10  12
HETATM   12  C8  UNL     1      19.270   7.949  13.989  1.00  0.00     0.316 C
BRANCH  12  13
HETATM   13  C9  UNL     1      17.873   8.281  14.370  1.00  0.00     0.225 C
BRANCH  13  14
HETATM   14  O1  UNL     1      17.720   9.056  15.482  1.00  0.00    -0.382 OA
ATOM     15  H1  UNL     1      17.466   9.959  15.332  1.00  0.00     0.211 HD
ENDBRANCH  13  14
BRANCH  13  16
HETATM   16  C10 UNL     1      17.155   7.014  14.593  1.00  0.00    -0.070 C
HETATM   17  C11 UNL     1      16.587   5.965  14.764  1.00  0.00    -0.066 C
BRANCH  17  18
HETATM   18  C12 UNL     1      15.906   4.661  14.953  1.00  0.00     0.121 C
HETATM   19  C13 UNL     1      14.800   4.876  15.925  1.00  0.00     0.054 C
HETATM   20  C14 UNL     1      14.293   3.656  16.614  1.00  0.00     0.035 C
HETATM   21  C15 UNL     1      15.386   2.670  16.970  1.00  0.00     0.118 C
HETATM   22  C16 UNL     1      16.291   2.398  15.789  1.00  0.00     0.035 C
HETATM   23  C17 UNL     1      16.955   3.686  15.371  1.00  0.00     0.054 C
BRANCH  18  24
HETATM   24  O2  UNL     1      15.429   4.259  13.695  1.00  0.00    -0.378 OA
ATOM     25  H2  UNL     1      14.530   4.557  13.630  1.00  0.00     0.211 HD
ENDBRANCH  18  24
BRANCH  21  26
HETATM   26  O3  UNL     1      14.750   1.479  17.320  1.00  0.00    -0.396 OA
ATOM     27  H3  UNL     1      14.563   1.535  18.249  1.00  0.00     0.210 HD
ENDBRANCH  21  26
ENDBRANCH  17  18
ENDBRANCH  13  16
ENDBRANCH  12  13
ENDBRANCH  10  12
TORSDOF 7
ENDMDL