MODEL 3
REMARK VINA RESULT: -9.121486239      1.196      1.392
REMARK  6 active torsions:
REMARK  status: ('A' for Active; 'I' for Inactive)
REMARK    1  A    between atoms: C2_2  and  S1_4
REMARK    2  A    between atoms: S1_4  and  N1_7
REMARK       I    between atoms: N1_7  and  C4_9
REMARK    3  A    between atoms: C4_9  and  C5_11
REMARK    4  A    between atoms: C6_12  and  C7_13
REMARK    5  A    between atoms: C15_21  and  O4_22
REMARK    6  A    between atoms: C24_33  and  S2_34
ROOT
HETATM    1  C7  UNL     1     -11.259  -8.329  30.894  1.00  0.00    -0.019 C
HETATM    2  C8  UNL     1     -10.504  -7.236  31.618  1.00  0.00     0.020 C
HETATM    3  C9  UNL     1     -11.826  -9.238  31.960  1.00  0.00     0.013 C
HETATM    4  C10 UNL     1     -10.714  -9.866  32.739  1.00  0.00     0.002 C
HETATM    5  C11 UNL     1      -9.455 -10.036  32.005  1.00  0.00     0.011 C
HETATM    6  C12 UNL     1      -9.582 -10.205  30.502  1.00  0.00    -0.020 C
HETATM    7  C13 UNL     1      -8.134  -9.863  30.050  1.00  0.00     0.017 C
HETATM    8  C14 UNL     1     -10.400  -9.094  29.909  1.00  0.00     0.036 C
HETATM    9  C15 UNL     1     -11.249  -9.446  28.737  1.00  0.00     0.124 C
HETATM   10  C16 UNL     1     -10.656 -10.602  27.918  1.00  0.00     0.039 C
HETATM   11  C17 UNL     1     -10.726 -11.760  28.850  1.00  0.00     0.022 C
HETATM   12  C18 UNL     1     -10.564 -13.073  28.169  1.00  0.00     0.018 C
HETATM   13  C19 UNL     1      -9.495 -13.111  27.121  1.00  0.00     0.023 C
HETATM   14  C20 UNL     1     -11.879 -13.416  27.451  1.00  0.00     0.023 C
HETATM   15  C21 UNL     1     -10.389 -14.156  29.187  1.00  0.00     0.135 C
HETATM   16  O5  UNL     1     -10.185 -15.273  28.730  1.00  0.00    -0.297 OA
HETATM   17  C22 UNL     1     -10.447 -13.954  30.629  1.00  0.00     0.080 C
HETATM   18  C23 UNL     1     -10.439 -12.520  31.096  1.00  0.00     0.029 C
HETATM   19  C24 UNL     1      -9.813 -11.586  30.060  1.00  0.00     0.021 C
ENDROOT
BRANCH   1  20
HETATM   20  C6  UNL     1     -12.438  -7.693  30.258  1.00  0.00    -0.011 C
HETATM   21  C5  UNL     1     -12.966  -6.535  30.597  1.00  0.00     0.072 C
BRANCH  21  22
HETATM   22  C4  UNL     1     -14.108  -5.928  29.976  1.00  0.00     0.254 C
HETATM   23  N1  UNL     1     -14.856  -6.497  28.911  1.00  0.00    -0.247 N
ATOM     24  H1  UNL     1     -14.571  -7.404  28.543  1.00  0.00     0.182 HD
HETATM   25  O3  UNL     1     -14.500  -4.791  30.397  1.00  0.00    -0.268 OA
BRANCH  23  26
HETATM   26  S1  UNL     1     -16.215  -5.723  28.222  1.00  0.00     0.260 S
HETATM   27  O1  UNL     1     -15.878  -4.364  27.683  1.00  0.00    -0.200 OA
HETATM   28  O2  UNL     1     -17.324  -5.542  29.221  1.00  0.00    -0.200 OA
BRANCH  26  29
HETATM   29  C2  UNL     1     -16.904  -6.640  26.883  1.00  0.00     0.044 C
HETATM   30  C1  UNL     1     -18.197  -6.607  26.619  1.00  0.00     0.033 C
HETATM   31  C3  UNL     1     -16.009  -7.458  26.035  1.00  0.00     0.062 C
ENDBRANCH  26  29
ENDBRANCH  23  26
ENDBRANCH  21  22
ENDBRANCH   1  20
BRANCH   9  32
HETATM   32  O4  UNL     1     -11.364  -8.412  27.797  1.00  0.00    -0.395 OA
ATOM     33  H4  UNL     1     -11.471  -7.553  28.188  1.00  0.00     0.210 HD
ENDBRANCH   9  32
BRANCH  19  34
HETATM   34  S2  UNL     1      -8.277 -12.454  29.599  1.00  0.00    -0.162 SA
HETATM   35  C25 UNL     1      -7.335 -13.065  30.978  1.00  0.00     0.090 C
ENDBRANCH  19  34
TORSDOF 6
ENDMDL