MODEL 5
REMARK VINA RESULT: -9.211359203      3.763      8.853
REMARK  9 active torsions:
REMARK  status: ('A' for Active; 'I' for Inactive)
REMARK    1  A    between atoms: C2_2  and  O1_5
REMARK    2  A    between atoms: O1_5  and  C5_6
REMARK    3  A    between atoms: C5_6  and  C6_8
REMARK    4  A    between atoms: C6_8  and  C7_9
REMARK    5  A    between atoms: N1_12  and  C10_14
REMARK    6  A    between atoms: C10_14  and  C11_15
REMARK    7  A    between atoms: C11_15  and  O3_16
REMARK    8  A    between atoms: C22_28  and  C23_29
REMARK    9  A    between atoms: C25_32  and  O5_33
ROOT
HETATM    1  C11 UNL     1      -7.996 -13.696  30.830  1.00  0.00     0.094 C
HETATM    2  C12 UNL     1      -7.838 -13.051  29.479  1.00  0.00     0.049 C
HETATM    3  C13 UNL     1      -7.773 -11.730  30.263  1.00  0.00    -0.004 C
HETATM    4  C14 UNL     1      -8.268 -10.530  29.535  1.00  0.00     0.011 C
HETATM    5  C15 UNL     1      -9.272  -9.721  30.248  1.00  0.00     0.001 C
HETATM    6  C16 UNL     1      -9.264  -8.240  29.853  1.00  0.00     0.020 C
HETATM    7  C17 UNL     1      -9.216  -7.335  31.026  1.00  0.00     0.018 C
HETATM    8  C18 UNL     1     -10.498  -7.152  31.780  1.00  0.00    -0.029 C
HETATM    9  C19 UNL     1     -10.726  -5.672  32.030  1.00  0.00     0.016 C
HETATM   10  C20 UNL     1     -10.529  -7.844  33.142  1.00  0.00     0.011 C
HETATM   11  C21 UNL     1     -11.878  -8.403  32.741  1.00  0.00     0.018 C
HETATM   12  C22 UNL     1     -11.640  -7.976  31.325  1.00  0.00     0.027 C
HETATM   13  C24 UNL     1     -11.446  -8.916  30.246  1.00  0.00     0.039 C
HETATM   14  C25 UNL     1     -10.630  -8.157  29.173  1.00  0.00     0.128 C
HETATM   15  C26 UNL     1     -10.694 -10.155  30.261  1.00  0.00    -0.033 C
HETATM   16  C27 UNL     1     -11.132 -10.947  29.022  1.00  0.00     0.016 C
HETATM   17  C28 UNL     1     -10.844 -11.145  31.370  1.00  0.00     0.010 C
HETATM   18  C29 UNL     1     -10.096 -12.425  30.966  1.00  0.00     0.009 C
HETATM   19  C30 UNL     1      -8.646 -12.353  31.261  1.00  0.00     0.029 C
ENDROOT
BRANCH   1  20
HETATM   20  C10 UNL     1      -8.906 -14.857  30.958  1.00  0.00     0.098 C
BRANCH  20  21
HETATM   21  N1  UNL     1      -9.633 -15.145  29.824  1.00  0.00    -0.373 N
HETATM   22  C9  UNL     1     -10.265 -16.106  29.366  1.00  0.00    -0.009 A
HETATM   23  C7  UNL     1     -11.086 -16.608  28.218  1.00  0.00     0.046 A
HETATM   24  C8  UNL     1     -10.802 -17.507  29.396  1.00  0.00     0.063 A
ATOM     25  H1  UNL     1      -9.658 -14.349  29.188  1.00  0.00     0.164 HD
BRANCH  23  26
HETATM   26  C6  UNL     1     -12.503 -16.213  28.023  1.00  0.00     0.122 C
BRANCH  26  27
HETATM   27  C5  UNL     1     -12.953 -16.635  26.677  1.00  0.00     0.260 C
HETATM   28  O2  UNL     1     -12.557 -16.005  25.672  1.00  0.00    -0.265 OA
BRANCH  27  29
HETATM   29  O1  UNL     1     -13.807 -17.715  26.467  1.00  0.00    -0.311 OA
BRANCH  29  30
HETATM   30  C2  UNL     1     -13.384 -19.026  26.234  1.00  0.00     0.060 C
HETATM   31  C1  UNL     1     -14.466 -19.800  25.476  1.00  0.00     0.045 C
HETATM   32  C3  UNL     1     -13.054 -19.769  27.516  1.00  0.00     0.045 C
HETATM   33  C4  UNL     1     -12.142 -19.006  25.378  1.00  0.00     0.045 C
ENDBRANCH  29  30
ENDBRANCH  27  29
ENDBRANCH  26  27
ENDBRANCH  23  26
ENDBRANCH  20  21
ENDBRANCH   1  20
BRANCH   1  34
HETATM   34  O3  UNL     1      -6.828 -13.892  31.543  1.00  0.00    -0.384 OA
ATOM     35  H3  UNL     1      -6.119 -14.167  30.976  1.00  0.00     0.211 HD
ENDBRANCH   1  34
BRANCH  14  36
HETATM   36  O5  UNL     1     -11.051  -6.899  28.935  1.00  0.00    -0.395 OA
ATOM     37  H5  UNL     1     -11.994  -6.812  28.863  1.00  0.00     0.210 HD
ENDBRANCH  14  36
BRANCH  12  38
HETATM   38  C23 UNL     1     -12.776  -7.029  30.965  1.00  0.00     0.242 C
HETATM   39  O4  UNL     1     -13.668  -7.352  30.199  1.00  0.00    -0.306 OA
ENDBRANCH  12  38
TORSDOF 9
ENDMDL