MODEL 5
REMARK VINA RESULT: -8.908796272      4.103      7.262
REMARK  6 active torsions:
REMARK  status: ('A' for Active; 'I' for Inactive)
REMARK    1  A    between atoms: C2_2  and  O1_3
REMARK    2  A    between atoms: C2_2  and  C3_5
REMARK    3  A    between atoms: C2_2  and  C5_11
REMARK    4  A    between atoms: C3_5  and  O2_6
REMARK    5  A    between atoms: O2_6  and  S1_7
REMARK    6  A    between atoms: C22_29  and  O6_30
ROOT
HETATM    1  C5  UNL     1     -12.643  -6.763  28.487  1.00  0.00     0.030 C
HETATM    2  C6  UNL     1     -12.823  -7.980  27.604  1.00  0.00     0.009 C
HETATM    3  C7  UNL     1     -11.413  -8.461  27.453  1.00  0.00     0.006 C
HETATM    4  C8  UNL     1     -10.620  -7.870  28.622  1.00  0.00    -0.001 C
HETATM    5  C9  UNL     1      -9.898  -8.974  29.279  1.00  0.00    -0.005 C
HETATM    6  C10 UNL     1      -8.708  -8.583  30.099  1.00  0.00     0.006 C
HETATM    7  C11 UNL     1      -7.841  -9.837  30.177  1.00  0.00     0.007 C
HETATM    8  C12 UNL     1      -8.576 -11.067  30.595  1.00  0.00     0.012 C
HETATM    9  C13 UNL     1     -10.015 -10.857  30.947  1.00  0.00    -0.035 C
HETATM   10  C14 UNL     1     -10.112 -10.415  32.417  1.00  0.00     0.016 C
HETATM   11  C15 UNL     1     -10.765 -12.179  30.953  1.00  0.00     0.010 C
HETATM   12  C16 UNL     1     -10.684 -12.962  29.699  1.00  0.00     0.002 C
HETATM   13  C17 UNL     1      -9.481 -12.678  28.878  1.00  0.00     0.020 C
HETATM   14  C18 UNL     1      -8.304 -12.289  29.747  1.00  0.00     0.051 C
HETATM   15  C19 UNL     1      -7.813 -13.456  30.522  1.00  0.00     0.138 C
HETATM   16  O5  UNL     1      -7.878 -13.589  31.711  1.00  0.00    -0.297 OA
HETATM   17  C20 UNL     1      -7.229 -14.422  29.572  1.00  0.00     0.081 C
HETATM   18  C21 UNL     1      -6.643 -13.543  28.518  1.00  0.00     0.040 C
HETATM   19  C22 UNL     1      -7.144 -12.115  28.782  1.00  0.00     0.135 C
HETATM   20  C23 UNL     1     -10.779  -9.929  30.037  1.00  0.00    -0.002 C
HETATM   21  C24 UNL     1     -11.938  -9.264  30.712  1.00  0.00     0.006 C
HETATM   22  C25 UNL     1     -11.914  -7.770  30.708  1.00  0.00     0.010 C
HETATM   23  C26 UNL     1     -11.608  -7.093  29.458  1.00  0.00    -0.034 C
HETATM   24  C27 UNL     1     -10.868  -5.782  29.797  1.00  0.00     0.016 C
ENDROOT
BRANCH   1  25
HETATM   25  C2  UNL     1     -13.941  -6.200  28.825  1.00  0.00     0.081 C
HETATM   26  C1  UNL     1     -14.050  -5.258  29.965  1.00  0.00     0.048 C
BRANCH  25  27
HETATM   27  O1  UNL     1     -14.743  -7.326  29.188  1.00  0.00    -0.388 OA
ATOM     28  H1  UNL     1     -15.257  -7.037  29.934  1.00  0.00     0.210 HD
ENDBRANCH  25  27
BRANCH  25  29
HETATM   29  C3  UNL     1     -14.699  -5.586  27.657  1.00  0.00     0.227 C
BRANCH  29  30
HETATM   30  O2  UNL     1     -16.072  -5.752  27.959  1.00  0.00    -0.273 OA
BRANCH  30  31
HETATM   31  S1  UNL     1     -16.842  -6.701  26.824  1.00  0.00     0.261 S
HETATM   32  C4  UNL     1     -18.495  -6.076  26.624  1.00  0.00     0.194 C
HETATM   33  O3  UNL     1     -16.188  -6.636  25.473  1.00  0.00    -0.199 OA
HETATM   34  O4  UNL     1     -16.922  -8.133  27.241  1.00  0.00    -0.199 OA
ENDBRANCH  30  31
ENDBRANCH  29  30
ENDBRANCH  25  29
ENDBRANCH   1  25
BRANCH  19  35
HETATM   35  O6  UNL     1      -7.595 -11.664  27.541  1.00  0.00    -0.394 OA
ATOM     36  H6  UNL     1      -7.024 -11.965  26.845  1.00  0.00     0.210 HD
ENDBRANCH  19  35
TORSDOF 6
ENDMDL