MODEL 1
REMARK VINA RESULT: -10.113950351      0.000      0.000
REMARK  7 active torsions:
REMARK  status: ('A' for Active; 'I' for Inactive)
REMARK    1  A    between atoms: C2_2  and  O2_4
REMARK    2  A    between atoms: O2_4  and  C3_5
REMARK    3  A    between atoms: C3_5  and  C5_7
REMARK    4  A    between atoms: C6_8  and  C7_9
REMARK    5  A    between atoms: C15_17  and  C16_18
REMARK    6  A    between atoms: C21_24  and  O4_25
REMARK    7  A    between atoms: C29_35  and  O6_36
ROOT
HETATM    1  C5  UNL     1     -10.631  -7.496  32.353  1.00  0.00     0.028 C
HETATM    2  C6  UNL     1     -11.941  -8.079  32.720  1.00  0.00    -0.004 C
HETATM    3  C10 UNL     1     -11.675  -9.562  32.857  1.00  0.00     0.006 C
HETATM    4  C11 UNL     1     -11.514 -10.038  31.434  1.00  0.00     0.011 C
HETATM    5  C12 UNL     1     -10.604  -9.259  30.560  1.00  0.00    -0.025 C
HETATM    6  C13 UNL     1      -9.342 -10.105  30.402  1.00  0.00     0.017 C
HETATM    7  C14 UNL     1      -9.261 -10.536  28.973  1.00  0.00     0.016 C
HETATM    8  C15 UNL     1      -8.974 -12.022  28.833  1.00  0.00     0.043 C
HETATM    9  C17 UNL     1     -10.284 -12.711  29.000  1.00  0.00     0.020 C
HETATM   10  C18 UNL     1     -11.347 -11.713  28.628  1.00  0.00     0.015 C
HETATM   11  C19 UNL     1     -10.629 -10.383  28.377  1.00  0.00     0.005 C
HETATM   12  C20 UNL     1     -11.248  -9.280  29.163  1.00  0.00     0.036 C
HETATM   13  C21 UNL     1     -11.203  -7.908  28.655  1.00  0.00     0.124 C
HETATM   14  C22 UNL     1     -11.244  -7.069  29.941  1.00  0.00     0.042 C
HETATM   15  C23 UNL     1     -10.353  -7.820  30.899  1.00  0.00    -0.027 C
HETATM   16  C24 UNL     1      -8.934  -7.409  30.492  1.00  0.00     0.016 C
HETATM   17  C25 UNL     1     -10.649 -10.181  26.901  1.00  0.00     0.092 A
HETATM   18  C26 UNL     1     -12.002  -9.625  26.411  1.00  0.00     0.049 C
HETATM   19  O5  UNL     1      -9.484  -9.786  26.314  1.00  0.00    -0.369 OA
HETATM   20  C27 UNL     1      -9.989 -11.042  26.020  1.00  0.00     0.160 A
HETATM   21  C28 UNL     1      -9.307 -12.287  26.394  1.00  0.00     0.068 C
HETATM   22  C29 UNL     1      -8.328 -12.252  27.503  1.00  0.00     0.136 C
ENDROOT
BRANCH   1  23
HETATM   23  C3  UNL     1     -10.314  -6.153  32.851  1.00  0.00     0.133 C
HETATM   24  C4  UNL     1     -11.560  -5.275  32.496  1.00  0.00     0.040 C
BRANCH  23  25
HETATM   25  O2  UNL     1     -10.219  -5.965  34.236  1.00  0.00    -0.316 OA
BRANCH  25  26
HETATM   26  C2  UNL     1     -10.017  -4.723  34.826  1.00  0.00     0.255 C
HETATM   27  C1  UNL     1     -10.649  -4.361  36.132  1.00  0.00     0.126 C
HETATM   28  O1  UNL     1      -9.274  -3.924  34.197  1.00  0.00    -0.266 OA
ENDBRANCH  25  26
ENDBRANCH  23  25
ENDBRANCH   1  23
BRANCH   2  29
HETATM   29  C7  UNL     1     -12.794  -7.522  33.777  1.00  0.00    -0.018 C
HETATM   30  C8  UNL     1     -12.658  -8.529  34.964  1.00  0.00     0.010 C
HETATM   31  C9  UNL     1     -14.296  -7.674  33.462  1.00  0.00     0.010 C
ENDBRANCH   2  29
BRANCH  13  32
HETATM   32  O4  UNL     1     -10.135  -7.497  27.924  1.00  0.00    -0.395 OA
ATOM     33  H4  UNL     1     -10.069  -7.745  27.009  1.00  0.00     0.210 HD
ENDBRANCH  13  32
BRANCH   8  34
HETATM   34  C16 UNL     1      -7.996 -12.364  29.930  1.00  0.00     0.243 C
HETATM   35  O3  UNL     1      -7.015 -13.005  29.607  1.00  0.00    -0.306 OA
ENDBRANCH   8  34
BRANCH  22  36
HETATM   36  O6  UNL     1      -7.350 -11.293  27.257  1.00  0.00    -0.394 OA
ATOM     37  H6  UNL     1      -7.251 -11.145  26.324  1.00  0.00     0.210 HD
ENDBRANCH  22  36
TORSDOF 7
ENDMDL