MODEL 1
REMARK VINA RESULT: -9.269467527      0.000      0.000
REMARK  5 active torsions:
REMARK  status: ('A' for Active; 'I' for Inactive)
REMARK    1  A    between atoms: C4_4  and  O1_5
REMARK    2  A    between atoms: O1_5  and  S1_6
REMARK    3  A    between atoms: S1_6  and  N1_9
REMARK    4  A    between atoms: N1_9  and  C5_11
REMARK    5  A    between atoms: C24_32  and  C25_33
ROOT
HETATM    1  C1  UNL     1     -10.803 -10.412  32.919  1.00  0.00     0.017 C
HETATM    2  C2  UNL     1     -10.670  -9.189  32.433  1.00  0.00    -0.048 C
HETATM    3  C3  UNL     1      -9.675  -9.134  31.322  1.00  0.00     0.070 C
HETATM    4  C4  UNL     1     -10.381  -8.979  29.975  1.00  0.00     0.156 C
HETATM    5  C9  UNL     1     -10.881  -7.606  29.722  1.00  0.00    -0.012 C
HETATM    6  C10 UNL     1     -11.579  -7.595  28.368  1.00  0.00     0.018 C
HETATM    7  C11 UNL     1      -9.681  -6.693  29.545  1.00  0.00     0.018 C
HETATM    8  C12 UNL     1     -11.854  -7.056  30.735  1.00  0.00    -0.018 C
HETATM    9  C13 UNL     1     -12.214  -5.655  30.233  1.00  0.00     0.017 C
HETATM   10  C14 UNL     1     -13.138  -7.815  30.747  1.00  0.00     0.011 C
HETATM   11  C15 UNL     1     -13.821  -7.833  32.097  1.00  0.00     0.009 C
HETATM   12  C16 UNL     1     -12.924  -8.520  33.121  1.00  0.00     0.033 C
HETATM   13  C17 UNL     1     -13.517  -8.680  34.453  1.00  0.00    -0.004 C
HETATM   14  C18 UNL     1     -14.594  -7.674  34.837  1.00  0.00     0.008 C
HETATM   15  C19 UNL     1     -13.870  -6.587  35.596  1.00  0.00     0.041 C
HETATM   16  C20 UNL     1     -12.464  -7.103  35.815  1.00  0.00     0.093 C
HETATM   17  C21 UNL     1     -11.926  -6.717  37.172  1.00  0.00     0.049 C
HETATM   18  C22 UNL     1     -12.669  -8.584  35.670  1.00  0.00     0.046 C
HETATM   19  O4  UNL     1     -11.563  -6.757  34.851  1.00  0.00    -0.229 OA
HETATM   20  O5  UNL     1     -10.952  -7.753  34.255  1.00  0.00    -0.223 OA
HETATM   21  C23 UNL     1     -11.492  -8.069  33.011  1.00  0.00     0.137 C
HETATM   22  C24 UNL     1     -11.253  -6.880  32.112  1.00  0.00     0.138 C
ENDROOT
BRANCH   4  23
HETATM   23  O1  UNL     1      -9.429  -9.250  29.031  1.00  0.00    -0.253 OA
BRANCH  23  24
HETATM   24  S1  UNL     1      -9.614 -10.476  27.992  1.00  0.00     0.358 S
HETATM   25  O2  UNL     1      -9.729  -9.954  26.547  1.00  0.00    -0.176 OA
HETATM   26  O3  UNL     1     -11.012 -11.063  28.221  1.00  0.00    -0.176 OA
BRANCH  24  27
HETATM   27  N1  UNL     1      -8.530 -11.761  28.014  1.00  0.00    -0.288 N
ATOM     28  H1  UNL     1      -8.193 -12.188  27.151  1.00  0.00     0.175 HD
BRANCH  27  29
HETATM   29  C5  UNL     1      -8.100 -12.232  29.299  1.00  0.00     0.031 C
HETATM   30  C6  UNL     1      -9.259 -12.472  30.244  1.00  0.00     0.038 C
HETATM   31  C7  UNL     1      -7.359 -13.557  29.081  1.00  0.00     0.038 C
HETATM   32  C8  UNL     1      -7.120 -11.281  29.914  1.00  0.00     0.038 C
ENDBRANCH  27  29
ENDBRANCH  24  27
ENDBRANCH  23  24
ENDBRANCH   4  23
BRANCH  22  33
HETATM   33  C25 UNL     1     -11.294  -5.545  32.669  1.00  0.00     0.181 C
HETATM   34  O6  UNL     1     -10.252  -4.844  32.978  1.00  0.00    -0.648 OA
HETATM   35  O7  UNL     1     -12.439  -4.783  32.970  1.00  0.00    -0.648 OA
ENDBRANCH  22  33
TORSDOF 5
ENDMDL