MODEL 4
REMARK VINA RESULT: -7.576227738      1.620      2.221
REMARK  8 active torsions:
REMARK  status: ('A' for Active; 'I' for Inactive)
REMARK    1  A    between atoms: C2_2  and  N1_3
REMARK    2  A    between atoms: N1_3  and  C3_4
REMARK    3  A    between atoms: C5_6  and  O1_7
REMARK    4  A    between atoms: C5_6  and  C6_9
REMARK    5  A    between atoms: C8_11  and  O2_12
REMARK    6  A    between atoms: C21_27  and  O4_28
REMARK    7  A    between atoms: C25_33  and  C27_35
REMARK    8  A    between atoms: C27_35  and  O6_37
ROOT
HETATM    1  C6  UNL     1     -10.273 -10.863  28.713  1.00  0.00     0.073 C
HETATM    2  C7  UNL     1     -11.709 -10.759  29.177  1.00  0.00     0.029 C
HETATM    3  C8  UNL     1     -10.242 -10.802  27.192  1.00  0.00     0.137 C
HETATM    4  C9  UNL     1      -9.518 -11.809  26.438  1.00  0.00     0.034 C
HETATM    5  C10 UNL     1      -8.868 -12.961  27.106  1.00  0.00     0.015 C
HETATM    6  C11 UNL     1      -9.678 -13.319  28.384  1.00  0.00    -0.010 C
HETATM    7  C12 UNL     1     -10.952 -13.745  27.794  1.00  0.00     0.018 C
HETATM    8  C13 UNL     1      -9.553 -12.086  29.185  1.00  0.00     0.150 C
HETATM    9  O3  UNL     1      -9.582 -12.301  30.560  1.00  0.00    -0.370 OA
HETATM   10  C14 UNL     1      -8.449 -12.954  31.022  1.00  0.00     0.093 C
HETATM   11  C15 UNL     1      -7.337 -11.906  31.100  1.00  0.00     0.050 C
HETATM   12  C16 UNL     1      -8.738 -13.423  32.428  1.00  0.00     0.024 C
HETATM   13  C17 UNL     1      -9.403 -12.385  33.293  1.00  0.00     0.013 C
HETATM   14  C18 UNL     1      -9.152 -14.820  32.585  1.00  0.00     0.010 C
HETATM   15  C19 UNL     1      -7.973 -15.653  32.094  1.00  0.00     0.009 C
HETATM   16  C20 UNL     1      -7.378 -15.221  30.819  1.00  0.00     0.042 C
HETATM   17  C21 UNL     1      -7.982 -14.047  30.115  1.00  0.00     0.093 C
HETATM   18  C22 UNL     1      -9.065 -14.479  29.128  1.00  0.00     0.034 C
HETATM   19  C23 UNL     1      -9.976 -15.499  29.680  1.00  0.00     0.010 C
HETATM   20  C24 UNL     1     -10.897 -15.246  30.767  1.00  0.00     0.020 C
HETATM   21  C25 UNL     1     -10.457 -15.327  32.179  1.00  0.00     0.048 C
HETATM   22  C26 UNL     1     -11.537 -14.523  32.972  1.00  0.00     0.026 C
ENDROOT
BRANCH   1  23
HETATM   23  C5  UNL     1      -9.518  -9.683  29.189  1.00  0.00     0.127 C
HETATM   24  N1  UNL     1      -9.799  -8.567  29.919  1.00  0.00    -0.365 N
BRANCH  24  25
HETATM   25  C2  UNL     1     -11.042  -8.173  30.470  1.00  0.00     0.120 C
HETATM   26  C1  UNL     1     -11.022  -8.474  31.975  1.00  0.00     0.026 C
ENDBRANCH  24  25
BRANCH  24  27
HETATM   27  C3  UNL     1      -8.688  -7.611  30.194  1.00  0.00     0.120 C
HETATM   28  C4  UNL     1      -8.945  -6.288  29.543  1.00  0.00     0.026 C
ENDBRANCH  24  27
BRANCH  23  29
HETATM   29  O1  UNL     1      -8.233  -9.719  28.819  1.00  0.00    -0.349 OA
ATOM     30  H1  UNL     1      -8.129  -9.517  27.897  1.00  0.00     0.219 HD
ENDBRANCH  23  29
ENDBRANCH   1  23
BRANCH   3  31
HETATM   31  O2  UNL     1      -9.996  -9.521  26.680  1.00  0.00    -0.394 OA
ATOM     32  H2  UNL     1      -9.095  -9.379  26.416  1.00  0.00     0.210 HD
ENDBRANCH   3  31
BRANCH  17  33
HETATM   33  O4  UNL     1      -6.923 -13.602  29.314  1.00  0.00    -0.386 OA
ATOM     34  H4  UNL     1      -7.053 -13.870  28.412  1.00  0.00     0.210 HD
ENDBRANCH  17  33
BRANCH  21  35
HETATM   35  C27 UNL     1     -10.661 -16.692  32.766  1.00  0.00     0.267 C
HETATM   36  O5  UNL     1     -10.808 -16.796  33.996  1.00  0.00    -0.264 OA
BRANCH  35  37
HETATM   37  O6  UNL     1     -10.699 -17.853  32.021  1.00  0.00    -0.326 OA
HETATM   38  C28 UNL     1     -10.757 -19.095  32.692  1.00  0.00     0.213 C
ENDBRANCH  35  37
ENDBRANCH  21  35
TORSDOF 8
ENDMDL