MODEL 2
REMARK VINA RESULT: -9.557478540      0.842      1.054
REMARK  6 active torsions:
REMARK  status: ('A' for Active; 'I' for Inactive)
REMARK    1  A    between atoms: O1_2  and  C2_3
REMARK    2  A    between atoms: C2_3  and  C3_5
REMARK    3  A    between atoms: C15_17  and  C16_18
REMARK       I    between atoms: C16_18  and  N1_20
REMARK    4  A    between atoms: N1_20  and  S1_22
REMARK    5  A    between atoms: S1_22  and  C17_25
REMARK    6  A    between atoms: C22_30  and  O6_31
ROOT
HETATM    1  C3  UNL     1      -8.353 -13.433  30.244  1.00  0.00     0.049 C
HETATM    2  C4  UNL     1      -7.220 -13.176  31.256  1.00  0.00     0.026 C
HETATM    3  C5  UNL     1      -7.667 -13.489  28.911  1.00  0.00     0.020 C
HETATM    4  C6  UNL     1      -7.350 -12.123  28.386  1.00  0.00     0.002 C
HETATM    5  C7  UNL     1      -8.581 -11.303  28.236  1.00  0.00     0.010 C
HETATM    6  C8  UNL     1      -9.755 -11.693  29.050  1.00  0.00    -0.035 C
HETATM    7  C9  UNL     1     -10.685 -12.565  28.187  1.00  0.00     0.016 C
HETATM    8  C10 UNL     1     -10.633 -10.508  29.425  1.00  0.00     0.001 C
HETATM    9  C11 UNL     1     -11.206  -9.826  28.198  1.00  0.00     0.007 C
HETATM   10  C12 UNL     1     -12.240  -8.822  28.673  1.00  0.00     0.013 C
HETATM   11  C13 UNL     1     -11.671  -7.816  29.624  1.00  0.00    -0.001 C
HETATM   12  C14 UNL     1     -10.725  -6.861  28.936  1.00  0.00     0.019 C
HETATM   13  C15 UNL     1     -12.650  -7.047  30.427  1.00  0.00     0.090 C
HETATM   14  C20 UNL     1     -13.156  -8.126  31.390  1.00  0.00     0.018 C
HETATM   15  C21 UNL     1     -11.926  -8.988  31.702  1.00  0.00     0.040 C
HETATM   16  C22 UNL     1     -10.890  -8.479  30.757  1.00  0.00     0.070 C
HETATM   17  C23 UNL     1      -9.930  -9.452  30.207  1.00  0.00     0.025 C
HETATM   18  C24 UNL     1      -8.993 -10.074  31.170  1.00  0.00     0.008 C
HETATM   19  C25 UNL     1      -9.330 -11.501  31.529  1.00  0.00     0.007 C
HETATM   20  C26 UNL     1      -9.439 -12.414  30.346  1.00  0.00     0.012 C
ENDROOT
BRANCH  13  21
HETATM   21  C16 UNL     1     -13.715  -6.338  29.756  1.00  0.00     0.235 C
HETATM   22  O3  UNL     1     -13.961  -5.148  30.188  1.00  0.00    -0.272 OA
HETATM   23  N1  UNL     1     -14.519  -6.768  28.693  1.00  0.00    -0.254 N
ATOM     24  H1  UNL     1     -14.374  -7.701  28.307  1.00  0.00     0.181 HD
BRANCH  23  25
HETATM   25  S1  UNL     1     -15.734  -5.775  28.028  1.00  0.00     0.236 S
HETATM   26  O4  UNL     1     -15.242  -4.351  27.798  1.00  0.00    -0.205 OA
HETATM   27  O5  UNL     1     -16.172  -6.257  26.661  1.00  0.00    -0.205 OA
BRANCH  25  28
HETATM   28  C17 UNL     1     -17.182  -5.638  29.031  1.00  0.00     0.121 C
HETATM   29  C18 UNL     1     -18.200  -6.701  28.680  1.00  0.00     0.027 C
HETATM   30  C19 UNL     1     -17.871  -4.301  28.711  1.00  0.00     0.027 C
ENDBRANCH  25  28
ENDBRANCH  23  25
ENDBRANCH  13  21
BRANCH  16  31
HETATM   31  O6  UNL     1     -10.187  -7.452  31.395  1.00  0.00    -0.389 OA
ATOM     32  H6  UNL     1      -9.431  -7.863  31.798  1.00  0.00     0.210 HD
ENDBRANCH  16  31
BRANCH   1  33
HETATM   33  C2  UNL     1      -8.813 -14.806  30.571  1.00  0.00     0.267 C
HETATM   34  O2  UNL     1      -8.495 -15.330  31.643  1.00  0.00    -0.264 OA
BRANCH  33  35
HETATM   35  O1  UNL     1      -9.588 -15.457  29.650  1.00  0.00    -0.326 OA
HETATM   36  C1  UNL     1     -10.845 -15.955  30.034  1.00  0.00     0.213 C
ENDBRANCH  33  35
ENDBRANCH   1  33
TORSDOF 6
ENDMDL