MODEL 5
REMARK VINA RESULT: -10.042716211      4.169      7.238
REMARK  6 active torsions:
REMARK  status: ('A' for Active; 'I' for Inactive)
REMARK    1  A    between atoms: O1_2  and  C2_3
REMARK    2  A    between atoms: C3_5  and  O3_6
REMARK    3  A    between atoms: O3_6  and  C4_7
REMARK    4  A    between atoms: C20_23  and  O4_24
REMARK    5  A    between atoms: C28_33  and  O5_34
REMARK    6  A    between atoms: C29_36  and  O6_37
ROOT
HETATM    1  C4  UNL     1     -11.431  -9.120  28.856  1.00  0.00     0.125 C
HETATM    2  C5  UNL     1     -10.873  -7.772  28.400  1.00  0.00     0.033 C
HETATM    3  C6  UNL     1     -11.538  -6.771  29.316  1.00  0.00     0.012 C
HETATM    4  C7  UNL     1     -10.842  -6.904  30.686  1.00  0.00    -0.036 C
HETATM    5  C8  UNL     1      -9.420  -6.376  30.400  1.00  0.00     0.016 C
HETATM    6  C9  UNL     1     -10.719  -8.302  31.152  1.00  0.00    -0.004 C
HETATM    7  C10 UNL     1     -11.690  -8.644  32.269  1.00  0.00     0.006 C
HETATM    8  C11 UNL     1     -11.607  -7.682  33.416  1.00  0.00     0.006 C
HETATM    9  C12 UNL     1     -11.160  -6.319  33.060  1.00  0.00     0.003 C
HETATM   10  C13 UNL     1     -11.441  -5.929  31.633  1.00  0.00     0.002 C
HETATM   11  C14 UNL     1     -12.906  -5.631  31.414  1.00  0.00     0.033 C
HETATM   12  C15 UNL     1     -13.370  -4.665  32.484  1.00  0.00    -0.022 C
HETATM   13  C16 UNL     1     -12.759  -4.521  33.619  1.00  0.00    -0.070 C
HETATM   14  C17 UNL     1     -13.329  -3.516  34.593  1.00  0.00     0.026 C
HETATM   15  C18 UNL     1     -14.304  -2.571  33.922  1.00  0.00     0.012 C
HETATM   16  C19 UNL     1     -14.187  -1.291  34.741  1.00  0.00     0.033 C
HETATM   17  C20 UNL     1     -12.675  -1.177  34.836  1.00  0.00     0.127 C
HETATM   18  C21 UNL     1     -12.209  -2.619  35.119  1.00  0.00    -0.011 C
HETATM   19  C22 UNL     1     -12.063  -2.685  36.616  1.00  0.00     0.018 C
HETATM   20  C23 UNL     1     -10.960  -2.816  34.345  1.00  0.00     0.013 C
HETATM   21  C24 UNL     1     -10.460  -4.204  34.195  1.00  0.00     0.015 C
HETATM   22  C25 UNL     1     -11.561  -5.256  34.049  1.00  0.00    -0.016 C
HETATM   23  C26 UNL     1     -11.713  -5.861  35.426  1.00  0.00     0.020 C
HETATM   24  C27 UNL     1     -10.801  -9.404  30.176  1.00  0.00     0.037 C
ENDROOT
BRANCH   1  25
HETATM   25  O3  UNL     1     -11.278 -10.096  27.919  1.00  0.00    -0.353 OA
BRANCH  25  26
HETATM   26  C3  UNL     1     -10.470 -11.156  28.301  1.00  0.00     0.294 C
HETATM   27  O2  UNL     1     -11.238 -12.313  28.264  1.00  0.00    -0.326 OA
HETATM   28  C2  UNL     1     -10.395 -13.359  27.939  1.00  0.00     0.293 C
HETATM   29  C29 UNL     1      -9.234 -12.812  27.188  1.00  0.00     0.206 C
HETATM   30  C28 UNL     1      -9.430 -11.336  27.216  1.00  0.00     0.207 C
BRANCH  28  31
HETATM   31  O1  UNL     1     -10.988 -14.365  27.216  1.00  0.00    -0.363 OA
HETATM   32  C1  UNL     1     -11.000 -15.586  27.882  1.00  0.00     0.204 C
ENDBRANCH  28  31
BRANCH  29  33
HETATM   33  O6  UNL     1      -8.050 -13.209  27.823  1.00  0.00    -0.388 OA
ATOM     34  H6  UNL     1      -7.676 -13.944  27.351  1.00  0.00     0.210 HD
ENDBRANCH  29  33
BRANCH  30  35
HETATM   35  O5  UNL     1      -8.266 -10.679  27.612  1.00  0.00    -0.388 OA
ATOM     36  H5  UNL     1      -8.033 -10.051  26.938  1.00  0.00     0.210 HD
ENDBRANCH  30  35
ENDBRANCH  25  26
ENDBRANCH   1  25
BRANCH  17  37
HETATM   37  O4  UNL     1     -12.106  -0.658  33.700  1.00  0.00    -0.395 OA
ATOM     38  H4  UNL     1     -12.527   0.142  33.409  1.00  0.00     0.210 HD
ENDBRANCH  17  37
TORSDOF 6
ENDMDL