MODEL 2
REMARK VINA RESULT: -7.961390780      2.463      4.675
REMARK  7 active torsions:
REMARK  status: ('A' for Active; 'I' for Inactive)
REMARK    1  A    between atoms: C3_3  and  C4_4
REMARK    2  A    between atoms: C5_6  and  N1_7
REMARK    3  A    between atoms: C5_6  and  C12_18
REMARK    4  A    between atoms: N1_7  and  C6_9
REMARK    5  A    between atoms: C6_9  and  N2_11
REMARK    6  A    between atoms: C12_18  and  N5_26
REMARK    7  A    between atoms: N4_19  and  C13_21
REMARK       I    between atoms: N5_26  and  C18_28
ROOT
HETATM    1  C1  UNL     1     -19.281 -10.085  -2.914  1.00  0.00     0.112 C
HETATM    2  C2  UNL     1     -18.765  -9.697  -1.626  1.00  0.00    -0.105 C
HETATM    3  C3  UNL     1     -18.338  -9.388  -0.532  1.00  0.00    -0.052 C
ENDROOT
BRANCH   3   4
HETATM    4  C4  UNL     1     -17.798  -9.073   0.728  1.00  0.00     0.117 C
HETATM    5 CL1  UNL     1     -16.566  -7.678   0.533  1.00  0.00    -0.072 Cl
HETATM    6  C5  UNL     1     -17.893  -9.462   1.900  1.00  0.00     0.109 C
BRANCH   6   7
HETATM    7  N1  UNL     1     -16.964  -8.610   2.773  1.00  0.00    -0.328 N
ATOM      8  H1  UNL     1     -15.960  -8.592   2.597  1.00  0.00     0.168 HD
BRANCH   7   9
HETATM    9  C6  UNL     1     -17.514  -7.862   3.809  1.00  0.00     0.174 C
HETATM   10  S1  UNL     1     -18.821  -6.927   3.536  1.00  0.00    -0.041 SA
BRANCH   9  11
HETATM   11  N2  UNL     1     -16.979  -7.900   5.114  1.00  0.00    -0.355 N
HETATM   12  C7  UNL     1     -17.372  -6.960   6.139  1.00  0.00     0.155 C
HETATM   13  C8  UNL     1     -17.452  -7.661   7.493  1.00  0.00     0.291 C
HETATM   14  N3  UNL     1     -16.190  -8.263   7.859  1.00  0.00     0.087 N
HETATM   15  C9  UNL     1     -16.378  -9.562   8.476  1.00  0.00     0.310 C
HETATM   16  C10 UNL     1     -15.277  -8.331   6.735  1.00  0.00     0.291 C
HETATM   17  C11 UNL     1     -15.983  -8.902   5.514  1.00  0.00     0.155 C
ENDBRANCH   9  11
ENDBRANCH   7   9
ENDBRANCH   6   7
BRANCH   6  18
HETATM   18  C12 UNL     1     -18.570 -10.390   2.727  1.00  0.00     0.133 C
HETATM   19  N4  UNL     1     -17.922 -11.461   3.128  1.00  0.00    -0.370 N
ATOM     20  H4  UNL     1     -18.643 -11.918   3.685  1.00  0.00     0.161 HD
BRANCH  19  21
HETATM   21  C13 UNL     1     -16.958 -12.297   3.263  1.00  0.00     0.083 C
HETATM   22  C14 UNL     1     -17.390 -13.820   3.114  1.00  0.00     0.025 C
HETATM   23  C15 UNL     1     -16.039 -14.456   3.354  1.00  0.00     0.002 C
HETATM   24  C16 UNL     1     -15.458 -13.666   4.497  1.00  0.00     0.002 C
HETATM   25  C17 UNL     1     -16.368 -12.478   4.703  1.00  0.00     0.025 C
ENDBRANCH  19  21
BRANCH  18  26
HETATM   26  N5  UNL     1     -19.891 -10.374   3.238  1.00  0.00    -0.312 N
HETATM   27  C18 UNL     1     -21.218 -10.412   2.973  1.00  0.00     0.219 C
HETATM   28  C19 UNL     1     -22.163 -10.343   4.230  1.00  0.00     0.117 C
HETATM   29  O1  UNL     1     -21.906 -10.490   1.948  1.00  0.00    -0.274 OA
ATOM     30  H5  UNL     1     -19.804 -10.303   4.252  1.00  0.00     0.170 HD
ENDBRANCH  18  26
ENDBRANCH   6  18
ENDBRANCH   3   4
TORSDOF 7
ENDMDL