MODEL 2
REMARK VINA RESULT: -9.391335618      0.700      1.007
REMARK  7 active torsions:
REMARK  status: ('A' for Active; 'I' for Inactive)
REMARK    1  A    between atoms: C2_2  and  C4_4
REMARK    2  A    between atoms: C4_4  and  N1_6
REMARK    3  A    between atoms: C4_4  and  N2_10
REMARK    4  A    between atoms: N2_10  and  C6_12
REMARK    5  A    between atoms: C7_15  and  C8_16
REMARK    6  A    between atoms: C8_16  and  O1_17
REMARK    7  A    between atoms: C8_16  and  N4_19
REMARK       I    between atoms: N5_22  and  C11_23
REMARK       I    between atoms: C11_23  and  N6_25
ROOT
HETATM    1  C6  UNL     1     -11.186  -9.928   6.971  1.00  0.00     0.146 A
HETATM    2  N3  UNL     1     -12.262  -9.633   6.229  1.00  0.00    -0.333 N
ATOM      3  H3  UNL     1     -12.178  -9.003   5.432  1.00  0.00     0.168 HD
HETATM    4  C7  UNL     1     -13.407 -10.153   6.531  1.00  0.00     0.092 A
HETATM    5  C18 UNL     1     -13.422 -11.009   7.642  1.00  0.00     0.087 A
HETATM    6  S1  UNL     1     -11.799 -10.982   8.144  1.00  0.00    -0.064 SA
ENDROOT
BRANCH   4   7
HETATM    7  C8  UNL     1     -14.684  -9.923   5.825  1.00  0.00     0.166 C
BRANCH   7   8
HETATM    8  O1  UNL     1     -15.264  -8.762   5.994  1.00  0.00    -0.344 OA
ATOM      9  H1  UNL     1     -15.414  -8.475   6.887  1.00  0.00     0.219 HD
ENDBRANCH   7   8
BRANCH   7  10
HETATM   10  N4  UNL     1     -15.405 -10.756   4.979  1.00  0.00    -0.357 N
HETATM   11  C9  UNL     1     -16.890 -10.709   5.022  1.00  0.00     0.145 C
HETATM   12  C10 UNL     1     -17.434 -10.353   3.633  1.00  0.00     0.147 C
HETATM   13  N5  UNL     1     -16.869 -11.254   2.673  1.00  0.00    -0.331 N
HETATM   14  C11 UNL     1     -17.030 -11.173   1.286  1.00  0.00     0.320 C
HETATM   15  C16 UNL     1     -16.049 -12.347   3.247  1.00  0.00     0.147 C
HETATM   16  O2  UNL     1     -16.422 -12.103   0.618  1.00  0.00    -0.247 OA
HETATM   17  N6  UNL     1     -17.736 -10.254   0.511  1.00  0.00    -0.331 N
HETATM   18  C12 UNL     1     -18.528  -9.120   0.867  1.00  0.00     0.130 C
HETATM   19  C15 UNL     1     -17.777 -10.296  -0.974  1.00  0.00     0.164 C
HETATM   20  C13 UNL     1     -19.717  -9.255  -0.102  1.00  0.00     0.058 C
HETATM   21  C14 UNL     1     -19.016  -9.578  -1.392  1.00  0.00     0.189 C
HETATM   22  F1  UNL     1     -19.824 -10.367  -2.202  1.00  0.00    -0.248 F
HETATM   23  C17 UNL     1     -14.883 -11.693   4.030  1.00  0.00     0.145 C
ENDBRANCH   7  10
ENDBRANCH   4   7
BRANCH   1  24
HETATM   24  N2  UNL     1      -9.974  -9.481   6.793  1.00  0.00    -0.338 N
ATOM     25  H2  UNL     1      -9.837  -8.470   6.791  1.00  0.00     0.164 HD
BRANCH  24  26
HETATM   26  C4  UNL     1      -8.825 -10.307   6.601  1.00  0.00     0.196 C
HETATM   27  C5  UNL     1      -9.100 -11.691   6.082  1.00  0.00     0.071 C
BRANCH  26  28
HETATM   28  C2  UNL     1      -8.028 -10.422   7.895  1.00  0.00     0.033 C
HETATM   29  C1  UNL     1      -6.542 -10.375   7.625  1.00  0.00     0.014 C
HETATM   30  C3  UNL     1      -8.326 -11.695   8.640  1.00  0.00     0.014 C
ENDBRANCH  26  28
BRANCH  26  31
HETATM   31  N1  UNL     1      -7.978  -9.645   5.594  1.00  0.00    -0.053 N
ATOM     32  H13 UNL     1      -8.381  -8.770   5.257  1.00  0.00     0.277 HD
ATOM     33  H12 UNL     1      -7.122  -9.259   5.993  1.00  0.00     0.277 HD
ATOM     34  H11 UNL     1      -7.797 -10.309   4.842  1.00  0.00     0.277 HD
ENDBRANCH  26  31
ENDBRANCH  24  26
ENDBRANCH   1  24
TORSDOF 7
ENDMDL