MODEL 3
REMARK VINA RESULT: -9.097002613      3.074      5.032
REMARK  6 active torsions:
REMARK  status: ('A' for Active; 'I' for Inactive)
REMARK    1  A    between atoms: C2_2  and  C5_5
REMARK    2  A    between atoms: C7_7  and  O1_8
REMARK    3  A    between atoms: C7_7  and  C8_10
REMARK       I    between atoms: C8_10  and  N1_12
REMARK    4  A    between atoms: C11_15  and  C12_16
REMARK    5  A    between atoms: C17_22  and  C18_23
REMARK       I    between atoms: C18_23  and  N2_25
REMARK    6  A    between atoms: C20_27  and  O4_28
ROOT
HETATM    1  C5  UNL     1     -18.125 -11.058   2.924  1.00  0.00     0.009 C
HETATM    2  C6  UNL     1     -17.314 -10.643   4.118  1.00  0.00     0.054 C
HETATM    3  C7  UNL     1     -16.367  -9.493   3.930  1.00  0.00     0.139 C
HETATM    4  C15 UNL     1     -16.995  -8.308   3.251  1.00  0.00     0.049 C
HETATM    5  C16 UNL     1     -18.271  -8.676   2.541  1.00  0.00     0.018 C
HETATM    6  C17 UNL     1     -18.055 -10.050   1.872  1.00  0.00     0.083 C
ENDROOT
BRANCH   3   7
HETATM    7  O1  UNL     1     -15.281  -9.884   3.186  1.00  0.00    -0.380 OA
ATOM      8  H1  UNL     1     -14.623  -9.199   3.176  1.00  0.00     0.211 HD
ENDBRANCH   3   7
BRANCH   3   9
HETATM    9  C8  UNL     1     -15.948  -9.047   5.266  1.00  0.00     0.254 C
HETATM   10  O2  UNL     1     -16.383  -7.916   5.714  1.00  0.00    -0.270 OA
HETATM   11  N1  UNL     1     -15.097  -9.770   6.105  1.00  0.00    -0.350 N
HETATM   12  C9  UNL     1     -14.528 -11.045   5.775  1.00  0.00     0.126 C
HETATM   13  C14 UNL     1     -14.718  -9.248   7.431  1.00  0.00     0.126 C
HETATM   14  C10 UNL     1     -13.701 -11.560   6.963  1.00  0.00     0.027 C
HETATM   15  C11 UNL     1     -12.616 -10.595   7.326  1.00  0.00     0.017 C
HETATM   16  C13 UNL     1     -13.208  -9.209   7.492  1.00  0.00     0.027 C
BRANCH  15  17
HETATM   17  C12 UNL     1     -11.975 -11.016   8.616  1.00  0.00     0.227 C
HETATM   18  F1  UNL     1     -10.808 -11.698   8.325  1.00  0.00    -0.255 F
ENDBRANCH  15  17
ENDBRANCH   3   9
BRANCH   1  19
HETATM   19  C2  UNL     1     -17.821 -12.477   2.571  1.00  0.00    -0.047 C
HETATM   20  C1  UNL     1     -17.115 -13.136   3.755  1.00  0.00     0.015 C
HETATM   21  C3  UNL     1     -18.985 -13.344   2.250  1.00  0.00     0.015 C
HETATM   22  C4  UNL     1     -16.847 -12.625   1.415  1.00  0.00     0.015 C
ENDBRANCH   1  19
BRANCH   6  23
HETATM   23  C18 UNL     1     -19.073 -10.060   0.808  1.00  0.00     0.224 C
HETATM   24  O3  UNL     1     -18.698 -10.373  -0.349  1.00  0.00    -0.273 OA
HETATM   25  N2  UNL     1     -20.432  -9.742   0.995  1.00  0.00    -0.347 N
HETATM   26  C19 UNL     1     -21.540  -9.710   0.061  1.00  0.00     0.159 C
HETATM   27  C21 UNL     1     -21.381  -9.330   2.008  1.00  0.00     0.159 C
HETATM   28  C20 UNL     1     -22.469 -10.032   1.184  1.00  0.00     0.154 C
BRANCH  28  29
HETATM   29  O4  UNL     1     -23.670  -9.336   1.210  1.00  0.00    -0.392 OA
ATOM     30  H4  UNL     1     -23.871  -8.870   2.013  1.00  0.00     0.210 HD
ENDBRANCH  28  29
ENDBRANCH   6  23
TORSDOF 6
ENDMDL