MODEL 1
REMARK VINA RESULT: -8.780372931      0.000      0.000
REMARK  7 active torsions:
REMARK  status: ('A' for Active; 'I' for Inactive)
REMARK    1  A    between atoms: C3_3  and  C4_4
REMARK    2  A    between atoms: C4_4  and  O1_7
REMARK    3  A    between atoms: O1_7  and  C7_8
REMARK    4  A    between atoms: C7_8  and  C8_10
REMARK       I    between atoms: C8_10  and  N1_12
REMARK    5  A    between atoms: N1_12  and  C9_14
REMARK       I    between atoms: N2_22  and  C16_23
REMARK       I    between atoms: C16_23  and  N3_25
REMARK    6  A    between atoms: N3_25  and  C17_27
REMARK    7  A    between atoms: C17_27  and  C18_28
ROOT
HETATM    1  C1  UNL     1     -17.394  -7.725   0.005  1.00  0.00     0.112 C
HETATM    2  C2  UNL     1     -18.666  -8.455   0.083  1.00  0.00    -0.108 C
HETATM    3  C3  UNL     1     -19.711  -9.060   0.124  1.00  0.00    -0.069 C
ENDROOT
BRANCH   3   4
HETATM    4  C4  UNL     1     -20.993  -9.803   0.149  1.00  0.00     0.126 C
HETATM    5  C5  UNL     1     -21.993  -8.975   0.890  1.00  0.00     0.061 C
HETATM    6  C6  UNL     1     -21.374 -10.052  -1.292  1.00  0.00     0.061 C
BRANCH   4   7
HETATM    7  O1  UNL     1     -20.727 -11.049   0.814  1.00  0.00    -0.290 OA
BRANCH   7   8
HETATM    8  C7  UNL     1     -20.219 -11.112   2.080  1.00  0.00     0.353 C
HETATM    9  O2  UNL     1     -21.050 -11.161   3.039  1.00  0.00    -0.254 OA
BRANCH   8  10
HETATM   10  C8  UNL     1     -18.789 -11.123   2.365  1.00  0.00     0.317 C
HETATM   11  O3  UNL     1     -18.030 -11.840   1.663  1.00  0.00    -0.262 OA
HETATM   12  N1  UNL     1     -18.231 -10.347   3.414  1.00  0.00    -0.347 N
ATOM     13  H1  UNL     1     -18.845  -9.767   3.985  1.00  0.00     0.163 HD
BRANCH  12  14
HETATM   14  C9  UNL     1     -16.787 -10.362   3.695  1.00  0.00     0.093 C
HETATM   15  C10 UNL     1     -16.493  -8.985   4.259  1.00  0.00     0.028 C
HETATM   16  C11 UNL     1     -16.523  -9.184   5.769  1.00  0.00     0.028 C
HETATM   17  C12 UNL     1     -15.949 -10.581   5.900  1.00  0.00     0.098 C
HETATM   18  C13 UNL     1     -16.566 -11.345   4.784  1.00  0.00     0.067 C
HETATM   19  N2  UNL     1     -14.549 -10.654   5.694  1.00  0.00    -0.326 N
HETATM   20  C14 UNL     1     -15.527 -12.392   4.447  1.00  0.00     0.196 C
HETATM   21  F1  UNL     1     -15.613 -12.887   3.188  1.00  0.00    -0.247 F
HETATM   22  C15 UNL     1     -14.253 -11.571   4.621  1.00  0.00     0.165 C
HETATM   23  C16 UNL     1     -13.561  -9.935   6.441  1.00  0.00     0.318 C
HETATM   24  O4  UNL     1     -13.946  -9.186   7.367  1.00  0.00    -0.247 OA
HETATM   25  N3  UNL     1     -12.209 -10.100   6.109  1.00  0.00    -0.342 N
ATOM     26  H3  UNL     1     -12.018 -10.725   5.326  1.00  0.00     0.164 HD
BRANCH  25  27
HETATM   27  C17 UNL     1     -11.073  -9.511   6.719  1.00  0.00     0.132 C
BRANCH  27  28
HETATM   28  C18 UNL     1      -9.827 -10.296   6.721  1.00  0.00    -0.035 C
HETATM   29  C19 UNL     1      -9.757 -11.164   7.990  1.00  0.00     0.016 C
HETATM   30  C20 UNL     1     -10.010 -11.330   5.542  1.00  0.00     0.016 C
HETATM   31  C21 UNL     1      -8.524  -9.676   6.466  1.00  0.00     0.016 C
ENDBRANCH  27  28
ENDBRANCH  25  27
ENDBRANCH  12  14
ENDBRANCH   8  10
ENDBRANCH   7   8
ENDBRANCH   4   7
ENDBRANCH   3   4
TORSDOF 7
ENDMDL