MODEL 1
REMARK VINA RESULT: -8.636651612      0.000      0.000
REMARK  7 active torsions:
REMARK  status: ('A' for Active; 'I' for Inactive)
REMARK    1  A    between atoms: O1_2  and  C2_3
REMARK    2  A    between atoms: C5_7  and  C6_8
REMARK    3  A    between atoms: C6_8  and  O2_9
REMARK    4  A    between atoms: C6_8  and  N1_11
REMARK    5  A    between atoms: C9_14  and  N2_15
REMARK    6  A    between atoms: N2_15  and  C10_17
REMARK    7  A    between atoms: C10_17  and  N3_19
REMARK       I    between atoms: C11_21  and  N4_22
REMARK       I    between atoms: C11_21  and  N6_26
ROOT
HETATM    1  N3  UNL     1     -15.476  -9.166   5.508  1.00  0.00    -0.165 N
ATOM      2  H3  UNL     1     -14.757  -9.530   4.882  1.00  0.00     0.186 HD
HETATM    3  C11 UNL     1     -15.067  -9.040   6.667  1.00  0.00     0.691 C
HETATM    4  N4  UNL     1     -15.729  -8.576   7.831  1.00  0.00    -0.126 N
ATOM      5  H4  UNL     1     -15.937  -7.582   7.928  1.00  0.00     0.197 HD
HETATM    6  C12 UNL     1     -16.102  -9.457   8.849  1.00  0.00     0.196 C
HETATM    7  N5  UNL     1     -16.408 -10.208   9.684  1.00  0.00    -0.171 NA
HETATM    8  N6  UNL     1     -13.688  -9.420   6.905  1.00  0.00    -0.213 N
HETATM    9  C13 UNL     1     -12.654  -8.485   7.245  1.00  0.00     0.167 C
HETATM   10  C14 UNL     1     -11.720  -9.055   8.311  1.00  0.00     0.188 C
HETATM   11  O3  UNL     1     -11.372 -10.365   7.957  1.00  0.00    -0.388 OA
HETATM   12  C15 UNL     1     -12.493 -11.168   7.993  1.00  0.00     0.188 C
HETATM   13  C16 UNL     1     -13.372 -10.817   6.786  1.00  0.00     0.167 C
ENDROOT
BRANCH   1  14
HETATM   14  C10 UNL     1     -16.688  -8.932   4.845  1.00  0.00     0.191 C
HETATM   15  S1  UNL     1     -17.109  -7.324   4.810  1.00  0.00    -0.040 SA
BRANCH  14  16
HETATM   16  N2  UNL     1     -17.464  -9.890   4.209  1.00  0.00    -0.332 N
ATOM     17  H2  UNL     1     -18.134 -10.397   4.786  1.00  0.00     0.168 HD
BRANCH  16  18
HETATM   18  C9  UNL     1     -17.416 -10.230   2.844  1.00  0.00     0.054 A
HETATM   19  C5  UNL     1     -16.739 -11.422   2.416  1.00  0.00     0.080 A
HETATM   20  C4  UNL     1     -16.842 -11.854   1.115  1.00  0.00     0.135 A
HETATM   21  C3  UNL     1     -17.611 -11.116   0.212  1.00  0.00     0.080 A
HETATM   22  F1  UNL     1     -16.188 -12.942   0.607  1.00  0.00    -0.205 F
HETATM   23  C2  UNL     1     -18.266  -9.980   0.574  1.00  0.00     0.073 A
HETATM   24  C17 UNL     1     -18.150  -9.561   1.897  1.00  0.00     0.067 A
BRANCH  19  25
HETATM   25  C6  UNL     1     -15.826 -11.998   3.347  1.00  0.00     0.153 C
BRANCH  25  26
HETATM   26  O2  UNL     1     -14.700 -11.289   3.467  1.00  0.00    -0.345 OA
ATOM     27  H2  UNL     1     -14.760 -10.619   4.137  1.00  0.00     0.219 HD
ENDBRANCH  25  26
BRANCH  25  28
HETATM   28  N1  UNL     1     -15.792 -13.110   4.180  1.00  0.00    -0.370 N
HETATM   29  C7  UNL     1     -15.879 -14.479   3.503  1.00  0.00     0.151 C
HETATM   30  C8  UNL     1     -15.601 -13.268   5.589  1.00  0.00     0.151 C
ENDBRANCH  25  28
ENDBRANCH  19  25
BRANCH  23  31
HETATM   31  O1  UNL     1     -19.015  -9.270  -0.331  1.00  0.00    -0.356 OA
HETATM   32  C1  UNL     1     -19.085  -9.610  -1.698  1.00  0.00     0.210 C
ENDBRANCH  23  31
ENDBRANCH  16  18
ENDBRANCH  14  16
ENDBRANCH   1  14
TORSDOF 7
ENDMDL