MODEL 2
REMARK VINA RESULT: -10.336961049      1.497      2.026
REMARK  4 active torsions:
REMARK  status: ('A' for Active; 'I' for Inactive)
REMARK    1  A    between atoms: C2_5  and  C3_6
REMARK    2  A    between atoms: C3_6  and  C4_8
REMARK       I    between atoms: C4_8  and  N2_10
REMARK    3  A    between atoms: N2_10  and  C5_12
REMARK    4  A    between atoms: C5_12  and  C6_13
REMARK       I    between atoms: C6_13  and  N3_15
ROOT
HETATM    1  C3  UNL     1     -13.456 -10.284   6.668  1.00  0.00     0.227 C
HETATM    2  O1  UNL     1     -13.453  -9.032   6.574  1.00  0.00    -0.286 OA
ENDROOT
BRANCH   1   3
HETATM    3  C2  UNL     1     -12.401 -10.971   7.453  1.00  0.00     0.133 C
HETATM    4  C1  UNL     1     -11.131 -10.850   6.723  1.00  0.00     0.091 C
HETATM    5  N1  UNL     1     -11.242 -10.730   5.458  1.00  0.00    -0.388 N
HETATM    6  N4  UNL     1      -9.821 -10.847   7.294  1.00  0.00    -0.302 N
ATOM      7  H12 UNL     1     -12.176 -10.732   5.051  1.00  0.00     0.157 HD
ATOM      8  H11 UNL     1     -10.360 -10.646   4.952  1.00  0.00     0.157 HD
HETATM    9  C17 UNL     1      -9.409 -11.492   8.481  1.00  0.00     0.094 C
HETATM   10  C20 UNL     1      -8.721 -10.163   6.721  1.00  0.00     0.225 C
HETATM   11  C16 UNL     1     -10.194 -11.111   9.707  1.00  0.00     0.026 C
HETATM   12  C18 UNL     1      -7.944 -11.149   8.677  1.00  0.00     0.035 C
HETATM   13  C15 UNL     1     -11.055  -9.916   9.307  1.00  0.00     0.003 C
HETATM   14  C14 UNL     1     -12.368 -10.454   8.845  1.00  0.00     0.020 C
HETATM   15  C19 UNL     1      -7.463 -10.669   7.321  1.00  0.00     0.105 C
HETATM   16  O4  UNL     1      -8.809  -9.250   5.824  1.00  0.00    -0.273 OA
ENDBRANCH   1   3
BRANCH   1  17
HETATM   17  C4  UNL     1     -14.519 -11.009   5.984  1.00  0.00     0.288 C
HETATM   18  O2  UNL     1     -15.206 -11.872   6.601  1.00  0.00    -0.264 OA
HETATM   19  N2  UNL     1     -14.801 -10.766   4.626  1.00  0.00    -0.346 N
ATOM     20  H2  UNL     1     -14.253 -10.073   4.117  1.00  0.00     0.163 HD
BRANCH  19  21
HETATM   21  C5  UNL     1     -15.853 -11.480   3.939  1.00  0.00     0.226 C
BRANCH  21  22
HETATM   22  C6  UNL     1     -17.005 -10.606   3.658  1.00  0.00     0.239 C
HETATM   23  O3  UNL     1     -17.386  -9.822   4.562  1.00  0.00    -0.271 OA
HETATM   24  N3  UNL     1     -17.708 -10.602   2.427  1.00  0.00    -0.320 N
HETATM   25  C7  UNL     1     -18.805  -9.650   2.404  1.00  0.00     0.129 C
HETATM   26  C13 UNL     1     -17.225 -11.522   1.429  1.00  0.00     0.273 C
HETATM   27  C8  UNL     1     -18.376  -8.251   2.156  1.00  0.00     0.020 C
HETATM   28  C9  UNL     1     -18.607  -7.747   0.776  1.00  0.00     0.002 C
HETATM   29  C10 UNL     1     -18.467  -8.818  -0.285  1.00  0.00     0.000 C
HETATM   30  C11 UNL     1     -17.157  -9.512  -0.079  1.00  0.00     0.004 C
HETATM   31  C12 UNL     1     -17.415 -10.991   0.021  1.00  0.00     0.059 C
HETATM   32  F1  UNL     1     -17.926 -12.720   1.498  1.00  0.00    -0.227 F
ENDBRANCH  21  22
ENDBRANCH  19  21
ENDBRANCH   1  17
TORSDOF 4
ENDMDL