MODEL 1
REMARK VINA RESULT: -9.214461988      0.000      0.000
REMARK  3 active torsions:
REMARK  status: ('A' for Active; 'I' for Inactive)
REMARK    1  A    between atoms: C2_2  and  C3_3
REMARK    2  A    between atoms: C2_2  and  C15_18
REMARK    3  A    between atoms: N3_24  and  S1_25
ROOT
HETATM    1  C3  UNL     1     -17.715 -11.123   3.743  1.00  0.00    -0.007 C
HETATM    2  C4  UNL     1     -16.495 -11.589   4.495  1.00  0.00     0.005 C
HETATM    3  C5  UNL     1     -16.094 -10.645   5.562  1.00  0.00     0.000 C
HETATM    4  C6  UNL     1     -15.289 -11.212   6.694  1.00  0.00     0.000 C
HETATM    5  C7  UNL     1     -15.035 -10.059   7.685  1.00  0.00     0.000 C
HETATM    6  C8  UNL     1     -16.312  -9.307   7.802  1.00  0.00     0.000 C
HETATM    7  C9  UNL     1     -16.441  -8.304   8.899  1.00  0.00     0.000 C
HETATM    8  C10 UNL     1     -17.559  -7.349   8.521  1.00  0.00     0.009 C
HETATM    9  C11 UNL     1     -18.656  -7.907   7.708  1.00  0.00     0.103 C
HETATM   10  C12 UNL     1     -18.675  -7.429   6.296  1.00  0.00     0.217 C
HETATM   11  O1  UNL     1     -18.039  -6.333   6.104  1.00  0.00    -0.274 OA
HETATM   12  N1  UNL     1     -19.286  -8.025   5.208  1.00  0.00    -0.361 N
ATOM     13  H1  UNL     1     -19.806  -7.396   4.595  1.00  0.00     0.162 HD
HETATM   14  C13 UNL     1     -19.289  -9.422   4.822  1.00  0.00     0.123 C
HETATM   15  C14 UNL     1     -18.084  -9.703   3.988  1.00  0.00     0.024 C
ENDROOT
BRANCH   1  16
HETATM   16  C2  UNL     1     -17.406 -11.328   2.271  1.00  0.00     0.014 C
HETATM   17  C1  UNL     1     -16.203 -10.593   1.781  1.00  0.00     0.012 C
BRANCH  16  18
HETATM   18  C15 UNL     1     -18.562 -11.307   1.349  1.00  0.00     0.173 A
HETATM   19  C16 UNL     1     -19.673 -12.126   1.838  1.00  0.00     0.237 A
HETATM   20  O2  UNL     1     -19.620 -13.308   2.215  1.00  0.00    -0.272 OA
HETATM   21  N2  UNL     1     -20.834 -11.324   1.806  1.00  0.00    -0.347 N
HETATM   22  C17 UNL     1     -20.499 -10.060   1.209  1.00  0.00     0.233 A
ATOM     23  H2  UNL     1     -21.755 -11.596   2.149  1.00  0.00     0.163 HD
HETATM   24  N3  UNL     1     -19.079 -10.051   0.931  1.00  0.00    -0.166 NA
BRANCH  24  25
HETATM   25  S1  UNL     1     -18.851  -9.748  -0.770  1.00  0.00     0.303 S
HETATM   26  O3  UNL     1     -17.897 -10.703  -1.401  1.00  0.00    -0.194 OA
HETATM   27  O4  UNL     1     -18.434  -8.316  -0.932  1.00  0.00    -0.194 OA
HETATM   28 CL1  UNL     1     -20.664 -10.003  -1.774  1.00  0.00     0.035 Cl
ENDBRANCH  24  25
ENDBRANCH  16  18
ENDBRANCH   1  16
TORSDOF 3
ENDMDL