MODEL 5
REMARK VINA RESULT: -8.586328438      2.817      5.333
REMARK  3 active torsions:
REMARK  status: ('A' for Active; 'I' for Inactive)
REMARK    1  A    between atoms: C7_7  and  C8_8
REMARK       I    between atoms: C8_8  and  N1_10
REMARK    2  A    between atoms: C14_18  and  C15_19
REMARK       I    between atoms: C15_19  and  N3_21
REMARK    3  A    between atoms: N3_21  and  C16_23
ROOT
HETATM    1  C8  UNL     1     -15.852  -8.741   7.519  1.00  0.00     0.226 C
HETATM    2  O1  UNL     1     -15.445  -7.673   8.048  1.00  0.00    -0.273 OA
HETATM    3  N1  UNL     1     -14.995  -9.865   7.556  1.00  0.00    -0.333 N
HETATM    4  C9  UNL     1     -15.342 -11.174   6.979  1.00  0.00     0.147 C
HETATM    5  C10 UNL     1     -13.987 -11.792   6.689  1.00  0.00     0.103 C
HETATM    6 CL1  UNL     1     -13.427 -11.150   5.144  1.00  0.00    -0.123 Cl
HETATM    7  C11 UNL     1     -13.185 -11.298   7.853  1.00  0.00     0.062 C
HETATM    8  C12 UNL     1     -13.678  -9.932   8.136  1.00  0.00     0.196 C
HETATM    9  C13 UNL     1     -12.853  -8.924   7.465  1.00  0.00     0.085 C
HETATM   10  N2  UNL     1     -12.194  -8.143   6.927  1.00  0.00    -0.195 NA
ENDROOT
BRANCH   1  11
HETATM   11  C7  UNL     1     -17.155  -8.831   6.888  1.00  0.00     0.096 C
HETATM   12  C6  UNL     1     -18.331  -8.636   7.778  1.00  0.00     0.004 C
HETATM   13  C2  UNL     1     -19.418  -8.455   6.705  1.00  0.00    -0.009 C
HETATM   14  C5  UNL     1     -18.268  -7.236   8.335  1.00  0.00     0.006 C
HETATM   15  C1  UNL     1     -20.743  -8.143   7.288  1.00  0.00     0.011 C
HETATM   16  C3  UNL     1     -18.755  -7.240   6.042  1.00  0.00     0.003 C
HETATM   17  C4  UNL     1     -18.651  -6.305   7.203  1.00  0.00     0.006 C
HETATM   18  C14 UNL     1     -17.378  -7.810   5.795  1.00  0.00     0.095 C
BRANCH  18  19
HETATM   19  C15 UNL     1     -17.230  -8.375   4.449  1.00  0.00     0.223 C
HETATM   20  O2  UNL     1     -16.218  -9.084   4.214  1.00  0.00    -0.273 OA
HETATM   21  N3  UNL     1     -18.150  -8.173   3.396  1.00  0.00    -0.356 N
ATOM     22  H3  UNL     1     -18.972  -7.599   3.581  1.00  0.00     0.162 HD
BRANCH  21  23
HETATM   23  C16 UNL     1     -17.998  -8.732   2.074  1.00  0.00     0.088 C
HETATM   24  C17 UNL     1     -18.704 -10.063   1.936  1.00  0.00     0.058 C
HETATM   25  C18 UNL     1     -18.757 -10.379   0.452  1.00  0.00     0.190 C
HETATM   26  C19 UNL     1     -19.750  -9.448  -0.180  1.00  0.00     0.066 C
HETATM   27  N4  UNL     1     -17.680  -9.682  -0.262  1.00  0.00    -0.066 N
HETATM   28  C20 UNL     1     -18.560  -8.526  -0.314  1.00  0.00     0.190 C
HETATM   29  C21 UNL     1     -18.380  -7.766   0.988  1.00  0.00     0.058 C
ATOM     30  H42 UNL     1     -16.741  -9.615   0.132  1.00  0.00     0.278 HD
ATOM     31  H41 UNL     1     -17.268 -10.072  -1.109  1.00  0.00     0.278 HD
ENDBRANCH  21  23
ENDBRANCH  18  19
ENDBRANCH   1  11
TORSDOF 3
ENDMDL