MODEL 2
REMARK VINA RESULT: -9.606467978      2.972      5.163
REMARK  5 active torsions:
REMARK  status: ('A' for Active; 'I' for Inactive)
REMARK    1  A    between atoms: C8_8  and  C9_9
REMARK       I    between atoms: C9_9  and  N1_11
REMARK    2  A    between atoms: N1_11  and  C10_13
REMARK    3  A    between atoms: N3_16  and  C11_17
REMARK    4  A    between atoms: C11_17  and  C12_18
REMARK    5  A    between atoms: C18_25  and  C19_26
ROOT
HETATM    1  C10 UNL     1     -15.587 -11.237   4.578  1.00  0.00     0.163 A
HETATM    2  N2  UNL     1     -16.628 -10.424   4.379  1.00  0.00    -0.281 N
ATOM      3  H2  UNL     1     -16.722  -9.491   4.778  1.00  0.00     0.189 HD
HETATM    4  N3  UNL     1     -17.508 -10.995   3.600  1.00  0.00    -0.298 N
HETATM    5  C20 UNL     1     -17.047 -12.206   3.276  1.00  0.00     0.156 A
HETATM    6  C21 UNL     1     -15.827 -12.383   3.885  1.00  0.00     0.178 A
HETATM    7  F1  UNL     1     -15.046 -13.510   3.783  1.00  0.00    -0.201 F
ENDROOT
BRANCH   1   8
HETATM    8  N1  UNL     1     -14.517 -11.051   5.278  1.00  0.00    -0.309 N
HETATM    9  C9  UNL     1     -14.486 -11.507   6.624  1.00  0.00     0.228 C
HETATM   10  O1  UNL     1     -14.691 -12.734   6.809  1.00  0.00    -0.273 OA
ATOM     11  H1  UNL     1     -13.708 -10.583   4.871  1.00  0.00     0.170 HD
BRANCH   9  12
HETATM   12  C8  UNL     1     -14.230 -10.619   7.757  1.00  0.00     0.087 C
HETATM   13  C4  UNL     1     -12.843 -10.023   7.730  1.00  0.00    -0.025 A
HETATM   14  C2  UNL     1     -11.677 -10.847   7.331  1.00  0.00    -0.009 A
HETATM   15  C3  UNL     1     -11.870 -10.459   8.774  1.00  0.00     0.015 A
HETATM   16  C5  UNL     1     -12.968  -8.587   7.346  1.00  0.00     0.011 C
HETATM   17  C1  UNL     1     -10.546 -10.148   6.626  1.00  0.00     0.011 C
HETATM   18  C6  UNL     1     -14.416  -8.381   7.048  1.00  0.00     0.002 C
HETATM   19  C7  UNL     1     -15.159  -9.429   7.809  1.00  0.00     0.015 C
ENDBRANCH   9  12
ENDBRANCH   1   8
BRANCH   4  20
HETATM   20  C11 UNL     1     -18.768 -10.465   3.131  1.00  0.00     0.160 C
BRANCH  20  21
HETATM   21  C12 UNL     1     -18.779 -10.121   1.682  1.00  0.00     0.012 C
HETATM   22  C13 UNL     1     -20.120 -10.614   1.113  1.00  0.00     0.020 C
HETATM   23  C14 UNL     1     -17.691 -10.689   0.851  1.00  0.00     0.180 C
HETATM   24  O2  UNL     1     -16.832  -9.651   0.464  1.00  0.00    -0.378 OA
HETATM   25  C15 UNL     1     -17.750  -8.622   0.214  1.00  0.00     0.075 A
HETATM   26  C16 UNL     1     -17.375  -7.375  -0.451  1.00  0.00     0.042 A
HETATM   27  C17 UNL     1     -18.276  -8.385  -1.155  1.00  0.00     0.042 A
HETATM   28  C18 UNL     1     -18.710  -8.660   1.390  1.00  0.00     0.133 C
BRANCH  28  29
HETATM   29  C19 UNL     1     -18.202  -7.804   2.458  1.00  0.00     0.180 C
HETATM   30  O3  UNL     1     -18.948  -7.029   3.133  1.00  0.00    -0.648 OA
HETATM   31  O4  UNL     1     -16.859  -7.794   2.793  1.00  0.00    -0.648 OA
ENDBRANCH  28  29
ENDBRANCH  20  21
ENDBRANCH   4  20
TORSDOF 5
ENDMDL