MODEL 5
REMARK VINA RESULT: -9.037332528      3.315      7.002
REMARK  5 active torsions:
REMARK  status: ('A' for Active; 'I' for Inactive)
REMARK    1  A    between atoms: C2_2  and  C4_5
REMARK       I    between atoms: C4_5  and  N1_7
REMARK    2  A    between atoms: C5_9  and  N2_10
REMARK    3  A    between atoms: C5_9  and  C16_22
REMARK    4  A    between atoms: N2_10  and  C6_12
REMARK       I    between atoms: C16_22  and  N3_24
REMARK    5  A    between atoms: N3_24  and  N4_26
ROOT
HETATM    1  C4  UNL     1     -15.590 -12.438   5.742  1.00  0.00     0.253 C
HETATM    2  O1  UNL     1     -15.262 -13.624   6.146  1.00  0.00    -0.268 OA
HETATM    3  N1  UNL     1     -15.817 -11.421   6.651  1.00  0.00    -0.305 N
ATOM      4  H1  UNL     1     -16.803 -11.339   6.895  1.00  0.00     0.171 HD
HETATM    5  C5  UNL     1     -15.112 -10.579   7.247  1.00  0.00     0.175 C
ENDROOT
BRANCH   5   6
HETATM    6  N2  UNL     1     -15.863  -9.695   8.138  1.00  0.00    -0.362 N
ATOM      7  H2  UNL     1     -15.635  -9.723   9.132  1.00  0.00     0.162 HD
BRANCH   6   8
HETATM    8  C6  UNL     1     -16.885  -8.803   7.723  1.00  0.00     0.033 C
HETATM    9  C7  UNL     1     -17.310  -9.246   6.327  1.00  0.00     0.035 C
HETATM   10  C8  UNL     1     -18.413  -8.426   5.750  1.00  0.00    -0.012 C
HETATM   11  C9  UNL     1     -17.908  -6.992   5.619  1.00  0.00     0.009 C
HETATM   12  C13 UNL     1     -19.620  -8.443   6.643  1.00  0.00     0.009 C
HETATM   13  C10 UNL     1     -17.505  -6.521   6.998  1.00  0.00    -0.012 C
HETATM   14  C11 UNL     1     -18.734  -6.516   7.886  1.00  0.00     0.009 C
HETATM   15  C15 UNL     1     -16.407  -7.366   7.558  1.00  0.00     0.035 C
HETATM   16  C12 UNL     1     -19.185  -7.949   8.017  1.00  0.00    -0.012 C
HETATM   17  C14 UNL     1     -18.107  -8.838   8.584  1.00  0.00     0.035 C
ENDBRANCH   6   8
ENDBRANCH   5   6
BRANCH   5  18
HETATM   18  C16 UNL     1     -13.701 -10.334   7.219  1.00  0.00     0.304 C
HETATM   19  O2  UNL     1     -13.294  -9.176   6.861  1.00  0.00    -0.263 OA
HETATM   20  N3  UNL     1     -12.692 -11.264   7.554  1.00  0.00    -0.258 N
ATOM     21  H3  UNL     1     -12.974 -12.200   7.845  1.00  0.00     0.191 HD
BRANCH  20  22
HETATM   22  N4  UNL     1     -11.351 -10.970   7.507  1.00  0.00    -0.279 N
HETATM   23  C17 UNL     1     -10.626 -10.874   8.692  1.00  0.00     0.114 C
HETATM   24  C18 UNL     1      -9.144 -10.870   8.578  1.00  0.00     0.214 C
HETATM   25  O3  UNL     1      -8.665 -10.819   7.283  1.00  0.00    -0.381 OA
HETATM   26  C19 UNL     1      -9.425 -10.009   6.455  1.00  0.00     0.214 C
HETATM   27  C20 UNL     1     -10.769 -10.667   6.269  1.00  0.00     0.114 C
ENDBRANCH  20  22
ENDBRANCH   5  18
BRANCH   1  28
HETATM   28  C2  UNL     1     -15.692 -12.291   4.317  1.00  0.00     0.017 C
HETATM   29  C1  UNL     1     -15.125 -11.094   3.659  1.00  0.00     0.055 C
HETATM   30  C3  UNL     1     -16.279 -13.204   3.558  1.00  0.00     0.096 C
HETATM   31 CL1  UNL     1     -16.411 -13.050   1.822  1.00  0.00    -0.096 Cl
ENDBRANCH   1  28
TORSDOF 5
ENDMDL