MODEL 4
REMARK VINA RESULT: -7.159471379      2.588      3.388
REMARK  3 active torsions:
REMARK  status: ('A' for Active; 'I' for Inactive)
REMARK    1  A    between atoms: C2_3  and  C3_4
REMARK    2  A    between atoms: C2_3  and  C14_19
REMARK       I    between atoms: C3_4  and  N2_6
REMARK    3  A    between atoms: N2_6  and  C4_8
ROOT
HETATM    1  N1  UNL     1     -23.461  -4.401  22.681  1.00  0.00    -0.196 NA
HETATM    2  C1  UNL     1     -24.014  -4.622  21.693  1.00  0.00     0.080 C
HETATM    3  C2  UNL     1     -24.739  -4.888  20.423  1.00  0.00     0.242 C
ENDROOT
BRANCH   3   4
HETATM    4  C3  UNL     1     -24.478  -3.806  19.445  1.00  0.00     0.242 C
HETATM    5  O1  UNL     1     -23.778  -2.842  19.855  1.00  0.00    -0.272 OA
HETATM    6  N2  UNL     1     -24.995  -3.880  18.147  1.00  0.00    -0.353 N
ATOM      7  H2  UNL     1     -25.549  -4.704  17.913  1.00  0.00     0.163 HD
BRANCH   6   8
HETATM    8  C4  UNL     1     -24.813  -2.894  17.110  1.00  0.00     0.103 C
HETATM    9  C5  UNL     1     -24.801  -3.609  15.799  1.00  0.00     0.085 C
HETATM   10 BR1  UNL     1     -23.012  -3.895  15.127  1.00  0.00    -0.089 Br
HETATM   11  C6  UNL     1     -25.644  -2.887  14.762  1.00  0.00     0.003 C
HETATM   12  C7  UNL     1     -25.090  -1.563  14.426  1.00  0.00     0.010 C
HETATM   13  C11 UNL     1     -27.031  -2.853  15.373  1.00  0.00     0.011 C
HETATM   14  C8  UNL     1     -25.529  -0.419  15.264  1.00  0.00    -0.013 C
HETATM   15  C9  UNL     1     -27.008  -0.477  15.630  1.00  0.00     0.010 C
HETATM   16  C13 UNL     1     -24.955  -0.500  16.687  1.00  0.00     0.011 C
HETATM   17  C10 UNL     1     -26.984  -1.787  16.438  1.00  0.00    -0.008 C
HETATM   18  C12 UNL     1     -25.710  -1.723  17.192  1.00  0.00     0.014 C
ENDBRANCH   6   8
ENDBRANCH   3   4
BRANCH   3  19
HETATM   19  C14 UNL     1     -26.179  -5.100  20.705  1.00  0.00     0.117 C
HETATM   20  N3  UNL     1     -27.223  -4.488  19.981  1.00  0.00    -0.092 NA
HETATM   21  S1  UNL     1     -26.593  -6.090  21.914  1.00  0.00    -0.067 SA
ENDBRANCH   3  19
TORSDOF 3
ENDMDL