MODEL 4
REMARK VINA RESULT: -7.831505030      2.180      4.171
REMARK  3 active torsions:
REMARK  status: ('A' for Active; 'I' for Inactive)
REMARK    1  A    between atoms: C13_15  and  N3_16
REMARK       I    between atoms: N3_16  and  C14_18
REMARK       I    between atoms: C14_18  and  N4_20
REMARK    2  A    between atoms: N4_20  and  C15_22
REMARK    3  A    between atoms: C15_22  and  C16_23
ROOT
HETATM    1  C1  UNL     1     -22.881  -3.639  14.764  1.00  0.00     0.309 C
HETATM    2  N1  UNL     1     -23.359  -4.178  16.018  1.00  0.00     0.085 N
HETATM    3  C2  UNL     1     -24.805  -4.199  15.973  1.00  0.00     0.273 C
HETATM    4  C3  UNL     1     -25.096  -4.331  17.476  1.00  0.00     0.044 C
HETATM    5  C4  UNL     1     -24.203  -3.301  18.071  1.00  0.00     0.019 C
HETATM    6  C5  UNL     1     -23.040  -3.265  17.131  1.00  0.00     0.284 C
HETATM    7  C6  UNL     1     -25.022  -1.998  17.952  1.00  0.00     0.001 C
HETATM    8  C7  UNL     1     -24.249  -0.757  17.973  1.00  0.00     0.010 C
HETATM    9  C8  UNL     1     -24.730   0.279  18.971  1.00  0.00     0.044 C
HETATM   10  C9  UNL     1     -24.586  -0.077  20.396  1.00  0.00     0.058 C
HETATM   11  N2  UNL     1     -24.412  -1.370  20.797  1.00  0.00    -0.386 N
HETATM   12  C10 UNL     1     -23.499  -1.701  21.822  1.00  0.00     0.122 C
HETATM   13  C11 UNL     1     -22.304  -2.337  21.199  1.00  0.00     0.022 C
HETATM   14  C12 UNL     1     -22.495  -3.007  19.893  1.00  0.00     0.035 C
HETATM   15  C13 UNL     1     -23.894  -3.412  19.520  1.00  0.00     0.065 C
HETATM   16  C17 UNL     1     -24.932  -2.491  20.194  1.00  0.00     0.113 C
HETATM   17  C18 UNL     1     -25.918  -2.127  19.136  1.00  0.00     0.033 C
ENDROOT
BRANCH  15  18
HETATM   18  N3  UNL     1     -24.133  -4.757  19.972  1.00  0.00    -0.331 N
HETATM   19  C14 UNL     1     -24.577  -5.218  21.221  1.00  0.00     0.316 C
HETATM   20  O1  UNL     1     -24.874  -4.525  22.223  1.00  0.00    -0.247 OA
HETATM   21  N4  UNL     1     -24.711  -6.623  21.389  1.00  0.00    -0.342 N
ATOM     22  H4  UNL     1     -24.489  -7.258  20.622  1.00  0.00     0.164 HD
ATOM     23  H3  UNL     1     -23.951  -5.485  19.281  1.00  0.00     0.165 HD
BRANCH  21  24
HETATM   24  C15 UNL     1     -25.164  -7.139  22.655  1.00  0.00     0.139 C
BRANCH  24  25
HETATM   25  C16 UNL     1     -26.580  -7.672  22.571  1.00  0.00     0.134 C
HETATM   26 CL1  UNL     1     -26.785  -9.042  23.684  1.00  0.00    -0.129 Cl
ENDBRANCH  24  25
ENDBRANCH  21  24
ENDBRANCH  15  18
TORSDOF 3
ENDMDL