MODEL 1
REMARK VINA RESULT: -8.343838148      0.000      0.000
REMARK  6 active torsions:
REMARK  status: ('A' for Active; 'I' for Inactive)
REMARK       I    between atoms: N1_5  and  C4_6
REMARK    1  A    between atoms: C4_6  and  C5_8
REMARK    2  A    between atoms: C10_13  and  N2_14
REMARK    3  A    between atoms: N2_14  and  C11_16
REMARK    4  A    between atoms: C11_16  and  O2_17
REMARK    5  A    between atoms: C11_16  and  N3_19
REMARK    6  A    between atoms: C16_24  and  C17_25
ROOT
HETATM    1  N2  UNL     1     -23.148  -3.918  18.924  1.00  0.00    -0.348 N
ATOM      2  H2  UNL     1     -22.265  -4.079  18.441  1.00  0.00     0.163 HD
ENDROOT
BRANCH   1   3
HETATM    3  C10 UNL     1     -24.363  -3.836  18.133  1.00  0.00     0.127 C
HETATM    4  C2  UNL     1     -24.136  -3.492  16.705  1.00  0.00     0.136 C
HETATM    5  C1  UNL     1     -22.805  -3.946  16.219  1.00  0.00     0.055 C
HETATM    6  F1  UNL     1     -25.102  -4.145  15.941  1.00  0.00    -0.239 F
HETATM    7  C3  UNL     1     -24.233  -1.985  16.486  1.00  0.00     0.171 C
HETATM    8  N1  UNL     1     -25.615  -1.618  16.690  1.00  0.00    -0.349 N
HETATM    9  C4  UNL     1     -26.271  -0.615  15.938  1.00  0.00     0.224 C
HETATM   10  C8  UNL     1     -26.327  -2.346  17.746  1.00  0.00     0.128 C
HETATM   11  O1  UNL     1     -27.490  -0.373  16.178  1.00  0.00    -0.273 OA
HETATM   12  C9  UNL     1     -25.388  -2.921  18.781  1.00  0.00     0.048 C
BRANCH   9  13
HETATM   13  C5  UNL     1     -25.566   0.144  14.891  1.00  0.00     0.078 A
HETATM   14  C6  UNL     1     -25.801  -0.320  13.442  1.00  0.00     0.015 A
HETATM   15  C7  UNL     1     -26.319   0.972  13.912  1.00  0.00     0.015 A
ENDBRANCH   9  13
ENDBRANCH   1   3
BRANCH   1  16
HETATM   16  C11 UNL     1     -23.131  -3.787  20.312  1.00  0.00     0.216 C
BRANCH  16  17
HETATM   17  O2  UNL     1     -23.544  -4.849  20.941  1.00  0.00    -0.333 OA
ATOM     18  H2  UNL     1     -23.186  -4.937  21.816  1.00  0.00     0.220 HD
ENDBRANCH  16  17
BRANCH  16  19
HETATM   19  N3  UNL     1     -22.760  -2.729  21.130  1.00  0.00    -0.333 N
HETATM   20  C12 UNL     1     -22.053  -3.078  22.408  1.00  0.00     0.127 C
HETATM   21  C13 UNL     1     -22.628  -2.152  23.476  1.00  0.00     0.020 C
HETATM   22  C14 UNL     1     -24.020  -1.672  23.150  1.00  0.00     0.004 C
HETATM   23  C15 UNL     1     -24.183  -0.990  21.825  1.00  0.00     0.036 C
HETATM   24  C16 UNL     1     -22.955  -1.318  21.009  1.00  0.00     0.188 C
BRANCH  24  25
HETATM   25  C17 UNL     1     -22.835  -0.693  19.711  1.00  0.00     0.196 C
HETATM   26  O3  UNL     1     -21.909  -1.031  18.922  1.00  0.00    -0.646 OA
HETATM   27  O4  UNL     1     -23.700   0.301  19.238  1.00  0.00    -0.646 OA
ENDBRANCH  24  25
ENDBRANCH  16  19
ENDBRANCH   1  16
TORSDOF 6
ENDMDL