MODEL 2
REMARK VINA RESULT: -7.925310632      1.239      1.390
REMARK  6 active torsions:
REMARK  status: ('A' for Active; 'I' for Inactive)
REMARK    1  A    between atoms: C2_2  and  C3_3
REMARK    2  A    between atoms: C3_3  and  N1_4
REMARK    3  A    between atoms: N3_15  and  N4_17
REMARK    4  A    between atoms: N4_17  and  C12_19
REMARK    5  A    between atoms: C12_19  and  N5_21
REMARK    6  A    between atoms: N5_21  and  C13_23
ROOT
HETATM    1  C1  UNL     1     -22.650  -1.384  20.545  1.00  0.00     0.066 C
HETATM    2  C2  UNL     1     -23.317  -2.723  20.318  1.00  0.00     0.028 C
HETATM    3  N3  UNL     1     -22.872  -3.677  21.030  1.00  0.00    -0.305 N
ATOM      4  H3  UNL     1     -22.116  -3.433  21.671  1.00  0.00     0.186 HD
ENDROOT
BRANCH   2   5
HETATM    5  C3  UNL     1     -24.353  -2.794  19.292  1.00  0.00     0.328 C
BRANCH   5   6
HETATM    6  N1  UNL     1     -24.009  -3.455  18.068  1.00  0.00     0.115 N
HETATM    7  C4  UNL     1     -23.327  -2.461  17.252  1.00  0.00     0.302 C
HETATM    8  C5  UNL     1     -23.799  -2.361  15.852  1.00  0.00     0.268 C
HETATM    9  N2  UNL     1     -25.220  -2.153  15.721  1.00  0.00    -0.062 N
HETATM   10  C6  UNL     1     -25.629  -2.745  14.462  1.00  0.00     0.237 C
HETATM   11  C9  UNL     1     -25.583  -0.754  15.684  1.00  0.00     0.237 C
HETATM   12  C10 UNL     1     -25.969  -2.805  16.775  1.00  0.00     0.289 C
HETATM   13  C7  UNL     1     -25.685  -1.620  13.447  1.00  0.00     0.029 C
HETATM   14  C8  UNL     1     -25.781  -0.349  14.263  1.00  0.00     0.029 C
HETATM   15  C11 UNL     1     -25.159  -3.942  17.319  1.00  0.00     0.344 C
HETATM   16 CL1  UNL     1     -26.224  -4.978  18.244  1.00  0.00    -0.090 Cl
ENDBRANCH   5   6
ENDBRANCH   2   5
BRANCH   3  17
HETATM   17  N4  UNL     1     -23.273  -5.000  21.054  1.00  0.00    -0.276 N
ATOM     18  H4  UNL     1     -23.247  -5.557  20.200  1.00  0.00     0.189 HD
BRANCH  17  19
HETATM   19  C12 UNL     1     -23.721  -5.582  22.265  1.00  0.00     0.187 C
HETATM   20  S1  UNL     1     -24.186  -4.568  23.478  1.00  0.00    -0.040 SA
BRANCH  19  21
HETATM   21  N5  UNL     1     -23.771  -6.984  22.412  1.00  0.00    -0.358 N
ATOM     22  H5  UNL     1     -22.900  -7.449  22.667  1.00  0.00     0.162 HD
BRANCH  21  23
HETATM   23  C13 UNL     1     -24.918  -7.820  22.240  1.00  0.00     0.021 C
HETATM   24  C14 UNL     1     -25.977  -7.261  21.329  1.00  0.00     0.037 C
HETATM   25  C15 UNL     1     -25.572  -8.103  23.585  1.00  0.00     0.037 C
HETATM   26  C16 UNL     1     -24.461  -9.141  21.620  1.00  0.00     0.037 C
ENDBRANCH  21  23
ENDBRANCH  19  21
ENDBRANCH  17  19
ENDBRANCH   3  17
TORSDOF 6
ENDMDL