MODEL 5
REMARK VINA RESULT: -6.371764347      2.675      4.949
REMARK  4 active torsions:
REMARK  status: ('A' for Active; 'I' for Inactive)
REMARK    1  A    between atoms: C2_2  and  C3_3
REMARK    2  A    between atoms: C3_3  and  S1_4
REMARK    3  A    between atoms: S1_4  and  N1_5
REMARK    4  A    between atoms: C7_13  and  C9_15
ROOT
HETATM    1  C1  UNL     1     -26.155  -4.900  19.067  1.00  0.00     0.018 C
HETATM    2  C2  UNL     1     -25.533  -3.508  18.709  1.00  0.00    -0.006 C
HETATM    3  C4  UNL     1     -24.418  -3.796  17.797  1.00  0.00     0.035 C
HETATM    4  C5  UNL     1     -24.111  -2.802  16.725  1.00  0.00     0.059 C
HETATM    5  C6  UNL     1     -23.121  -1.748  17.067  1.00  0.00     0.031 C
HETATM    6 BR1  UNL     1     -23.147  -3.853  15.359  1.00  0.00    -0.083 Br
HETATM    7  C7  UNL     1     -25.379  -2.273  16.108  1.00  0.00     0.228 C
HETATM    8  C8  UNL     1     -26.026  -3.431  15.372  1.00  0.00     0.061 C
HETATM    9  N2  UNL     1     -26.351  -1.826  17.045  1.00  0.00    -0.054 N
HETATM   10  C10 UNL     1     -27.619  -1.681  16.291  1.00  0.00     0.273 C
HETATM   11  C11 UNL     1     -26.125  -0.573  17.671  1.00  0.00     0.273 C
HETATM   12  C12 UNL     1     -26.696  -2.799  18.036  1.00  0.00     0.248 C
ENDROOT
BRANCH   2  13
HETATM   13  C3  UNL     1     -25.242  -2.937  20.039  1.00  0.00     0.142 C
BRANCH  13  14
HETATM   14  S1  UNL     1     -23.734  -3.855  20.568  1.00  0.00     0.108 S
HETATM   15  O1  UNL     1     -23.190  -2.376  20.521  1.00  0.00    -0.236 OA
BRANCH  14  16
HETATM   16  N1  UNL     1     -23.362  -4.985  20.818  1.00  0.00    -0.350 N
ATOM     17  H12 UNL     1     -23.359  -5.922  20.414  1.00  0.00     0.166 HD
ATOM     18  H11 UNL     1     -22.883  -5.513  21.547  1.00  0.00     0.166 HD
ENDBRANCH  14  16
ENDBRANCH  13  14
ENDBRANCH   2  13
BRANCH   7  19
HETATM   19  C9  UNL     1     -24.998  -1.304  15.085  1.00  0.00     0.212 C
HETATM   20  O2  UNL     1     -24.610  -0.127  15.225  1.00  0.00    -0.646 OA
HETATM   21  O3  UNL     1     -25.067  -1.721  13.754  1.00  0.00    -0.646 OA
ENDBRANCH   7  19
TORSDOF 4
ENDMDL