MODEL 3
REMARK VINA RESULT: -8.685939190      2.616      8.116
REMARK  4 active torsions:
REMARK  status: ('A' for Active; 'I' for Inactive)
REMARK       I    between atoms: N1_2  and  C2_4
REMARK       I    between atoms: C2_4  and  N2_6
REMARK    1  A    between atoms: C6_10  and  C8_12
REMARK    2  A    between atoms: C8_12  and  N3_15
REMARK       I    between atoms: N3_15  and  C10_17
REMARK    3  A    between atoms: C10_17  and  C11_19
REMARK    4  A    between atoms: C11_19  and  N4_20
ROOT
HETATM    1  C8  UNL     1     -23.171  -2.330  19.927  1.00  0.00     0.183 C
HETATM    2  C9  UNL     1     -22.966  -0.832  19.838  1.00  0.00     0.077 C
HETATM    3  F1  UNL     1     -21.951  -2.989  19.742  1.00  0.00    -0.219 F
ENDROOT
BRANCH   1   4
HETATM    4  C6  UNL     1     -23.614  -2.646  21.328  1.00  0.00     0.027 C
HETATM    5  C5  UNL     1     -22.430  -3.198  22.093  1.00  0.00     0.017 C
HETATM    6  C4  UNL     1     -22.792  -3.437  23.527  1.00  0.00     0.021 C
HETATM    7  C3  UNL     1     -24.224  -3.899  23.706  1.00  0.00     0.127 C
HETATM    8  N2  UNL     1     -24.694  -4.536  22.493  1.00  0.00    -0.333 N
HETATM    9  C2  UNL     1     -25.112  -5.873  22.417  1.00  0.00     0.317 C
HETATM   10  C18 UNL     1     -24.713  -3.678  21.305  1.00  0.00     0.141 C
HETATM   11  N1  UNL     1     -25.136  -6.778  23.490  1.00  0.00    -0.347 N
HETATM   12  O1  UNL     1     -25.499  -6.304  21.296  1.00  0.00    -0.247 OA
HETATM   13  C1  UNL     1     -25.586  -8.157  23.327  1.00  0.00     0.151 C
ATOM     14  H1  UNL     1     -24.829  -6.463  24.410  1.00  0.00     0.163 HD
HETATM   15  C7  UNL     1     -24.057  -1.362  21.988  1.00  0.00     0.022 C
ENDBRANCH   1   4
BRANCH   1  16
HETATM   16  N3  UNL     1     -24.101  -2.771  18.930  1.00  0.00    -0.320 N
HETATM   17  C10 UNL     1     -23.640  -3.566  17.850  1.00  0.00     0.259 C
HETATM   18  O2  UNL     1     -22.430  -3.866  17.792  1.00  0.00    -0.267 OA
ATOM     19  H3  UNL     1     -25.086  -2.514  18.996  1.00  0.00     0.166 HD
BRANCH  17  20
HETATM   20  C11 UNL     1     -24.580  -4.052  16.782  1.00  0.00     0.169 C
BRANCH  20  21
HETATM   21  N4  UNL     1     -24.996  -3.073  15.890  1.00  0.00    -0.345 N
HETATM   22  C12 UNL     1     -24.158  -2.008  15.522  1.00  0.00     0.068 C
HETATM   23  C13 UNL     1     -24.927  -0.722  15.454  1.00  0.00     0.045 C
HETATM   24  C14 UNL     1     -25.802  -0.547  14.279  1.00  0.00     0.005 C
HETATM   25  C15 UNL     1     -26.011  -1.752  13.420  1.00  0.00     0.005 C
HETATM   26  C16 UNL     1     -26.596  -2.926  14.147  1.00  0.00     0.045 C
HETATM   27  C17 UNL     1     -26.352  -2.870  15.639  1.00  0.00     0.068 C
ENDBRANCH  20  21
ENDBRANCH  17  20
ENDBRANCH   1  16
TORSDOF 4
ENDMDL