MODEL 4
REMARK VINA RESULT: -9.580635375      5.261      8.111
REMARK  4 active torsions:
REMARK  status: ('A' for Active; 'I' for Inactive)
REMARK    1  A    between atoms: C1_2  and  C2_3
REMARK       I    between atoms: C1_2  and  N2_19
REMARK    2  A    between atoms: C2_3  and  N1_4
REMARK       I    between atoms: N1_4  and  C3_6
REMARK    3  A    between atoms: C3_6  and  C4_8
REMARK    4  A    between atoms: C17_23  and  O3_24
ROOT
HETATM    1  N1  UNL     1     -23.609  -2.567  18.345  1.00  0.00    -0.352 N
ATOM      2  H1  UNL     1     -24.209  -1.860  18.770  1.00  0.00     0.162 HD
HETATM    3  C3  UNL     1     -23.807  -2.897  16.994  1.00  0.00     0.227 C
HETATM    4  O2  UNL     1     -23.051  -3.785  16.473  1.00  0.00    -0.273 OA
ENDROOT
BRANCH   1   5
HETATM    5  C2  UNL     1     -22.583  -3.196  19.161  1.00  0.00     0.225 C
BRANCH   5   6
HETATM    6  C1  UNL     1     -22.582  -2.652  20.544  1.00  0.00     0.238 C
HETATM    7  O1  UNL     1     -21.980  -1.552  20.725  1.00  0.00    -0.272 OA
HETATM    8  N2  UNL     1     -23.220  -3.341  21.567  1.00  0.00    -0.341 N
HETATM    9  C14 UNL     1     -23.886  -4.612  21.229  1.00  0.00     0.206 C
HETATM   10  C19 UNL     1     -23.180  -2.760  22.888  1.00  0.00     0.129 C
HETATM   11  C15 UNL     1     -24.660  -5.019  22.360  1.00  0.00    -0.161 C
HETATM   12  C16 UNL     1     -25.298  -5.142  23.604  1.00  0.00     0.113 C
HETATM   13  C17 UNL     1     -24.867  -3.928  24.494  1.00  0.00     0.130 C
HETATM   14  C18 UNL     1     -24.385  -2.753  23.720  1.00  0.00     0.052 C
BRANCH  13  15
HETATM   15  O3  UNL     1     -26.007  -3.520  25.185  1.00  0.00    -0.395 OA
ATOM     16  H3  UNL     1     -26.748  -3.916  24.741  1.00  0.00     0.210 HD
ENDBRANCH  13  15
ENDBRANCH   5   6
ENDBRANCH   1   5
BRANCH   3  17
HETATM   17  C4  UNL     1     -24.858  -2.230  16.219  1.00  0.00     0.044 C
HETATM   18  C5  UNL     1     -26.130  -3.038  16.370  1.00  0.00     0.024 C
HETATM   19  C6  UNL     1     -27.202  -2.443  15.490  1.00  0.00    -0.010 C
HETATM   20  C7  UNL     1     -27.453  -1.025  15.925  1.00  0.00     0.009 C
HETATM   21  C11 UNL     1     -26.771  -2.491  14.038  1.00  0.00     0.048 C
HETATM   22  C8  UNL     1     -26.187  -0.244  15.752  1.00  0.00    -0.010 C
HETATM   23  C9  UNL     1     -25.753  -0.228  14.320  1.00  0.00     0.048 C
HETATM   24  C13 UNL     1     -25.126  -0.823  16.648  1.00  0.00     0.024 C
HETATM   25  C10 UNL     1     -25.534  -1.654  13.878  1.00  0.00     0.105 C
HETATM   26  F1  UNL     1     -25.094  -1.706  12.577  1.00  0.00    -0.243 F
HETATM   27  C12 UNL     1     -24.447  -2.255  14.748  1.00  0.00     0.062 C
ENDBRANCH   3  17
TORSDOF 4
ENDMDL