MODEL 3
REMARK VINA RESULT: -8.498845810      0.634      1.480
REMARK  6 active torsions:
REMARK  status: ('A' for Active; 'I' for Inactive)
REMARK    1  A    between atoms: N1_6  and  C6_7
REMARK    2  A    between atoms: C6_7  and  O1_8
REMARK    3  A    between atoms: C6_7  and  N2_10
REMARK    4  A    between atoms: N2_10  and  C7_11
REMARK    5  A    between atoms: C12_17  and  C13_18
REMARK    6  A    between atoms: C14_21  and  C15_22
ROOT
HETATM    1  C7  UNL     1     -25.698  -2.035  18.488  1.00  0.00     0.201 C
HETATM    2  C8  UNL     1     -26.028  -0.984  17.448  1.00  0.00     0.312 C
HETATM    3  N3  UNL     1     -26.787  -1.545  16.347  1.00  0.00     0.097 N
HETATM    4  C9  UNL     1     -27.727  -2.510  16.914  1.00  0.00     0.273 C
HETATM    5  C10 UNL     1     -26.961  -3.774  17.337  1.00  0.00     0.039 C
HETATM    6  C11 UNL     1     -25.546  -3.339  17.639  1.00  0.00     0.041 C
HETATM    7  C12 UNL     1     -24.900  -2.961  16.335  1.00  0.00     0.128 C
HETATM    8  C14 UNL     1     -25.940  -2.302  15.445  1.00  0.00     0.247 C
ENDROOT
BRANCH   1   9
HETATM    9  N2  UNL     1     -24.541  -1.800  19.236  1.00  0.00    -0.402 NA
BRANCH   9  10
HETATM   10  C6  UNL     1     -23.422  -1.573  19.960  1.00  0.00     0.291 C
BRANCH  10  11
HETATM   11  N1  UNL     1     -23.278  -1.932  21.349  1.00  0.00    -0.331 N
HETATM   12  C4  UNL     1     -23.833  -1.366  22.539  1.00  0.00     0.085 C
HETATM   13  C3  UNL     1     -24.011  -2.513  23.490  1.00  0.00     0.031 C
HETATM   14  C5  UNL     1     -22.995  -0.310  23.211  1.00  0.00     0.032 C
HETATM   15  C2  UNL     1     -23.325  -3.688  22.862  1.00  0.00     0.002 C
HETATM   16  C1  UNL     1     -22.532  -4.454  23.867  1.00  0.00     0.011 C
HETATM   17  C18 UNL     1     -22.446  -3.038  21.805  1.00  0.00     0.132 C
ENDBRANCH  10  11
BRANCH  10  18
HETATM   18  O1  UNL     1     -22.360  -1.007  19.468  1.00  0.00    -0.322 OA
ATOM     19  H1  UNL     1     -21.919  -1.543  18.818  1.00  0.00     0.222 HD
ENDBRANCH  10  18
ENDBRANCH   9  10
ENDBRANCH   1   9
BRANCH   7  20
HETATM   20  C13 UNL     1     -24.273  -4.161  15.671  1.00  0.00     0.179 C
HETATM   21  O2  UNL     1     -24.934  -5.113  15.211  1.00  0.00    -0.648 OA
HETATM   22  O3  UNL     1     -22.882  -4.223  15.556  1.00  0.00    -0.648 OA
ENDBRANCH   7  20
BRANCH   8  23
HETATM   23  C15 UNL     1     -25.306  -1.341  14.481  1.00  0.00     0.098 A
HETATM   24  C16 UNL     1     -25.963  -0.163  13.913  1.00  0.00     0.092 A
HETATM   25  C17 UNL     1     -25.836  -1.415  13.072  1.00  0.00     0.250 A
HETATM   26  F1  UNL     1     -27.002  -2.141  12.856  1.00  0.00    -0.206 F
HETATM   27  F2  UNL     1     -24.949  -1.369  12.014  1.00  0.00    -0.206 F
ENDBRANCH   8  23
TORSDOF 6
ENDMDL