MODEL 2
REMARK VINA RESULT: -8.624911015      5.774      9.577
REMARK  4 active torsions:
REMARK  status: ('A' for Active; 'I' for Inactive)
REMARK       I    between atoms: N1_2  and  C2_4
REMARK       I    between atoms: C2_4  and  N2_6
REMARK    1  A    between atoms: N3_9  and  C5_10
REMARK    2  A    between atoms: N4_13  and  C8_14
REMARK    3  A    between atoms: C13_19  and  C14_20
REMARK    4  A    between atoms: C14_20  and  O2_21
ROOT
HETATM    1  C5  UNL     1     -24.322  -3.957  19.094  1.00  0.00     0.082 C
HETATM    2  C6  UNL     1     -23.346  -3.147  18.273  1.00  0.00     0.044 C
HETATM    3  C7  UNL     1     -23.872  -3.194  16.851  1.00  0.00     0.119 C
HETATM    4  N4  UNL     1     -25.246  -2.875  16.719  1.00  0.00    -0.408 N
HETATM    5  C15 UNL     1     -26.169  -3.362  17.641  1.00  0.00     0.119 C
HETATM    6  C16 UNL     1     -25.626  -3.193  19.069  1.00  0.00     0.044 C
ENDROOT
BRANCH   1   7
HETATM    7  N3  UNL     1     -23.934  -4.218  20.420  1.00  0.00    -0.405 N
HETATM    8  C4  UNL     1     -23.168  -3.237  21.094  1.00  0.00     0.137 C
HETATM    9  C3  UNL     1     -23.847  -2.604  22.285  1.00  0.00     0.147 C
HETATM   10  N2  UNL     1     -24.409  -3.627  23.104  1.00  0.00    -0.331 N
HETATM   11  C2  UNL     1     -25.029  -3.288  24.330  1.00  0.00     0.318 C
HETATM   12  C18 UNL     1     -24.326  -5.006  22.642  1.00  0.00     0.147 C
HETATM   13  N1  UNL     1     -25.091  -1.951  24.754  1.00  0.00    -0.347 N
HETATM   14  O1  UNL     1     -25.528  -4.186  25.051  1.00  0.00    -0.247 OA
HETATM   15  C1  UNL     1     -25.723  -1.595  26.007  1.00  0.00     0.151 C
ATOM     16  H1  UNL     1     -24.684  -1.220  24.170  1.00  0.00     0.163 HD
HETATM   17  C17 UNL     1     -24.794  -5.019  21.204  1.00  0.00     0.137 C
ENDBRANCH   1   7
BRANCH   4  18
HETATM   18  C8  UNL     1     -25.595  -2.679  15.372  1.00  0.00     0.085 C
HETATM   19  C9  UNL     1     -27.018  -3.073  15.003  1.00  0.00     0.025 C
HETATM   20  C10 UNL     1     -27.257  -3.046  13.528  1.00  0.00     0.002 C
HETATM   21  C11 UNL     1     -26.441  -2.124  12.723  1.00  0.00     0.001 C
HETATM   22  C12 UNL     1     -25.182  -1.595  13.282  1.00  0.00     0.009 C
HETATM   23  C13 UNL     1     -25.252  -1.341  14.784  1.00  0.00     0.032 C
BRANCH  23  24
HETATM   24  C14 UNL     1     -26.305  -0.288  14.958  1.00  0.00     0.170 C
BRANCH  24  25
HETATM   25  O2  UNL     1     -25.620   0.926  15.198  1.00  0.00    -0.400 OA
ATOM     26  H2  UNL     1     -25.466   1.320  14.348  1.00  0.00     0.209 HD
ENDBRANCH  24  25
ENDBRANCH  23  24
ENDBRANCH   4  18
TORSDOF 4
ENDMDL