MODEL 3
REMARK VINA RESULT: -7.940333253      3.456      7.815
REMARK  3 active torsions:
REMARK  status: ('A' for Active; 'I' for Inactive)
REMARK       I    between atoms: C2_2  and  N1_4
REMARK       I    between atoms: N3_15  and  C10_16
REMARK       I    between atoms: C10_16  and  N4_18
REMARK    1  A    between atoms: N4_18  and  C11_20
REMARK    2  A    between atoms: C11_20  and  C13_22
REMARK    3  A    between atoms: C13_22  and  C14_23
ROOT
HETATM    1  C1  UNL     1     -24.518  -1.203  25.274  1.00  0.00     0.117 C
HETATM    2  C2  UNL     1     -24.667  -1.118  23.808  1.00  0.00     0.215 C
HETATM    3  O1  UNL     1     -25.115  -0.056  23.308  1.00  0.00    -0.274 OA
HETATM    4  N1  UNL     1     -24.331  -2.174  22.926  1.00  0.00    -0.350 N
HETATM    5  C3  UNL     1     -23.823  -3.362  23.569  1.00  0.00     0.145 C
HETATM    6  C4  UNL     1     -23.329  -4.376  22.567  1.00  0.00     0.136 C
HETATM    7  N2  UNL     1     -22.168  -3.930  21.900  1.00  0.00    -0.391 N
ATOM      8  H2  UNL     1     -21.424  -4.579  21.644  1.00  0.00     0.156 HD
HETATM    9  C5  UNL     1     -22.069  -2.558  21.599  1.00  0.00     0.276 C
HETATM   10  F1  UNL     1     -21.811  -1.810  22.736  1.00  0.00    -0.226 F
HETATM   11  C6  UNL     1     -23.211  -1.993  20.787  1.00  0.00     0.041 C
HETATM   12  C7  UNL     1     -22.827  -0.536  20.513  1.00  0.00     0.019 C
HETATM   13  C8  UNL     1     -23.803   0.151  19.625  1.00  0.00     0.021 C
HETATM   14  C9  UNL     1     -24.299  -0.625  18.461  1.00  0.00     0.127 C
HETATM   15  N3  UNL     1     -23.903  -2.007  18.412  1.00  0.00    -0.333 N
HETATM   16  C10 UNL     1     -24.166  -2.707  17.201  1.00  0.00     0.318 C
HETATM   17  O2  UNL     1     -23.823  -3.925  17.137  1.00  0.00    -0.247 OA
HETATM   18  N4  UNL     1     -24.782  -2.103  16.092  1.00  0.00    -0.339 N
ATOM     19  H4  UNL     1     -25.062  -1.123  16.133  1.00  0.00     0.164 HD
HETATM   20  C17 UNL     1     -23.266  -2.727  19.492  1.00  0.00     0.143 C
HETATM   21  C18 UNL     1     -24.516  -1.985  21.507  1.00  0.00     0.141 C
ENDROOT
BRANCH  18  22
HETATM   22  C11 UNL     1     -25.018  -2.872  14.895  1.00  0.00     0.082 C
HETATM   23  C12 UNL     1     -26.475  -3.304  14.915  1.00  0.00     0.032 C
BRANCH  22  24
HETATM   24  C13 UNL     1     -24.762  -2.039  13.651  1.00  0.00     0.028 C
BRANCH  24  25
HETATM   25  C14 UNL     1     -26.046  -1.318  13.300  1.00  0.00    -0.021 C
HETATM   26  C15 UNL     1     -25.936   0.163  13.570  1.00  0.00     0.009 C
HETATM   27  C16 UNL     1     -26.430  -1.551  11.855  1.00  0.00     0.009 C
ENDBRANCH  24  25
ENDBRANCH  22  24
ENDBRANCH  18  22
TORSDOF 3
ENDMDL