MODEL 2
REMARK VINA RESULT: -8.738912437      0.307      1.067
REMARK  5 active torsions:
REMARK  status: ('A' for Active; 'I' for Inactive)
REMARK    1  A    between atoms: C3_3  and  C5_5
REMARK    2  A    between atoms: C6_6  and  C7_7
REMARK    3  A    between atoms: C7_7  and  N1_8
REMARK    4  A    between atoms: N2_12  and  C11_13
REMARK    5  A    between atoms: C14_16  and  O1_17
ROOT
HETATM    1  N1  UNL     1      16.677  -6.367   7.070  1.00  0.00     0.094 N
HETATM    2  C8  UNL     1      17.278  -5.932   5.794  1.00  0.00     0.274 C
HETATM    3  C9  UNL     1      17.246  -4.423   5.788  1.00  0.00     0.050 C
HETATM    4  C10 UNL     1      15.915  -3.963   6.341  1.00  0.00     0.125 C
HETATM    5  N2  UNL     1      14.908  -4.893   5.841  1.00  0.00    -0.379 N
HETATM    6  C17 UNL     1      14.371  -6.079   6.497  1.00  0.00     0.153 C
HETATM    7  C18 UNL     1      15.450  -7.095   6.718  1.00  0.00     0.292 C
ENDROOT
BRANCH   1   8
HETATM    8  C7  UNL     1      17.628  -7.269   7.712  1.00  0.00     0.319 C
BRANCH   8   9
HETATM    9  C6  UNL     1      17.713  -6.880   9.173  1.00  0.00     0.022 A
HETATM   10  C5  UNL     1      18.139  -7.669  10.247  1.00  0.00    -0.008 A
HETATM   11  C20 UNL     1      18.148  -7.066  11.450  1.00  0.00    -0.033 A
HETATM   12  C19 UNL     1      17.737  -5.725  11.481  1.00  0.00    -0.010 A
HETATM   13  C21 UNL     1      18.460  -7.766  12.774  1.00  0.00     0.040 C
HETATM   14  S1  UNL     1      17.365  -5.380   9.891  1.00  0.00    -0.096 SA
HETATM   15  C25 UNL     1      17.621  -4.757  12.602  1.00  0.00     0.046 C
HETATM   16  C24 UNL     1      18.756  -4.802  13.564  1.00  0.00     0.005 C
HETATM   17  C23 UNL     1      19.847  -5.699  13.058  1.00  0.00     0.001 C
HETATM   18  C22 UNL     1      19.539  -7.100  13.529  1.00  0.00     0.005 C
BRANCH  10  19
HETATM   19  C3  UNL     1      18.445  -9.105   9.944  1.00  0.00    -0.054 C
HETATM   20  C2  UNL     1      19.588  -9.687   9.891  1.00  0.00    -0.023 C
HETATM   21  C1  UNL     1      20.959  -9.168   9.942  1.00  0.00     0.036 C
HETATM   22  C4  UNL     1      17.238 -10.035   9.841  1.00  0.00     0.049 C
ENDBRANCH  10  19
ENDBRANCH   8   9
ENDBRANCH   1   8
BRANCH   5  23
HETATM   23  C11 UNL     1      14.375  -4.620   4.564  1.00  0.00     0.030 A
HETATM   24  C12 UNL     1      13.704  -5.614   3.840  1.00  0.00     0.032 A
HETATM   25  C13 UNL     1      13.159  -5.366   2.601  1.00  0.00     0.039 A
HETATM   26  C14 UNL     1      13.251  -4.121   2.017  1.00  0.00     0.065 A
HETATM   27  C15 UNL     1      13.913  -3.155   2.739  1.00  0.00     0.039 A
HETATM   28  C16 UNL     1      14.464  -3.371   3.968  1.00  0.00     0.032 A
BRANCH  26  29
HETATM   29  O1  UNL     1      12.706  -3.855   0.769  1.00  0.00    -0.361 OA
ATOM     30  H1  UNL     1      12.189  -3.074   0.603  1.00  0.00     0.217 HD
ENDBRANCH  26  29
ENDBRANCH   5  23
TORSDOF 5
ENDMDL