MODEL 2
REMARK VINA RESULT: -8.872258585      0.232      1.128
REMARK  5 active torsions:
REMARK  status: ('A' for Active; 'I' for Inactive)
REMARK       I    between atoms: C1_2  and  N1_3
REMARK    1  A    between atoms: C1_2  and  C10_15
REMARK    2  A    between atoms: N1_3  and  C2_5
REMARK    3  A    between atoms: C5_9  and  N2_10
REMARK    4  A    between atoms: C13_18  and  N3_19
REMARK    5  A    between atoms: N3_19  and  C14_21
ROOT
HETATM    1  C10 UNL     1      20.438  -2.931   6.488  1.00  0.00     0.032 A
HETATM    2  C11 UNL     1      19.974  -2.946   7.772  1.00  0.00     0.019 A
HETATM    3  C12 UNL     1      18.725  -3.529   8.027  1.00  0.00     0.030 A
HETATM    4  C13 UNL     1      17.968  -4.078   7.025  1.00  0.00     0.034 A
HETATM    5  C21 UNL     1      18.463  -4.047   5.749  1.00  0.00     0.030 A
HETATM    6  C22 UNL     1      19.683  -3.480   5.486  1.00  0.00     0.019 A
ENDROOT
BRANCH   1   7
HETATM    7  C1  UNL     1      21.777  -2.301   6.155  1.00  0.00     0.256 C
HETATM    8  O1  UNL     1      22.728  -2.997   6.519  1.00  0.00    -0.267 OA
HETATM    9  N1  UNL     1      21.804  -1.102   5.525  1.00  0.00    -0.315 N
ATOM     10  H1  UNL     1      20.866  -0.749   5.338  1.00  0.00     0.170 HD
BRANCH   9  11
HETATM   11  C2  UNL     1      22.797  -0.223   5.064  1.00  0.00     0.104 A
HETATM   12  S1  UNL     1      23.892  -0.693   3.737  1.00  0.00    -0.082 SA
HETATM   13  C3  UNL     1      24.824   0.708   3.629  1.00  0.00     0.054 A
HETATM   14  C4  UNL     1      24.293   1.496   4.590  1.00  0.00     0.040 A
HETATM   15  C5  UNL     1      23.252   1.014   5.324  1.00  0.00     0.073 A
BRANCH  15  16
HETATM   16  N2  UNL     1      22.711   1.903   6.350  1.00  0.00    -0.330 N
HETATM   17  C6  UNL     1      21.650   2.716   6.275  1.00  0.00     0.097 A
HETATM   18  C7  UNL     1      21.535   3.444   7.448  1.00  0.00     0.019 A
HETATM   19  C8  UNL     1      22.574   3.047   8.258  1.00  0.00     0.019 A
HETATM   20  C9  UNL     1      23.286   2.085   7.542  1.00  0.00     0.097 A
ENDBRANCH  15  16
ENDBRANCH   9  11
ENDBRANCH   1   7
BRANCH   4  21
HETATM   21  N3  UNL     1      16.686  -4.678   7.283  1.00  0.00    -0.337 N
ATOM     22  H3  UNL     1      16.418  -5.027   8.203  1.00  0.00     0.168 HD
BRANCH  21  23
HETATM   23  C14 UNL     1      15.883  -4.740   6.240  1.00  0.00     0.150 A
HETATM   24  N4  UNL     1      15.498  -3.734   5.458  1.00  0.00    -0.335 N
HETATM   25  C15 UNL     1      14.684  -3.994   4.453  1.00  0.00     0.051 A
ATOM     26  H4  UNL     1      15.825  -2.783   5.632  1.00  0.00     0.168 HD
HETATM   27  C16 UNL     1      14.176  -3.057   3.527  1.00  0.00     0.031 A
HETATM   28  C20 UNL     1      14.289  -5.288   4.280  1.00  0.00     0.035 A
HETATM   29  C17 UNL     1      13.343  -3.453   2.532  1.00  0.00     0.002 A
HETATM   30  C18 UNL     1      12.936  -4.754   2.348  1.00  0.00     0.002 A
HETATM   31  C19 UNL     1      13.421  -5.684   3.242  1.00  0.00     0.021 A
HETATM   32  S2  UNL     1      15.092  -6.086   5.558  1.00  0.00    -0.052 SA
ENDBRANCH  21  23
ENDBRANCH   4  21
TORSDOF 5
ENDMDL