MODEL 4
REMARK VINA RESULT: -9.025597012      4.218      8.479
REMARK  4 active torsions:
REMARK  status: ('A' for Active; 'I' for Inactive)
REMARK    1  A    between atoms: C2_2  and  N1_3
REMARK       I    between atoms: N1_3  and  C3_5
REMARK       I    between atoms: C3_5  and  N3_9
REMARK    2  A    between atoms: N3_9  and  C5_11
REMARK    3  A    between atoms: C8_14  and  C9_15
REMARK    4  A    between atoms: C9_15  and  C10_17
ROOT
HETATM    1  C5  UNL     1      21.662  -1.721   5.930  1.00  0.00     0.049 A
HETATM    2  C6  UNL     1      21.782  -1.941   7.284  1.00  0.00     0.031 A
HETATM    3  C7  UNL     1      21.015  -2.847   7.977  1.00  0.00     0.018 A
HETATM    4  C8  UNL     1      20.071  -3.579   7.296  1.00  0.00     0.015 A
HETATM    5  C22 UNL     1      19.920  -3.384   5.915  1.00  0.00     0.018 A
HETATM    6  C23 UNL     1      20.713  -2.469   5.278  1.00  0.00     0.031 A
ENDROOT
BRANCH   4   7
HETATM    7  C9  UNL     1      19.173  -4.541   7.906  1.00  0.00     0.192 C
HETATM    8  O1  UNL     1      19.474  -4.983   9.059  1.00  0.00    -0.287 OA
BRANCH   7   9
HETATM    9  C10 UNL     1      17.961  -5.024   7.282  1.00  0.00     0.016 A
HETATM   10  C11 UNL     1      17.690  -6.357   7.098  1.00  0.00     0.017 A
HETATM   11  C12 UNL     1      16.525  -6.816   6.482  1.00  0.00     0.021 A
HETATM   12  C13 UNL     1      15.595  -5.913   6.034  1.00  0.00     0.022 A
HETATM   13  C14 UNL     1      15.832  -4.565   6.202  1.00  0.00     0.023 A
HETATM   14  S2  UNL     1      14.101  -6.509   5.233  1.00  0.00    -0.088 SA
HETATM   15  C15 UNL     1      16.992  -4.145   6.813  1.00  0.00     0.035 A
HETATM   16  S1  UNL     1      14.604  -3.392   5.627  1.00  0.00    -0.088 SA
HETATM   17  C16 UNL     1      13.958  -4.038   4.065  1.00  0.00     0.022 A
HETATM   18  C17 UNL     1      13.682  -3.144   3.040  1.00  0.00     0.020 A
HETATM   19  C21 UNL     1      13.738  -5.375   3.882  1.00  0.00     0.022 A
HETATM   20  C18 UNL     1      13.186  -3.560   1.827  1.00  0.00     0.001 A
HETATM   21  C19 UNL     1      12.976  -4.925   1.681  1.00  0.00     0.001 A
HETATM   22  C20 UNL     1      13.244  -5.821   2.684  1.00  0.00     0.020 A
ENDBRANCH   7   9
ENDBRANCH   4   7
BRANCH   1  23
HETATM   23  N3  UNL     1      22.439  -0.798   5.214  1.00  0.00    -0.192 N
HETATM   24  C3  UNL     1      23.490  -0.038   5.746  1.00  0.00     0.673 C
HETATM   25  N1  UNL     1      23.244   1.321   6.162  1.00  0.00    -0.227 N
HETATM   26  N2  UNL     1      24.650  -0.525   5.868  1.00  0.00    -0.231 N
ATOM     27  H1  UNL     1      23.959   1.818   6.691  1.00  0.00     0.177 HD
HETATM   28  C4  UNL     1      25.047  -1.855   5.500  1.00  0.00     0.165 C
ATOM     29  H2  UNL     1      25.369   0.081   6.263  1.00  0.00     0.177 HD
ATOM     30  H3  UNL     1      22.222  -0.670   4.226  1.00  0.00     0.184 HD
BRANCH  25  31
HETATM   31  C2  UNL     1      22.010   1.990   5.845  1.00  0.00     0.133 C
HETATM   32  C1  UNL     1      21.646   2.989   6.923  1.00  0.00     0.027 C
ENDBRANCH  25  31
ENDBRANCH   1  23
TORSDOF 4
ENDMDL