MODEL 1
REMARK VINA RESULT: -8.335934788      0.000      0.000
REMARK  5 active torsions:
REMARK  status: ('A' for Active; 'I' for Inactive)
REMARK    1  A    between atoms: C9_9  and  N1_10
REMARK       I    between atoms: N1_10  and  C10_12
REMARK       I    between atoms: C10_12  and  N2_14
REMARK    2  A    between atoms: N2_14  and  C11_16
REMARK    3  A    between atoms: C18_23  and  C19_24
REMARK    4  A    between atoms: N3_29  and  N4_30
REMARK    5  A    between atoms: N4_30  and  O2_32
ROOT
HETATM    1  C1  UNL     1      20.088  -6.294  13.048  1.00  0.00     0.040 C
HETATM    2  C2  UNL     1      19.693  -5.227  12.026  1.00  0.00     0.048 C
HETATM    3  C3  UNL     1      19.818  -3.899  12.782  1.00  0.00     0.040 C
HETATM    4  C4  UNL     1      20.719  -5.226  10.949  1.00  0.00     0.071 C
HETATM    5  C5  UNL     1      20.221  -4.474   9.739  1.00  0.00    -0.045 A
HETATM    6  C6  UNL     1      21.102  -3.714   8.998  1.00  0.00     0.008 A
HETATM    7  C7  UNL     1      20.699  -3.027   7.892  1.00  0.00     0.003 A
HETATM    8  C8  UNL     1      19.353  -3.117   7.524  1.00  0.00     0.030 A
HETATM    9  C9  UNL     1      18.465  -3.868   8.248  1.00  0.00     0.045 A
HETATM   10  C17 UNL     1      18.906  -4.569   9.392  1.00  0.00     0.004 A
HETATM   11  C18 UNL     1      17.951  -5.348  10.170  1.00  0.00     0.180 C
HETATM   12  N3  UNL     1      18.354  -5.429  11.551  1.00  0.00    -0.285 N
ENDROOT
BRANCH   9  13
HETATM   13  N1  UNL     1      17.120  -4.015   7.864  1.00  0.00    -0.308 N
HETATM   14  C10 UNL     1      16.663  -4.382   6.580  1.00  0.00     0.325 C
HETATM   15  O1  UNL     1      17.446  -4.605   5.657  1.00  0.00    -0.247 OA
HETATM   16  N2  UNL     1      15.241  -4.483   6.403  1.00  0.00    -0.309 N
ATOM     17  H2  UNL     1      14.653  -4.289   7.213  1.00  0.00     0.170 HD
ATOM     18  H1  UNL     1      16.412  -3.841   8.576  1.00  0.00     0.170 HD
BRANCH  16  19
HETATM   19  C11 UNL     1      14.595  -4.826   5.202  1.00  0.00     0.036 A
HETATM   20  C12 UNL     1      14.297  -6.104   4.808  1.00  0.00     0.029 A
HETATM   21  C13 UNL     1      13.628  -6.370   3.600  1.00  0.00     0.002 A
HETATM   22  C14 UNL     1      13.255  -5.348   2.785  1.00  0.00     0.000 A
HETATM   23  C15 UNL     1      13.555  -4.067   3.181  1.00  0.00     0.002 A
HETATM   24  C16 UNL     1      14.199  -3.788   4.341  1.00  0.00     0.029 A
ENDBRANCH  16  19
ENDBRANCH   9  13
BRANCH  11  25
HETATM   25  C19 UNL     1      17.857  -6.712   9.566  1.00  0.00     0.011 A
HETATM   26  C20 UNL     1      18.825  -7.597   9.242  1.00  0.00     0.017 A
HETATM   27  C21 UNL     1      18.453  -8.773   8.692  1.00  0.00     0.008 A
HETATM   28  C22 UNL     1      17.107  -8.966   8.510  1.00  0.00     0.050 A
HETATM   29  S1  UNL     1      16.427  -7.519   9.105  1.00  0.00    -0.104 SA
ENDBRANCH  11  25
BRANCH  12  30
HETATM   30  N4  UNL     1      17.371  -5.725  12.498  1.00  0.00    -0.211 N
ATOM     31  H4  UNL     1      17.456  -6.527  13.124  1.00  0.00     0.215 HD
BRANCH  30  32
HETATM   32  O2  UNL     1      16.370  -4.953  12.543  1.00  0.00    -0.275 OA
ATOM     33  H2  UNL     1      15.947  -4.847  13.387  1.00  0.00     0.246 HD
ENDBRANCH  30  32
ENDBRANCH  12  30
TORSDOF 5
ENDMDL