MODEL 3
REMARK VINA RESULT: -8.491979558      1.450      1.836
REMARK  6 active torsions:
REMARK  status: ('A' for Active; 'I' for Inactive)
REMARK    1  A    between atoms: O1_1  and  C1_3
REMARK    2  A    between atoms: C6_8  and  N1_9
REMARK    3  A    between atoms: C7_11  and  C8_12
REMARK    4  A    between atoms: C13_18  and  O2_19
REMARK    5  A    between atoms: C13_18  and  C14_21
REMARK    6  A    between atoms: C20_27  and  C21_28
ROOT
HETATM    1  C8  UNL     1      16.574  -6.700   8.055  1.00  0.00    -0.007 A
HETATM    2  C9  UNL     1      16.188  -7.596   9.020  1.00  0.00     0.063 A
HETATM    3  S1  UNL     1      17.396  -7.426  10.216  1.00  0.00    -0.104 SA
HETATM    4  C10 UNL     1      18.355  -6.238   9.481  1.00  0.00     0.002 A
HETATM    5  C11 UNL     1      17.713  -5.993   8.310  1.00  0.00    -0.029 A
HETATM    6  C12 UNL     1      18.543  -4.933   7.614  1.00  0.00     0.084 C
HETATM    7  C13 UNL     1      19.197  -4.207   8.744  1.00  0.00     0.101 C
HETATM    8  C20 UNL     1      19.587  -5.389   9.620  1.00  0.00     0.105 C
ENDROOT
BRANCH   1   9
HETATM    9  C7  UNL     1      15.759  -6.549   6.815  1.00  0.00     0.101 C
HETATM   10  N1  UNL     1      15.436  -5.397   6.346  1.00  0.00    -0.363 N
ATOM     11  H1  UNL     1      15.735  -4.546   6.823  1.00  0.00     0.165 HD
BRANCH  10  12
HETATM   12  C6  UNL     1      14.668  -5.319   5.173  1.00  0.00     0.065 A
HETATM   13  C1  UNL     1      14.308  -4.118   4.630  1.00  0.00     0.092 A
HETATM   14  C2  UNL     1      13.563  -4.087   3.483  1.00  0.00     0.039 A
HETATM   15  C3  UNL     1      13.189  -5.295   2.897  1.00  0.00     0.003 A
HETATM   16  C4  UNL     1      13.534  -6.514   3.417  1.00  0.00     0.002 A
HETATM   17  C5  UNL     1      14.291  -6.527   4.583  1.00  0.00     0.032 A
BRANCH  13  18
HETATM   18  O1  UNL     1      14.688  -2.946   5.225  1.00  0.00    -0.358 OA
ATOM     19  H1  UNL     1      14.718  -2.887   6.173  1.00  0.00     0.217 HD
ENDBRANCH  13  18
ENDBRANCH  10  12
ENDBRANCH   1   9
BRANCH   8  20
HETATM   20  C21 UNL     1      19.763  -4.881  11.022  1.00  0.00    -0.005 A
HETATM   21  C22 UNL     1      18.841  -4.258  11.818  1.00  0.00     0.016 A
HETATM   22  C23 UNL     1      19.221  -3.896  13.047  1.00  0.00     0.008 A
HETATM   23  C24 UNL     1      20.507  -4.174  13.420  1.00  0.00     0.050 A
HETATM   24  S2  UNL     1      21.148  -4.935  12.036  1.00  0.00    -0.106 SA
ENDBRANCH   8  20
BRANCH   7  25
HETATM   25  O2  UNL     1      18.235  -3.402   9.353  1.00  0.00    -0.384 OA
ATOM     26  H2  UNL     1      17.378  -3.733   9.111  1.00  0.00     0.211 HD
ENDBRANCH   7  25
BRANCH   7  27
HETATM   27  C14 UNL     1      20.373  -3.409   8.344  1.00  0.00    -0.023 A
HETATM   28  C15 UNL     1      20.285  -2.573   7.253  1.00  0.00     0.010 A
HETATM   29  C16 UNL     1      21.394  -1.817   6.877  1.00  0.00     0.001 A
HETATM   30  C17 UNL     1      22.589  -1.876   7.566  1.00  0.00     0.000 A
HETATM   31  C18 UNL     1      22.664  -2.713   8.651  1.00  0.00     0.001 A
HETATM   32  C19 UNL     1      21.569  -3.458   9.021  1.00  0.00     0.010 A
ENDBRANCH   7  27
TORSDOF 6
ENDMDL