MODEL 3
REMARK VINA RESULT: -7.532891019      4.308      7.101
REMARK  7 active torsions:
REMARK  status: ('A' for Active; 'I' for Inactive)
REMARK    1  A    between atoms: C8_8  and  C9_9
REMARK    2  A    between atoms: C9_9  and  O1_10
REMARK    3  A    between atoms: O1_10  and  C10_11
REMARK    4  A    between atoms: C10_11  and  C11_13
REMARK    5  A    between atoms: C11_13  and  C12_14
REMARK    6  A    between atoms: C23_25  and  O3_26
REMARK    7  A    between atoms: C24_29  and  O5_30
ROOT
HETATM    1  C1  UNL     1      18.224  -8.408   7.324  1.00  0.00     0.020 C
HETATM    2  C2  UNL     1      17.210  -7.259   7.248  1.00  0.00    -0.014 C
HETATM    3  C3  UNL     1      15.910  -7.914   6.761  1.00  0.00     0.020 C
HETATM    4  C4  UNL     1      17.662  -6.305   6.216  1.00  0.00     0.023 C
HETATM    5  C5  UNL     1      17.734  -4.861   6.664  1.00  0.00    -0.037 C
HETATM    6  C6  UNL     1      18.429  -4.122   5.539  1.00  0.00     0.015 C
HETATM    7  C7  UNL     1      16.342  -4.252   6.766  1.00  0.00     0.015 C
HETATM    8  C8  UNL     1      18.464  -4.809   7.971  1.00  0.00     0.056 C
HETATM    9  C22 UNL     1      17.616  -5.478   8.985  1.00  0.00     0.019 A
HETATM   10  C23 UNL     1      17.236  -5.220  10.288  1.00  0.00     0.193 A
HETATM   11  O4  UNL     1      16.464  -6.197  10.650  1.00  0.00    -0.264 OA
HETATM   12  C24 UNL     1      16.302  -7.087   9.682  1.00  0.00     0.193 A
HETATM   13  C25 UNL     1      17.028  -6.664   8.590  1.00  0.00     0.020 A
ENDROOT
BRANCH   8  14
HETATM   14  C9  UNL     1      18.942  -3.461   8.374  1.00  0.00     0.189 C
BRANCH  14  15
HETATM   15  O1  UNL     1      20.064  -3.560   9.228  1.00  0.00    -0.321 OA
BRANCH  15  16
HETATM   16  C10 UNL     1      21.369  -3.357   8.756  1.00  0.00     0.259 C
HETATM   17  O2  UNL     1      22.215  -3.167   9.663  1.00  0.00    -0.265 OA
BRANCH  16  18
HETATM   18  C11 UNL     1      21.664  -3.374   7.319  1.00  0.00     0.120 C
BRANCH  18  19
HETATM   19  C12 UNL     1      21.714  -2.071   6.618  1.00  0.00    -0.031 C
HETATM   20  C13 UNL     1      22.928  -1.271   6.924  1.00  0.00     0.014 C
HETATM   21  C14 UNL     1      23.006  -0.001   6.097  1.00  0.00    -0.013 C
HETATM   22  C15 UNL     1      23.021  -0.364   4.649  1.00  0.00     0.009 C
HETATM   23  C19 UNL     1      21.800   0.844   6.428  1.00  0.00     0.009 C
HETATM   24  C16 UNL     1      21.752  -1.121   4.321  1.00  0.00    -0.013 C
HETATM   25  C17 UNL     1      20.537  -0.292   4.604  1.00  0.00     0.009 C
HETATM   26  C21 UNL     1      21.744  -2.384   5.120  1.00  0.00     0.014 C
HETATM   27  C18 UNL     1      20.576   0.053   6.078  1.00  0.00    -0.013 C
HETATM   28  C20 UNL     1      20.483  -1.229   6.868  1.00  0.00     0.014 C
ENDBRANCH  18  19
ENDBRANCH  16  18
ENDBRANCH  15  16
ENDBRANCH  14  15
ENDBRANCH   8  14
BRANCH  10  29
HETATM   29  O3  UNL     1      17.654  -4.098  10.992  1.00  0.00    -0.340 OA
ATOM     30  H3  UNL     1      18.561  -3.937  11.219  1.00  0.00     0.220 HD
ENDBRANCH  10  29
BRANCH  12  31
HETATM   31  O5  UNL     1      15.534  -8.246   9.759  1.00  0.00    -0.340 OA
ATOM     32  H5  UNL     1      15.846  -9.131   9.611  1.00  0.00     0.220 HD
ENDBRANCH  12  31
TORSDOF 7
ENDMDL