MODEL 1
REMARK VINA RESULT: -8.807685668      0.000      0.000
REMARK  5 active torsions:
REMARK  status: ('A' for Active; 'I' for Inactive)
REMARK    1  A    between atoms: C5_6  and  C6_7
REMARK    2  A    between atoms: C6_7  and  N3_11
REMARK    3  A    between atoms: N3_11  and  C7_12
REMARK    4  A    between atoms: N3_11  and  C13_18
REMARK    5  A    between atoms: C16_21  and  C17_22
ROOT
HETATM    1  N1  UNL     1      21.728 -10.212  10.796  1.00  0.00    -0.191 NA
HETATM    2  C1  UNL     1      21.005  -9.412  10.396  1.00  0.00     0.099 C
HETATM    3  C2  UNL     1      20.120  -8.392   9.896  1.00  0.00     0.044 A
HETATM    4  C3  UNL     1      20.151  -7.109  10.403  1.00  0.00     0.023 A
HETATM    5  C4  UNL     1      19.306  -6.142   9.919  1.00  0.00     0.017 A
HETATM    6  C5  UNL     1      18.388  -6.403   8.909  1.00  0.00     0.008 A
HETATM    7  C22 UNL     1      18.394  -7.695   8.437  1.00  0.00     0.017 A
HETATM    8  C23 UNL     1      19.229  -8.692   8.899  1.00  0.00     0.023 A
ENDROOT
BRANCH   6   9
HETATM    9  C6  UNL     1      17.510  -5.358   8.403  1.00  0.00     0.117 C
HETATM   10  N2  UNL     1      16.779  -4.681   9.207  1.00  0.00    -0.384 N
ATOM     11  H22 UNL     1      16.857  -4.910  10.198  1.00  0.00     0.157 HD
ATOM     12  H21 UNL     1      16.164  -3.949   8.852  1.00  0.00     0.157 HD
BRANCH   9  13
HETATM   13  N3  UNL     1      17.402  -5.040   7.028  1.00  0.00    -0.283 N
BRANCH  13  14
HETATM   14  C7  UNL     1      16.341  -5.601   6.264  1.00  0.00     0.042 A
HETATM   15  C8  UNL     1      15.222  -4.844   5.943  1.00  0.00     0.030 A
HETATM   16  C9  UNL     1      14.229  -5.402   5.208  1.00  0.00     0.002 A
HETATM   17  C10 UNL     1      14.316  -6.709   4.776  1.00  0.00     0.000 A
HETATM   18  C11 UNL     1      15.409  -7.478   5.080  1.00  0.00     0.002 A
HETATM   19  C12 UNL     1      16.418  -6.911   5.826  1.00  0.00     0.030 A
ENDBRANCH  13  14
BRANCH  13  20
HETATM   20  C13 UNL     1      18.324  -4.157   6.444  1.00  0.00     0.114 A
HETATM   21  C14 UNL     1      18.817  -4.252   5.146  1.00  0.00     0.051 A
HETATM   22  C15 UNL     1      19.665  -3.200   4.998  1.00  0.00     0.036 A
HETATM   23  C16 UNL     1      19.706  -2.461   6.172  1.00  0.00     0.062 A
HETATM   24  N6  UNL     1      18.889  -3.058   7.025  1.00  0.00    -0.340 N
ATOM     25  H6  UNL     1      18.708  -2.743   7.978  1.00  0.00     0.167 HD
BRANCH  23  26
HETATM   26  C17 UNL     1      20.523  -1.249   6.340  1.00  0.00     0.077 A
HETATM   27  C18 UNL     1      21.762  -1.168   6.944  1.00  0.00     0.130 A
HETATM   28  N4  UNL     1      22.218   0.133   6.924  1.00  0.00    -0.310 N
HETATM   29  C19 UNL     1      23.281   0.776   7.333  1.00  0.00     0.106 A
HETATM   30  C21 UNL     1      21.256   0.825   6.313  1.00  0.00     0.155 A
HETATM   31  C20 UNL     1      23.343   2.128   7.108  1.00  0.00     0.071 A
HETATM   32  S1  UNL     1      21.861   2.418   6.313  1.00  0.00    -0.064 SA
HETATM   33  N5  UNL     1      20.230  -0.002   5.958  1.00  0.00    -0.333 N
ATOM     34  H5  UNL     1      19.377   0.286   5.478  1.00  0.00     0.168 HD
ENDBRANCH  23  26
ENDBRANCH  13  20
ENDBRANCH   9  13
ENDBRANCH   6   9
TORSDOF 5
ENDMDL