MODEL 4
REMARK VINA RESULT: -7.624468101      3.336      8.184
REMARK  5 active torsions:
REMARK  status: ('A' for Active; 'I' for Inactive)
REMARK    1  A    between atoms: C2_2  and  C4_4
REMARK    2  A    between atoms: C4_4  and  O2_6
REMARK    3  A    between atoms: O2_6  and  C5_7
REMARK    4  A    between atoms: C8_10  and  C9_11
REMARK    5  A    between atoms: C9_11  and  C10_12
ROOT
HETATM    1  C5  UNL     1      21.248  -3.188   6.447  1.00  0.00     0.150 C
HETATM    2  C6  UNL     1      19.904  -2.477   6.493  1.00  0.00     0.067 C
HETATM    3  C7  UNL     1      18.987  -3.264   7.433  1.00  0.00    -0.081 C
HETATM    4  C8  UNL     1      18.004  -3.912   6.860  1.00  0.00    -0.023 C
HETATM    5  C19 UNL     1      19.190  -3.304   8.870  1.00  0.00     0.040 C
HETATM    6  C20 UNL     1      20.408  -4.169   9.154  1.00  0.00     0.059 C
HETATM    7  C21 UNL     1      21.670  -3.403   8.861  1.00  0.00     0.014 C
HETATM    8  N1  UNL     1      22.281  -3.377   9.996  1.00  0.00    -0.312 N
ATOM      9  H1  UNL     1      21.807  -3.842  10.770  1.00  0.00     0.186 HD
HETATM   10  N2  UNL     1      23.518  -2.787  10.295  1.00  0.00    -0.337 N
ATOM     11  H2  UNL     1      23.601  -2.368  11.221  1.00  0.00     0.180 HD
HETATM   12  C22 UNL     1      24.714  -2.695   9.437  1.00  0.00     0.139 C
HETATM   13  C23 UNL     1      24.430  -3.649   8.298  1.00  0.00     0.022 C
HETATM   14  C24 UNL     1      23.559  -3.120   7.226  1.00  0.00     0.019 C
HETATM   15  C25 UNL     1      22.143  -2.788   7.587  1.00  0.00     0.023 C
HETATM   16  C26 UNL     1      22.105  -1.249   7.722  1.00  0.00     0.024 C
ENDROOT
BRANCH   4  17
HETATM   17  C9  UNL     1      17.009  -4.727   7.564  1.00  0.00     0.037 C
BRANCH  17  18
HETATM   18  C10 UNL     1      16.822  -6.027   6.865  1.00  0.00     0.025 C
HETATM   19  C11 UNL     1      15.573  -6.084   6.081  1.00  0.00    -0.084 C
HETATM   20  C12 UNL     1      14.489  -5.375   6.288  1.00  0.00     0.015 C
HETATM   21  C13 UNL     1      15.584  -7.099   4.955  1.00  0.00     0.034 C
HETATM   22  C14 UNL     1      16.299  -8.307   5.549  1.00  0.00     0.005 C
HETATM   23  C15 UNL     1      16.163  -8.381   7.054  1.00  0.00     0.010 C
HETATM   24  C16 UNL     1      16.886  -7.248   7.765  1.00  0.00    -0.040 C
HETATM   25  C17 UNL     1      16.222  -7.034   9.094  1.00  0.00     0.015 C
HETATM   26  C18 UNL     1      18.333  -7.622   7.970  1.00  0.00     0.015 C
ENDBRANCH  17  18
ENDBRANCH   4  17
BRANCH   1  27
HETATM   27  O2  UNL     1      21.870  -3.049   5.208  1.00  0.00    -0.311 OA
BRANCH  27  28
HETATM   28  C4  UNL     1      21.872  -1.905   4.426  1.00  0.00     0.288 C
HETATM   29  O1  UNL     1      20.789  -1.454   4.039  1.00  0.00    -0.260 OA
BRANCH  28  30
HETATM   30  C2  UNL     1      23.146  -1.289   4.099  1.00  0.00     0.004 C
HETATM   31  C1  UNL     1      24.000  -1.961   3.355  1.00  0.00     0.024 C
HETATM   32  C3  UNL     1      23.495   0.072   4.586  1.00  0.00     0.054 C
ENDBRANCH  28  30
ENDBRANCH  27  28
ENDBRANCH   1  27
TORSDOF 5
ENDMDL