MODEL 2
REMARK VINA RESULT: -7.488562898      2.467      4.406
REMARK  7 active torsions:
REMARK  status: ('A' for Active; 'I' for Inactive)
REMARK    1  A    between atoms: C2_2  and  C3_3
REMARK    2  A    between atoms: C9_11  and  N1_12
REMARK    3  A    between atoms: N1_12  and  C10_14
REMARK    4  A    between atoms: C10_14  and  N2_16
REMARK    5  A    between atoms: N2_16  and  C11_18
REMARK    6  A    between atoms: C17_25  and  C18_26
REMARK    7  A    between atoms: C18_26  and  O3_28
ROOT
HETATM    1  C3  UNL     1      20.938  -3.408   8.454  1.00  0.00     0.059 C
HETATM    2  O1  UNL     1      21.689  -3.607   7.288  1.00  0.00    -0.344 OA
HETATM    3  C4  UNL     1      21.254  -2.761   6.274  1.00  0.00     0.064 C
HETATM    4  C5  UNL     1      21.501  -3.508   4.962  1.00  0.00     0.046 C
HETATM    5  C6  UNL     1      22.131  -1.530   6.241  1.00  0.00     0.046 C
HETATM    6  C7  UNL     1      19.836  -2.352   6.401  1.00  0.00     0.085 C
HETATM    7  C8  UNL     1      19.056  -3.460   7.099  1.00  0.00     0.001 A
HETATM    8  S1  UNL     1      17.605  -4.215   6.879  1.00  0.00    -0.075 SA
HETATM    9  C9  UNL     1      17.653  -5.346   8.181  1.00  0.00     0.090 A
HETATM   10  C17 UNL     1      18.879  -5.096   8.777  1.00  0.00     0.040 A
HETATM   11  C20 UNL     1      19.644  -4.097   8.235  1.00  0.00     0.022 A
ENDROOT
BRANCH   9  12
HETATM   12  N1  UNL     1      16.597  -6.268   8.468  1.00  0.00    -0.327 N
ATOM     13  H1  UNL     1      15.807  -5.861   8.968  1.00  0.00     0.169 HD
BRANCH  12  14
HETATM   14  C10 UNL     1      16.460  -7.621   8.186  1.00  0.00     0.174 C
HETATM   15  S2  UNL     1      16.723  -8.874   9.213  1.00  0.00    -0.041 SA
BRANCH  14  16
HETATM   16  N2  UNL     1      15.903  -7.982   6.892  1.00  0.00    -0.341 N
ATOM     17  H2  UNL     1      15.870  -8.965   6.623  1.00  0.00     0.164 HD
BRANCH  16  18
HETATM   18  C11 UNL     1      15.396  -6.987   5.982  1.00  0.00     0.222 C
HETATM   19  C12 UNL     1      15.073  -7.663   4.666  1.00  0.00     0.054 C
HETATM   20  C13 UNL     1      13.643  -7.306   4.263  1.00  0.00     0.004 C
HETATM   21  C14 UNL     1      13.679  -5.936   3.632  1.00  0.00     0.002 C
HETATM   22  C15 UNL     1      14.336  -4.966   4.556  1.00  0.00     0.026 C
HETATM   23  C16 UNL     1      13.983  -5.157   6.004  1.00  0.00     0.170 C
HETATM   24  O2  UNL     1      14.243  -6.415   6.494  1.00  0.00    -0.367 OA
ENDBRANCH  16  18
ENDBRANCH  14  16
ENDBRANCH  12  14
ENDBRANCH   9  12
BRANCH  10  25
HETATM   25  C18 UNL     1      19.388  -6.182   9.677  1.00  0.00     0.053 C
HETATM   26  C19 UNL     1      19.649  -6.214  11.096  1.00  0.00     0.077 C
BRANCH  25  27
HETATM   27  O3  UNL     1      19.650  -7.347   9.117  1.00  0.00    -0.364 OA
ATOM     28  H3  UNL     1      18.907  -7.904   8.917  1.00  0.00     0.217 HD
ENDBRANCH  25  27
ENDBRANCH  10  25
BRANCH   1  29
HETATM   29  C2  UNL     1      21.695  -3.404   9.682  1.00  0.00     0.061 C
HETATM   30  C1  UNL     1      23.221  -3.310   9.321  1.00  0.00     0.012 C
ENDBRANCH   1  29
TORSDOF 7
ENDMDL