MODEL 3
REMARK VINA RESULT: -7.540098690      1.304      1.610
REMARK  6 active torsions:
REMARK  status: ('A' for Active; 'I' for Inactive)
REMARK    1  A    between atoms: C2_2  and  C3_3
REMARK    2  A    between atoms: C8_9  and  C9_10
REMARK    3  A    between atoms: C10_11  and  C11_12
REMARK    4  A    between atoms: C11_12  and  C12_13
REMARK    5  A    between atoms: C21_23  and  O3_24
REMARK    6  A    between atoms: C22_27  and  O5_28
ROOT
HETATM    1  C3  UNL     1      16.439  -6.155   6.526  1.00  0.00    -0.024 C
HETATM    2  C4  UNL     1      17.196  -7.160   5.645  1.00  0.00     0.019 C
HETATM    3  C5  UNL     1      16.356  -4.872   5.757  1.00  0.00     0.046 C
HETATM    4  C6  UNL     1      17.171  -3.848   6.521  1.00  0.00     0.139 C
HETATM    5  O1  UNL     1      18.498  -3.743   6.107  1.00  0.00    -0.342 OA
HETATM    6  C7  UNL     1      19.311  -3.718   7.224  1.00  0.00     0.111 A
HETATM    7  C8  UNL     1      20.629  -3.504   7.637  1.00  0.00     0.097 A
HETATM    8  O4  UNL     1      20.714  -3.641   8.933  1.00  0.00    -0.289 OA
HETATM    9  C22 UNL     1      19.515  -3.943   9.431  1.00  0.00     0.193 A
HETATM   10  C23 UNL     1      18.635  -3.998   8.372  1.00  0.00     0.043 A
HETATM   11  C24 UNL     1      17.232  -4.369   7.910  1.00  0.00     0.057 C
HETATM   12  C25 UNL     1      17.264  -5.890   7.707  1.00  0.00     0.025 C
ENDROOT
BRANCH   7  13
HETATM   13  C9  UNL     1      21.701  -3.161   6.619  1.00  0.00     0.086 C
HETATM   14  C10 UNL     1      22.876  -2.616   7.388  1.00  0.00     0.072 C
HETATM   15  C16 UNL     1      23.075  -1.203   7.432  1.00  0.00     0.136 C
HETATM   16  O2  UNL     1      24.075  -0.708   7.887  1.00  0.00    -0.297 OA
HETATM   17  C17 UNL     1      22.054  -0.231   6.916  1.00  0.00     0.058 C
HETATM   18  C18 UNL     1      22.653   1.116   6.650  1.00  0.00     0.018 C
HETATM   19  C19 UNL     1      21.565  -0.811   5.611  1.00  0.00     0.022 C
HETATM   20  C20 UNL     1      20.448   0.101   5.109  1.00  0.00     0.013 C
HETATM   21  C21 UNL     1      21.072  -2.197   5.659  1.00  0.00     0.134 C
BRANCH  14  22
HETATM   22  C11 UNL     1      24.130  -3.346   6.911  1.00  0.00     0.040 C
BRANCH  22  23
HETATM   23  C12 UNL     1      24.436  -3.127   5.504  1.00  0.00    -0.024 C
HETATM   24  C13 UNL     1      25.507  -2.522   5.054  1.00  0.00    -0.091 C
HETATM   25  C14 UNL     1      26.599  -1.954   5.883  1.00  0.00     0.042 C
HETATM   26  C15 UNL     1      25.671  -2.378   3.545  1.00  0.00     0.042 C
ENDBRANCH  22  23
ENDBRANCH  14  22
BRANCH  21  27
HETATM   27  O3  UNL     1      21.135  -2.726   4.345  1.00  0.00    -0.394 OA
ATOM     28  H3  UNL     1      20.323  -2.541   3.887  1.00  0.00     0.210 HD
ENDBRANCH  21  27
ENDBRANCH   7  13
BRANCH   9  29
HETATM   29  O5  UNL     1      19.203  -4.156  10.772  1.00  0.00    -0.340 OA
ATOM     30  H5  UNL     1      18.332  -4.199  11.150  1.00  0.00     0.220 HD
ENDBRANCH   9  29
BRANCH   1  31
HETATM   31  C2  UNL     1      15.070  -6.626   6.785  1.00  0.00    -0.028 C
HETATM   32  C1  UNL     1      13.991  -6.175   6.117  1.00  0.00     0.007 C
ENDBRANCH   1  31
TORSDOF 6
ENDMDL