MODEL 1
REMARK VINA RESULT: -8.664094550      0.000      0.000
REMARK  8 active torsions:
REMARK  status: ('A' for Active; 'I' for Inactive)
REMARK    1  A    between atoms: C2_2  and  O1_3
REMARK    2  A    between atoms: O1_3  and  C3_4
REMARK    3  A    between atoms: C4_5  and  S1_6
REMARK    4  A    between atoms: S1_6  and  N1_9
REMARK    5  A    between atoms: N1_9  and  C5_11
REMARK    6  A    between atoms: C12_21  and  N3_22
REMARK       I    between atoms: N3_22  and  C13_24
REMARK    7  A    between atoms: C13_24  and  C14_26
REMARK    8  A    between atoms: C17_29  and  C18_30
ROOT
HETATM    1  C3  UNL     1     -13.202 -38.823 -11.510  1.00  0.00     0.133 A
HETATM    2  C4  UNL     1     -13.777 -38.283 -12.617  1.00  0.00     0.116 A
HETATM    3  C10 UNL     1     -14.724 -39.101 -13.264  1.00  0.00     0.030 A
HETATM    4  C11 UNL     1     -15.033 -40.357 -12.802  1.00  0.00     0.034 A
HETATM    5  C12 UNL     1     -14.460 -40.918 -11.690  1.00  0.00     0.076 A
HETATM    6  C24 UNL     1     -13.522 -40.104 -11.048  1.00  0.00     0.177 A
HETATM    7  F1  UNL     1     -12.895 -40.563  -9.942  1.00  0.00    -0.201 F
ENDROOT
BRANCH   5   8
HETATM    8  N3  UNL     1     -14.735 -42.194 -11.175  1.00  0.00    -0.324 N
HETATM    9  C13 UNL     1     -15.702 -42.581 -10.253  1.00  0.00     0.226 C
HETATM   10  O5  UNL     1     -16.512 -41.789  -9.724  1.00  0.00    -0.273 OA
ATOM     11  H3  UNL     1     -14.140 -42.945 -11.526  1.00  0.00     0.169 HD
BRANCH   9  12
HETATM   12  C14 UNL     1     -15.859 -43.995  -9.809  1.00  0.00     0.078 C
HETATM   13  C15 UNL     1     -15.131 -44.844 -10.833  1.00  0.00     0.014 C
HETATM   14  C16 UNL     1     -15.389 -46.319 -10.624  1.00  0.00     0.006 C
HETATM   15  C17 UNL     1     -15.897 -46.536  -9.235  1.00  0.00    -0.007 C
HETATM   16  C22 UNL     1     -15.064 -45.727  -8.278  1.00  0.00     0.006 C
HETATM   17  C23 UNL     1     -15.233 -44.251  -8.467  1.00  0.00     0.014 C
BRANCH  15  18
HETATM   18  C18 UNL     1     -15.915 -47.978  -8.825  1.00  0.00    -0.048 C
HETATM   19  C19 UNL     1     -16.975 -48.785  -9.489  1.00  0.00     0.015 C
HETATM   20  C20 UNL     1     -16.166 -48.023  -7.321  1.00  0.00     0.015 C
HETATM   21  C21 UNL     1     -14.563 -48.578  -9.106  1.00  0.00     0.015 C
ENDBRANCH  15  18
ENDBRANCH   9  12
ENDBRANCH   5   8
BRANCH   1  22
HETATM   22  O1  UNL     1     -12.263 -38.098 -10.776  1.00  0.00    -0.347 OA
BRANCH  22  23
HETATM   23  C2  UNL     1     -10.895 -38.325 -10.833  1.00  0.00     0.171 C
HETATM   24  C1  UNL     1     -10.190 -38.422 -12.112  1.00  0.00     0.034 C
ENDBRANCH  22  23
ENDBRANCH   1  22
BRANCH   2  25
HETATM   25  S1  UNL     1     -13.366 -36.757 -13.351  1.00  0.00     0.267 S
HETATM   26  O2  UNL     1     -14.616 -36.211 -14.023  1.00  0.00    -0.200 OA
HETATM   27  O3  UNL     1     -12.429 -37.030 -14.551  1.00  0.00    -0.200 OA
BRANCH  25  28
HETATM   28  N1  UNL     1     -12.700 -35.562 -12.391  1.00  0.00    -0.258 N
ATOM     29  H1  UNL     1     -11.781 -35.193 -12.633  1.00  0.00     0.181 HD
BRANCH  28  30
HETATM   30  C5  UNL     1     -13.305 -35.088 -11.355  1.00  0.00     0.187 A
HETATM   31  O4  UNL     1     -14.567 -34.771 -11.193  1.00  0.00    -0.218 OA
HETATM   32  N2  UNL     1     -14.788 -34.322  -9.995  1.00  0.00    -0.263 N
HETATM   33  C6  UNL     1     -13.647 -34.318  -9.273  1.00  0.00     0.039 A
ATOM     34  H2  UNL     1     -15.696 -34.016  -9.647  1.00  0.00     0.194 HD
HETATM   35  C7  UNL     1     -13.429 -33.891  -7.867  1.00  0.00     0.071 C
HETATM   36  C8  UNL     1     -12.687 -34.814 -10.156  1.00  0.00     0.016 A
HETATM   37  C9  UNL     1     -11.247 -35.019  -9.874  1.00  0.00     0.055 C
ENDBRANCH  28  30
ENDBRANCH  25  28
ENDBRANCH   2  25
TORSDOF 8
ENDMDL