MODEL 4
REMARK VINA RESULT: -8.968115755      3.986      7.695
REMARK  7 active torsions:
REMARK  status: ('A' for Active; 'I' for Inactive)
REMARK    1  A    between atoms: C2_2  and  C4_4
REMARK    2  A    between atoms: C4_4  and  C5_5
REMARK    3  A    between atoms: C6_8  and  O1_9
REMARK    4  A    between atoms: O1_9  and  C7_10
REMARK       I    between atoms: C7_10  and  N2_12
REMARK    5  A    between atoms: N2_12  and  C8_14
REMARK    6  A    between atoms: C19_25  and  N3_26
REMARK    7  A    between atoms: C21_28  and  C22_29
ROOT
HETATM    1  C5  UNL     1     -16.050 -37.662 -15.334  1.00  0.00     0.009 A
HETATM    2  N1  UNL     1     -17.135 -38.170 -15.000  1.00  0.00    -0.368 N
ATOM      3  H1  UNL     1     -17.411 -39.107 -15.292  1.00  0.00     0.161 HD
HETATM    4  C6  UNL     1     -17.948 -37.366 -14.200  1.00  0.00     0.234 A
HETATM    5  C18 UNL     1     -17.210 -36.071 -14.022  1.00  0.00     0.087 A
HETATM    6  C19 UNL     1     -15.944 -36.306 -14.760  1.00  0.00     0.156 A
ENDROOT
BRANCH   6   7
HETATM    7  N3  UNL     1     -14.761 -36.156 -13.926  1.00  0.00    -0.292 N
HETATM    8  C20 UNL     1     -14.705 -35.733 -12.664  1.00  0.00     0.124 A
HETATM    9  C21 UNL     1     -13.404 -35.742 -12.262  1.00  0.00     0.009 A
HETATM   10  C28 UNL     1     -12.693 -36.193 -13.349  1.00  0.00     0.121 A
HETATM   11  N5  UNL     1     -13.555 -36.431 -14.335  1.00  0.00    -0.308 N
ATOM     12  H5  UNL     1     -13.310 -36.776 -15.263  1.00  0.00     0.186 HD
BRANCH   9  13
HETATM   13  C22 UNL     1     -12.818 -35.371 -10.975  1.00  0.00    -0.008 A
HETATM   14  C23 UNL     1     -11.590 -35.726 -10.636  1.00  0.00     0.101 A
HETATM   15  N4  UNL     1     -11.020 -35.358  -9.370  1.00  0.00    -0.361 N
HETATM   16  C24 UNL     1     -11.771 -34.591  -8.434  1.00  0.00     0.100 A
ATOM     17  H4  UNL     1     -10.068 -35.648  -9.140  1.00  0.00     0.165 HD
HETATM   18  C25 UNL     1     -11.269 -34.239  -7.261  1.00  0.00     0.293 C
HETATM   19  C26 UNL     1     -13.128 -34.215  -8.843  1.00  0.00     0.036 A
HETATM   20  F1  UNL     1     -12.044 -33.510  -6.425  1.00  0.00    -0.171 F
HETATM   21  F2  UNL     1     -10.017 -34.622  -6.960  1.00  0.00    -0.171 F
HETATM   22  C27 UNL     1     -13.590 -34.589 -10.024  1.00  0.00     0.016 A
ENDBRANCH   9  13
ENDBRANCH   6   7
BRANCH   1  23
HETATM   23  C4  UNL     1     -14.940 -38.216 -16.175  1.00  0.00     0.058 C
BRANCH  23  24
HETATM   24  C2  UNL     1     -14.624 -39.640 -15.859  1.00  0.00    -0.017 C
HETATM   25  C1  UNL     1     -13.716 -39.820 -14.679  1.00  0.00     0.010 C
HETATM   26  C3  UNL     1     -13.951 -40.260 -17.063  1.00  0.00     0.010 C
ENDBRANCH  23  24
ENDBRANCH   1  23
BRANCH   4  27
HETATM   27  O1  UNL     1     -18.188 -37.930 -12.908  1.00  0.00    -0.278 OA
BRANCH  27  28
HETATM   28  C7  UNL     1     -17.797 -39.241 -12.605  1.00  0.00     0.363 C
HETATM   29  O2  UNL     1     -18.628 -40.121 -12.906  1.00  0.00    -0.238 OA
HETATM   30  N2  UNL     1     -16.574 -39.555 -12.012  1.00  0.00    -0.328 N
ATOM     31  H2  UNL     1     -15.931 -38.798 -11.778  1.00  0.00     0.165 HD
BRANCH  30  32
HETATM   32  C8  UNL     1     -16.189 -40.914 -11.721  1.00  0.00     0.036 C
HETATM   33  C9  UNL     1     -16.194 -41.695 -12.919  1.00  0.00     0.035 C
HETATM   34  C10 UNL     1     -15.842 -43.094 -13.093  1.00  0.00    -0.012 C
HETATM   35  C11 UNL     1     -16.530 -44.144 -12.295  1.00  0.00     0.009 C
HETATM   36  C13 UNL     1     -14.568 -43.639 -12.590  1.00  0.00     0.009 C
HETATM   37  C12 UNL     1     -15.341 -44.126 -11.408  1.00  0.00    -0.013 C
HETATM   38  C14 UNL     1     -15.344 -43.362 -10.197  1.00  0.00     0.009 C
HETATM   39  C15 UNL     1     -15.667 -41.963 -10.026  1.00  0.00    -0.009 C
HETATM   40  C16 UNL     1     -16.942 -41.417 -10.523  1.00  0.00     0.035 C
HETATM   41  C17 UNL     1     -14.986 -40.931 -10.831  1.00  0.00     0.035 C
ENDBRANCH  30  32
ENDBRANCH  27  28
ENDBRANCH   4  27
TORSDOF 7
ENDMDL