MODEL 5
REMARK VINA RESULT: -7.776204548      5.626     10.125
REMARK  11 active torsions:
REMARK  status: ('A' for Active; 'I' for Inactive)
REMARK    1  A    between atoms: C2_2  and  C4_4
REMARK    2  A    between atoms: C4_4  and  C5_5
REMARK    3  A    between atoms: C10_10  and  O1_11
REMARK    4  A    between atoms: C11_13  and  C12_14
REMARK    5  A    between atoms: C13_15  and  C14_16
REMARK    6  A    between atoms: C14_16  and  O3_18
REMARK    7  A    between atoms: O3_18  and  C15_19
REMARK    8  A    between atoms: C15_19  and  C16_20
REMARK    9  A    between atoms: C16_20  and  C17_21
REMARK   10  A    between atoms: C18_22  and  C19_23
REMARK   11  A    between atoms: C26_32  and  O4_33
ROOT
HETATM    1  C5  UNL     1      -6.292 -37.283 -16.146  1.00  0.00     0.164 C
HETATM    2  C6  UNL     1      -5.845 -36.520 -14.919  1.00  0.00     0.038 C
HETATM    3  C7  UNL     1      -6.610 -37.137 -13.739  1.00  0.00     0.047 C
HETATM    4  C8  UNL     1      -8.058 -37.177 -14.144  1.00  0.00     0.125 C
HETATM    5  C9  UNL     1      -8.589 -38.575 -14.302  1.00  0.00     0.076 C
HETATM    6  C10 UNL     1     -10.080 -38.348 -14.194  1.00  0.00     0.131 C
HETATM    7  C11 UNL     1     -10.174 -37.436 -12.973  1.00  0.00     0.069 C
HETATM    8  C26 UNL     1      -8.914 -36.583 -13.078  1.00  0.00     0.166 C
HETATM    9  O5  UNL     1      -8.179 -36.435 -15.320  1.00  0.00    -0.227 OA
HETATM   10  O6  UNL     1      -7.635 -37.063 -16.342  1.00  0.00    -0.234 OA
ENDROOT
BRANCH   7  11
HETATM   11  C12 UNL     1     -10.104 -38.295 -11.796  1.00  0.00    -0.011 C
HETATM   12  C13 UNL     1     -11.042 -38.660 -10.981  1.00  0.00     0.079 C
BRANCH  12  13
HETATM   13  C14 UNL     1     -12.430 -38.253 -11.096  1.00  0.00     0.282 C
HETATM   14  O2  UNL     1     -12.725 -37.111 -10.578  1.00  0.00    -0.260 OA
BRANCH  13  15
HETATM   15  O3  UNL     1     -13.429 -38.909 -11.666  1.00  0.00    -0.317 OA
BRANCH  15  16
HETATM   16  C15 UNL     1     -14.038 -40.101 -11.630  1.00  0.00     0.191 C
BRANCH  16  17
HETATM   17  C16 UNL     1     -14.603 -40.631 -10.394  1.00  0.00     0.121 C
BRANCH  17  18
HETATM   18  C17 UNL     1     -14.850 -42.041 -10.349  1.00  0.00    -0.099 C
HETATM   19  C18 UNL     1     -15.078 -43.245 -10.252  1.00  0.00    -0.063 C
BRANCH  19  20
HETATM   20  C19 UNL     1     -15.328 -44.650 -10.121  1.00  0.00     0.061 A
HETATM   21  C20 UNL     1     -15.676 -45.347 -11.254  1.00  0.00     0.054 A
HETATM   22 CL1  UNL     1     -15.817 -44.562 -12.823  1.00  0.00    -0.083 Cl
HETATM   23  C21 UNL     1     -15.921 -46.704 -11.145  1.00  0.00     0.026 A
HETATM   24  C22 UNL     1     -15.827 -47.375  -9.946  1.00  0.00     0.010 A
HETATM   25  C23 UNL     1     -15.482 -46.690  -8.818  1.00  0.00    -0.039 A
HETATM   26  C24 UNL     1     -15.356 -47.321  -7.484  1.00  0.00     0.050 C
HETATM   27  C25 UNL     1     -15.240 -45.339  -8.933  1.00  0.00     0.060 A
HETATM   28 CL2  UNL     1     -14.791 -44.429  -7.488  1.00  0.00    -0.082 Cl
ENDBRANCH  19  20
ENDBRANCH  17  18
ENDBRANCH  16  17
ENDBRANCH  15  16
ENDBRANCH  13  15
ENDBRANCH  12  13
ENDBRANCH   7  11
BRANCH   6  29
HETATM   29  O1  UNL     1     -10.683 -39.569 -13.911  1.00  0.00    -0.395 OA
ATOM     30  H1  UNL     1     -11.494 -39.618 -14.402  1.00  0.00     0.210 HD
ENDBRANCH   6  29
BRANCH   8  31
HETATM   31  O4  UNL     1      -8.300 -36.598 -11.834  1.00  0.00    -0.392 OA
ATOM     32  H4  UNL     1      -8.856 -36.242 -11.150  1.00  0.00     0.210 HD
ENDBRANCH   8  31
BRANCH   1  33
HETATM   33  C4  UNL     1      -5.462 -36.908 -17.358  1.00  0.00     0.068 C
BRANCH  33  34
HETATM   34  C2  UNL     1      -5.008 -38.103 -18.104  1.00  0.00    -0.091 C
HETATM   35  C1  UNL     1      -4.944 -38.057 -19.418  1.00  0.00     0.014 C
HETATM   36  C3  UNL     1      -4.628 -39.337 -17.388  1.00  0.00     0.042 C
ENDBRANCH  33  34
ENDBRANCH   1  33
TORSDOF 11
ENDMDL