MODEL 3
REMARK VINA RESULT: -9.447999698      1.942      2.738
REMARK  6 active torsions:
REMARK  status: ('A' for Active; 'I' for Inactive)
REMARK    1  A    between atoms: C2_5  and  C3_7
REMARK    2  A    between atoms: C8_12  and  C9_13
REMARK    3  A    between atoms: C9_13  and  O1_14
REMARK    4  A    between atoms: O1_14  and  C10_15
REMARK    5  A    between atoms: C13_20  and  C14_21
REMARK    6  A    between atoms: C14_21  and  C15_23
ROOT
HETATM    1  N1  UNL     1     -10.814 -34.978  -8.172  1.00  0.00    -0.172 NA
HETATM    2  C1  UNL     1     -11.479 -34.913  -9.118  1.00  0.00     0.182 C
HETATM    3  N2  UNL     1     -12.302 -34.825 -10.243  1.00  0.00    -0.285 N
ATOM      4  H2  UNL     1     -12.521 -33.898 -10.610  1.00  0.00     0.179 HD
HETATM    5  C2  UNL     1     -12.798 -35.847 -10.839  1.00  0.00     0.106 C
HETATM    6  N3  UNL     1     -12.506 -37.143 -10.340  1.00  0.00    -0.086 NA
ENDROOT
BRANCH   5   7
HETATM    7  C3  UNL     1     -13.629 -35.666 -12.018  1.00  0.00     0.057 C
HETATM    8  C4  UNL     1     -14.101 -34.194 -12.127  1.00  0.00     0.012 C
HETATM    9  C5  UNL     1     -15.156 -34.148 -13.158  1.00  0.00     0.001 C
HETATM   10  C6  UNL     1     -14.833 -34.732 -14.493  1.00  0.00     0.001 C
HETATM   11  C7  UNL     1     -13.933 -35.911 -14.484  1.00  0.00     0.007 C
HETATM   12  C8  UNL     1     -12.988 -35.960 -13.306  1.00  0.00     0.021 C
BRANCH  12  13
HETATM   13  C9  UNL     1     -12.196 -37.230 -13.349  1.00  0.00     0.181 C
BRANCH  13  14
HETATM   14  O1  UNL     1     -12.737 -38.248 -14.119  1.00  0.00    -0.345 OA
BRANCH  14  15
HETATM   15  C10 UNL     1     -13.750 -39.142 -13.666  1.00  0.00     0.142 A
HETATM   16  C11 UNL     1     -14.766 -39.452 -14.538  1.00  0.00     0.193 A
HETATM   17  F1  UNL     1     -14.930 -38.985 -15.827  1.00  0.00    -0.195 F
HETATM   18  S1  UNL     1     -15.733 -40.522 -13.633  1.00  0.00    -0.054 SA
HETATM   19  C12 UNL     1     -14.840 -40.556 -12.185  1.00  0.00     0.053 A
HETATM   20  C13 UNL     1     -14.760 -41.091 -10.881  1.00  0.00     0.050 A
HETATM   21  C22 UNL     1     -13.795 -39.720 -12.444  1.00  0.00     0.087 A
HETATM   22  C21 UNL     1     -13.632 -40.542 -10.374  1.00  0.00     0.105 A
HETATM   23  N4  UNL     1     -13.048 -39.726 -11.285  1.00  0.00    -0.361 N
ATOM     24  H4  UNL     1     -12.188 -39.199 -11.136  1.00  0.00     0.165 HD
BRANCH  20  25
HETATM   25  C14 UNL     1     -15.771 -41.993 -10.397  1.00  0.00     0.195 C
HETATM   26  O2  UNL     1     -16.997 -41.576 -10.392  1.00  0.00    -0.287 OA
BRANCH  25  27
HETATM   27  C15 UNL     1     -15.580 -43.339  -9.910  1.00  0.00     0.015 A
HETATM   28  C16 UNL     1     -15.670 -44.425 -10.731  1.00  0.00     0.017 A
HETATM   29  C17 UNL     1     -15.496 -45.734 -10.263  1.00  0.00     0.020 A
HETATM   30  C18 UNL     1     -15.228 -45.968  -8.950  1.00  0.00     0.011 A
HETATM   31 BR1  UNL     1     -15.004 -47.763  -8.338  1.00  0.00    -0.051 Br
HETATM   32  C19 UNL     1     -15.134 -44.883  -8.107  1.00  0.00     0.020 A
HETATM   33  C20 UNL     1     -15.306 -43.596  -8.577  1.00  0.00     0.017 A
ENDBRANCH  25  27
ENDBRANCH  20  25
ENDBRANCH  14  15
ENDBRANCH  13  14
ENDBRANCH  12  13
ENDBRANCH   5   7
TORSDOF 6
ENDMDL