MODEL 1
REMARK VINA RESULT: -8.732601291      0.000      0.000
REMARK  8 active torsions:
REMARK  status: ('A' for Active; 'I' for Inactive)
REMARK    1  A    between atoms: C6_7  and  C7_8
REMARK    2  A    between atoms: N1_15  and  C13_16
REMARK    3  A    between atoms: C13_16  and  C14_17
REMARK    4  A    between atoms: C14_17  and  O1_18
REMARK    5  A    between atoms: C14_17  and  C15_20
REMARK    6  A    between atoms: C15_20  and  N2_21
REMARK    7  A    between atoms: C18_24  and  N3_25
REMARK    8  A    between atoms: N3_25  and  C19_27
ROOT
HETATM    1  C13 UNL     1     -12.322 -39.137 -14.914  1.00  0.00     0.091 C
ENDROOT
BRANCH   1   2
HETATM    2  N1  UNL     1     -13.559 -39.400 -14.314  1.00  0.00    -0.390 N
HETATM    3  C12 UNL     1     -14.689 -39.591 -15.158  1.00  0.00     0.123 C
HETATM    4  C11 UNL     1     -15.416 -40.866 -14.832  1.00  0.00     0.042 C
HETATM    5  C6  UNL     1     -15.928 -40.784 -13.380  1.00  0.00     0.053 C
HETATM    6  C5  UNL     1     -16.424 -42.144 -13.079  1.00  0.00     0.105 C
HETATM    7  C28 UNL     1     -14.890 -40.246 -12.484  1.00  0.00     0.025 C
HETATM    8  C4  UNL     1     -16.364 -42.619 -11.859  1.00  0.00     0.021 C
HETATM    9  F1  UNL     1     -16.960 -42.911 -14.094  1.00  0.00    -0.210 F
HETATM   10  C2  UNL     1     -15.802 -41.834 -10.762  1.00  0.00    -0.027 C
HETATM   11  C1  UNL     1     -15.208 -42.830  -9.753  1.00  0.00     0.019 C
HETATM   12  C3  UNL     1     -16.870 -41.089  -9.995  1.00  0.00     0.019 C
HETATM   13  C29 UNL     1     -14.671 -40.940 -11.188  1.00  0.00     0.020 C
HETATM   14  C27 UNL     1     -13.538 -40.348 -13.230  1.00  0.00     0.128 C
BRANCH   5  15
HETATM   15  C7  UNL     1     -17.155 -39.908 -13.492  1.00  0.00    -0.002 A
HETATM   16  C8  UNL     1     -17.585 -38.855 -12.750  1.00  0.00     0.016 A
HETATM   17  C9  UNL     1     -18.732 -38.259 -13.106  1.00  0.00     0.008 A
HETATM   18  C10 UNL     1     -19.391 -38.758 -14.196  1.00  0.00     0.050 A
HETATM   19  S1  UNL     1     -18.395 -40.043 -14.692  1.00  0.00    -0.105 SA
ENDBRANCH   5  15
ENDBRANCH   1   2
BRANCH   1  20
HETATM   20  C14 UNL     1     -11.067 -39.564 -14.252  1.00  0.00     0.184 C
BRANCH  20  21
HETATM   21  O1  UNL     1     -10.450 -40.639 -14.877  1.00  0.00    -0.389 OA
ATOM     22  H1  UNL     1      -9.517 -40.693 -14.703  1.00  0.00     0.210 HD
ENDBRANCH  20  21
BRANCH  20  23
HETATM   23  C15 UNL     1     -10.093 -38.411 -14.057  1.00  0.00     0.309 C
BRANCH  23  24
HETATM   24  N2  UNL     1      -9.762 -38.150 -12.710  1.00  0.00     0.091 N
HETATM   25  C16 UNL     1     -10.658 -38.653 -11.709  1.00  0.00     0.274 C
HETATM   26  C17 UNL     1     -10.602 -37.755 -10.456  1.00  0.00     0.055 C
HETATM   27  C18 UNL     1     -11.350 -36.467 -10.720  1.00  0.00     0.085 C
HETATM   28  C25 UNL     1     -11.057 -36.131 -12.186  1.00  0.00     0.055 C
HETATM   29  C26 UNL     1      -9.698 -36.717 -12.507  1.00  0.00     0.274 C
BRANCH  27  30
HETATM   30  N3  UNL     1     -10.800 -35.430  -9.911  1.00  0.00    -0.385 N
ATOM     31  H3  UNL     1      -9.856 -35.099 -10.112  1.00  0.00     0.160 HD
BRANCH  30  32
HETATM   32  C19 UNL     1     -11.527 -34.830  -8.821  1.00  0.00     0.028 A
HETATM   33  C20 UNL     1     -10.960 -34.640  -7.581  1.00  0.00     0.032 A
HETATM   34  C21 UNL     1     -11.642 -34.069  -6.521  1.00  0.00     0.044 A
HETATM   35  C22 UNL     1     -12.951 -33.668  -6.704  1.00  0.00     0.116 A
HETATM   36  F2  UNL     1     -13.629 -33.107  -5.678  1.00  0.00    -0.206 F
HETATM   37  C23 UNL     1     -13.532 -33.854  -7.944  1.00  0.00     0.044 A
HETATM   38  C24 UNL     1     -12.839 -34.424  -8.989  1.00  0.00     0.032 A
ENDBRANCH  30  32
ENDBRANCH  27  30
ENDBRANCH  23  24
ENDBRANCH  20  23
ENDBRANCH   1  20
TORSDOF 8
ENDMDL