MODEL 4
REMARK VINA RESULT: -8.174053301      3.748      4.980
REMARK  8 active torsions:
REMARK  status: ('A' for Active; 'I' for Inactive)
REMARK    1  A    between atoms: C4_5  and  C5_6
REMARK    2  A    between atoms: C5_6  and  C6_7
REMARK    3  A    between atoms: C6_7  and  O1_8
REMARK    4  A    between atoms: C6_7  and  C7_10
REMARK    5  A    between atoms: C10_15  and  N3_16
REMARK    6  A    between atoms: N3_16  and  C11_18
REMARK    7  A    between atoms: C14_21  and  O2_22
REMARK    8  A    between atoms: O2_22  and  C15_23
ROOT
HETATM    1  C7  UNL     1     -13.741 -39.473 -11.521  1.00  0.00     0.056 A
HETATM    2  C8  UNL     1     -14.235 -39.334 -12.814  1.00  0.00     0.046 A
HETATM    3  C9  UNL     1     -15.389 -39.963 -13.212  1.00  0.00     0.108 A
HETATM    4  N2  UNL     1     -16.045 -40.724 -12.333  1.00  0.00    -0.202 N
ATOM      5  H2  UNL     1     -16.903 -41.199 -12.612  1.00  0.00     0.183 HD
HETATM    6  C10 UNL     1     -15.581 -40.866 -11.089  1.00  0.00     0.682 A
HETATM    7  N4  UNL     1     -14.458 -40.250 -10.708  1.00  0.00    -0.193 N
ATOM      8  H4  UNL     1     -14.133 -40.381  -9.750  1.00  0.00     0.184 HD
ENDROOT
BRANCH   6   9
HETATM    9  N3  UNL     1     -16.276 -41.620 -10.301  1.00  0.00    -0.192 N
ATOM     10  H3  UNL     1     -17.118 -41.257  -9.855  1.00  0.00     0.184 HD
BRANCH   9  11
HETATM   11  C11 UNL     1     -15.858 -42.961 -10.061  1.00  0.00     0.050 A
HETATM   12  C12 UNL     1     -15.866 -43.928 -11.034  1.00  0.00     0.033 A
HETATM   13  C13 UNL     1     -15.452 -45.233 -10.766  1.00  0.00     0.040 A
HETATM   14  C14 UNL     1     -15.016 -45.625  -9.525  1.00  0.00     0.086 A
HETATM   15  C20 UNL     1     -15.016 -44.627  -8.547  1.00  0.00     0.046 A
HETATM   16 BR1  UNL     1     -14.417 -45.127  -6.799  1.00  0.00    -0.048 Br
HETATM   17  C21 UNL     1     -15.425 -43.336  -8.808  1.00  0.00     0.052 A
BRANCH  14  18
HETATM   18  O2  UNL     1     -14.591 -46.870  -9.155  1.00  0.00    -0.344 OA
BRANCH  18  19
HETATM   19  C15 UNL     1     -15.335 -48.015  -9.330  1.00  0.00     0.129 C
HETATM   20  C16 UNL     1     -14.504 -49.284  -9.280  1.00  0.00     0.032 C
HETATM   21  C17 UNL     1     -15.150 -50.147  -8.220  1.00  0.00     0.002 C
HETATM   22  C18 UNL     1     -16.575 -49.634  -8.193  1.00  0.00     0.002 C
HETATM   23  C19 UNL     1     -16.314 -48.124  -8.169  1.00  0.00     0.032 C
ENDBRANCH  18  19
ENDBRANCH  14  18
ENDBRANCH   9  11
ENDBRANCH   6   9
BRANCH   1  24
HETATM   24  C6  UNL     1     -12.474 -38.780 -11.102  1.00  0.00     0.168 C
BRANCH  24  25
HETATM   25  C5  UNL     1     -11.768 -38.384 -12.365  1.00  0.00     0.043 C
BRANCH  25  26
HETATM   26  C4  UNL     1     -10.271 -38.310 -12.243  1.00  0.00    -0.007 C
HETATM   27  C3  UNL     1      -9.886 -36.884 -12.639  1.00  0.00     0.035 C
HETATM   28  C2  UNL     1      -8.388 -36.877 -12.746  1.00  0.00     0.274 C
HETATM   29  N1  UNL     1      -7.966 -37.595 -13.917  1.00  0.00     0.102 N
HETATM   30  C1  UNL     1      -8.020 -36.682 -15.044  1.00  0.00     0.311 C
HETATM   31  C23 UNL     1      -8.780 -38.738 -14.227  1.00  0.00     0.318 C
HETATM   32  C22 UNL     1      -9.527 -39.298 -13.055  1.00  0.00     0.056 C
HETATM   33 CL1  UNL     1      -9.942 -38.425 -15.537  1.00  0.00    -0.092 Cl
ENDBRANCH  25  26
ENDBRANCH  24  25
BRANCH  24  34
HETATM   34  O1  UNL     1     -12.873 -37.665 -10.364  1.00  0.00    -0.389 OA
ATOM     35  H1  UNL     1     -12.132 -37.227  -9.963  1.00  0.00     0.210 HD
ENDBRANCH  24  34
ENDBRANCH   1  24
TORSDOF 8
ENDMDL