MODEL 3
REMARK VINA RESULT: -8.572498733      1.153      1.581
REMARK  8 active torsions:
REMARK  status: ('A' for Active; 'I' for Inactive)
REMARK    1  A    between atoms: C4_8  and  C5_9
REMARK    2  A    between atoms: C7_11  and  C8_12
REMARK    3  A    between atoms: C13_17  and  C14_18
REMARK    4  A    between atoms: C14_18  and  N3_19
REMARK    5  A    between atoms: C17_22  and  O1_23
REMARK    6  A    between atoms: C17_22  and  C18_25
REMARK    7  A    between atoms: C18_25  and  C19_26
REMARK    8  A    between atoms: C25_32  and  N4_33
ROOT
HETATM    1  C5  UNL     1     -14.222 -35.648 -13.750  1.00  0.00     0.027 A
HETATM    2  C6  UNL     1     -12.967 -35.780 -13.091  1.00  0.00     0.024 A
HETATM    3  C7  UNL     1     -12.597 -36.922 -12.434  1.00  0.00    -0.049 A
HETATM    4  C12 UNL     1     -13.488 -37.967 -12.427  1.00  0.00     0.019 A
HETATM    5  C13 UNL     1     -14.726 -37.857 -13.070  1.00  0.00    -0.002 A
HETATM    6  C25 UNL     1     -15.082 -36.692 -13.727  1.00  0.00     0.051 A
ENDROOT
BRANCH   5   7
HETATM    7  C14 UNL     1     -15.621 -39.035 -13.083  1.00  0.00     0.313 C
BRANCH   7   8
HETATM    8  N3  UNL     1     -15.291 -39.977 -12.008  1.00  0.00     0.092 N
HETATM    9  C15 UNL     1     -15.034 -41.258 -12.727  1.00  0.00     0.276 C
HETATM   10  C16 UNL     1     -14.575 -42.246 -11.720  1.00  0.00     0.068 C
HETATM   11  C17 UNL     1     -15.343 -42.321 -10.442  1.00  0.00     0.064 C
HETATM   12  C23 UNL     1     -16.439 -41.331 -10.288  1.00  0.00     0.068 C
HETATM   13  C24 UNL     1     -16.555 -40.295 -11.342  1.00  0.00     0.276 C
BRANCH  11  14
HETATM   14  O1  UNL     1     -14.446 -42.218  -9.381  1.00  0.00    -0.389 OA
ATOM     15  H1  UNL     1     -13.878 -42.979  -9.392  1.00  0.00     0.210 HD
ENDBRANCH  11  14
BRANCH  11  16
HETATM   16  C18 UNL     1     -15.923 -43.739 -10.338  1.00  0.00     0.065 C
BRANCH  16  17
HETATM   17  C19 UNL     1     -15.497 -44.464  -9.143  1.00  0.00    -0.022 C
HETATM   18  C20 UNL     1     -15.118 -45.744  -9.120  1.00  0.00    -0.091 C
HETATM   19  C21 UNL     1     -14.700 -46.393  -7.837  1.00  0.00     0.042 C
HETATM   20  C22 UNL     1     -15.125 -46.525 -10.384  1.00  0.00     0.042 C
ENDBRANCH  16  17
ENDBRANCH  11  16
ENDBRANCH   7   8
ENDBRANCH   5   7
BRANCH   6  21
HETATM   21  N4  UNL     1     -16.377 -36.613 -14.339  1.00  0.00    -0.377 N
HETATM   22  C26 UNL     1     -16.598 -37.020 -15.700  1.00  0.00     0.126 C
HETATM   23  C27 UNL     1     -18.053 -37.344 -15.801  1.00  0.00     0.058 C
HETATM   24  C28 UNL     1     -18.668 -36.439 -14.773  1.00  0.00     0.189 C
HETATM   25  F1  UNL     1     -19.153 -35.264 -15.366  1.00  0.00    -0.248 F
HETATM   26  C29 UNL     1     -17.590 -36.129 -13.779  1.00  0.00     0.160 C
ENDBRANCH   6  21
BRANCH   3  27
HETATM   27  C8  UNL     1     -11.254 -36.980 -11.782  1.00  0.00    -0.024 C
HETATM   28  C9  UNL     1     -11.086 -35.752 -10.903  1.00  0.00     0.019 C
HETATM   29  C10 UNL     1     -11.087 -38.224 -10.959  1.00  0.00     0.019 C
HETATM   30  C11 UNL     1     -10.226 -36.914 -12.892  1.00  0.00     0.019 C
ENDBRANCH   3  27
BRANCH   1  31
HETATM   31  C4  UNL     1     -14.489 -34.403 -14.431  1.00  0.00     0.107 A
HETATM   32  C3  UNL     1     -14.675 -33.153 -13.808  1.00  0.00     0.130 A
HETATM   33  N2  UNL     1     -14.897 -32.242 -14.754  1.00  0.00    -0.330 N
HETATM   34  C2  UNL     1     -14.854 -32.906 -15.957  1.00  0.00     0.224 A
ATOM     35  H2  UNL     1     -15.066 -31.246 -14.613  1.00  0.00     0.168 HD
HETATM   36  N1  UNL     1     -15.030 -32.318 -17.086  1.00  0.00    -0.360 N
HETATM   37  O2  UNL     1     -14.613 -34.156 -15.678  1.00  0.00    -0.277 OA
HETATM   38  C1  UNL     1     -15.009 -32.870 -18.387  1.00  0.00     0.150 C
ATOM     39  H1  UNL     1     -15.208 -31.315 -17.037  1.00  0.00     0.162 HD
ENDBRANCH   1  31
TORSDOF 8
ENDMDL