MODEL 4
REMARK VINA RESULT: -7.351262216      1.378      2.419
REMARK  8 active torsions:
REMARK  status: ('A' for Active; 'I' for Inactive)
REMARK    1  A    between atoms: C2_2  and  C3_3
REMARK    2  A    between atoms: C3_3  and  C4_4
REMARK    3  A    between atoms: C4_4  and  C5_5
REMARK    4  A    between atoms: C5_5  and  N1_6
REMARK    5  A    between atoms: N2_9  and  C8_10
REMARK    6  A    between atoms: C13_17  and  N3_18
REMARK    7  A    between atoms: C14_19  and  O1_20
REMARK    8  A    between atoms: C17_24  and  O2_25
ROOT
HETATM    1  C8  UNL     1     -15.787 -37.512 -15.560  1.00  0.00     0.062 A
HETATM    2  C9  UNL     1     -16.648 -37.287 -16.636  1.00  0.00     0.051 A
HETATM    3  C10 UNL     1     -16.592 -36.067 -17.271  1.00  0.00     0.016 A
HETATM    4 BR1  UNL     1     -17.793 -35.788 -18.752  1.00  0.00    -0.051 Br
HETATM    5  C11 UNL     1     -15.720 -35.074 -16.879  1.00  0.00     0.064 A
HETATM    6  C12 UNL     1     -14.888 -35.337 -15.814  1.00  0.00     0.147 A
HETATM    7  F1  UNL     1     -13.997 -34.411 -15.364  1.00  0.00    -0.204 F
HETATM    8  C13 UNL     1     -14.906 -36.560 -15.136  1.00  0.00     0.108 A
ENDROOT
BRANCH   8   9
HETATM    9  N3  UNL     1     -14.034 -36.796 -14.055  1.00  0.00    -0.266 N
HETATM   10  C14 UNL     1     -14.256 -36.600 -12.739  1.00  0.00     0.157 A
HETATM   11  C15 UNL     1     -13.119 -36.958 -12.058  1.00  0.00     0.012 A
HETATM   12  C16 UNL     1     -12.199 -37.376 -12.988  1.00  0.00     0.012 A
HETATM   13  C21 UNL     1     -12.456 -37.087 -10.738  1.00  0.00     0.047 C
HETATM   14  C17 UNL     1     -12.779 -37.271 -14.234  1.00  0.00     0.157 A
HETATM   15  C18 UNL     1     -10.960 -37.763 -12.230  1.00  0.00     0.047 C
HETATM   16  C19 UNL     1     -10.428 -36.521 -11.639  1.00  0.00    -0.021 C
HETATM   17  C22 UNL     1     -11.637 -38.370 -10.985  1.00  0.00     0.026 C
HETATM   18  C20 UNL     1     -11.337 -36.105 -10.728  1.00  0.00    -0.021 C
BRANCH  10  19
HETATM   19  O1  UNL     1     -15.461 -36.110 -12.183  1.00  0.00    -0.345 OA
ATOM     20  H1  UNL     1     -15.518 -35.489 -11.467  1.00  0.00     0.219 HD
ENDBRANCH  10  19
BRANCH  14  21
HETATM   21  O2  UNL     1     -12.139 -37.610 -15.435  1.00  0.00    -0.345 OA
ATOM     22  H2  UNL     1     -11.396 -37.186 -15.849  1.00  0.00     0.219 HD
ENDBRANCH  14  21
ENDBRANCH   8   9
BRANCH   1  23
HETATM   23  N2  UNL     1     -15.886 -38.766 -14.939  1.00  0.00    -0.375 N
HETATM   24  C7  UNL     1     -15.027 -39.853 -15.317  1.00  0.00     0.153 C
HETATM   25  C6  UNL     1     -14.500 -40.454 -14.026  1.00  0.00     0.292 C
HETATM   26  N1  UNL     1     -15.525 -40.920 -13.155  1.00  0.00     0.096 N
HETATM   27  C24 UNL     1     -16.845 -40.431 -13.424  1.00  0.00     0.236 C
HETATM   28  C23 UNL     1     -16.851 -38.993 -13.901  1.00  0.00     0.158 C
HETATM   29  C25 UNL     1     -17.633 -40.440 -12.134  1.00  0.00     0.044 C
BRANCH  26  30
HETATM   30  C5  UNL     1     -15.472 -42.367 -13.130  1.00  0.00     0.273 C
BRANCH  30  31
HETATM   31  C4  UNL     1     -14.907 -42.919 -11.864  1.00  0.00     0.030 C
BRANCH  31  32
HETATM   32  C3  UNL     1     -15.904 -43.498 -10.914  1.00  0.00     0.001 C
BRANCH  32  33
HETATM   33  C2  UNL     1     -15.913 -42.841  -9.550  1.00  0.00    -0.005 C
HETATM   34  C1  UNL     1     -15.204 -43.769  -8.590  1.00  0.00     0.005 C
ENDBRANCH  32  33
ENDBRANCH  31  32
ENDBRANCH  30  31
ENDBRANCH  26  30
ENDBRANCH   1  23
TORSDOF 8
ENDMDL