MODEL 1
REMARK VINA RESULT: -9.643443687      0.000      0.000
REMARK  7 active torsions:
REMARK  status: ('A' for Active; 'I' for Inactive)
REMARK    1  A    between atoms: C4_5  and  N1_6
REMARK    2  A    between atoms: N1_6  and  C5_8
REMARK    3  A    between atoms: N4_14  and  C7_16
REMARK    4  A    between atoms: C10_19  and  S1_20
REMARK    5  A    between atoms: S1_20  and  C11_21
REMARK    6  A    between atoms: C14_24  and  C15_25
REMARK    7  A    between atoms: C15_25  and  N5_26
ROOT
HETATM    1  C7  UNL     1     -15.219 -40.327 -13.720  1.00  0.00     0.084 C
HETATM    2  C8  UNL     1     -15.945 -41.549 -14.184  1.00  0.00     0.026 C
HETATM    3  C9  UNL     1     -15.370 -42.708 -13.404  1.00  0.00     0.017 C
HETATM    4  C10 UNL     1     -14.780 -42.121 -12.163  1.00  0.00     0.054 C
HETATM    5  C23 UNL     1     -14.397 -40.697 -12.507  1.00  0.00     0.040 C
ENDROOT
BRANCH   1   6
HETATM    6  N4  UNL     1     -16.126 -39.274 -13.305  1.00  0.00    -0.365 N
HETATM    7  C6  UNL     1     -15.656 -38.086 -12.985  1.00  0.00     0.163 A
HETATM    8  N3  UNL     1     -16.347 -37.019 -12.586  1.00  0.00    -0.278 N
HETATM    9  S2  UNL     1     -14.050 -37.507 -12.967  1.00  0.00    -0.015 SA
HETATM   10  N2  UNL     1     -15.717 -35.943 -12.318  1.00  0.00    -0.278 N
ATOM     11  H3  UNL     1     -17.362 -37.062 -12.498  1.00  0.00     0.189 HD
HETATM   12  C5  UNL     1     -14.390 -35.917 -12.442  1.00  0.00     0.167 A
ATOM     13  H2  UNL     1     -16.223 -35.112 -12.010  1.00  0.00     0.189 HD
ATOM     14  H4  UNL     1     -17.129 -39.454 -13.261  1.00  0.00     0.162 HD
BRANCH  12  15
HETATM   15  N1  UNL     1     -13.579 -34.907 -12.212  1.00  0.00    -0.333 N
ATOM     16  H1  UNL     1     -13.334 -34.239 -12.942  1.00  0.00     0.168 HD
BRANCH  15  17
HETATM   17  C4  UNL     1     -13.063 -34.798 -10.895  1.00  0.00     0.073 A
HETATM   18  C3  UNL     1     -13.816 -34.195  -9.911  1.00  0.00     0.036 A
HETATM   19  C2  UNL     1     -13.372 -34.060  -8.618  1.00  0.00     0.044 A
HETATM   20  C1  UNL     1     -12.143 -34.532  -8.269  1.00  0.00     0.119 A
HETATM   21  F1  UNL     1     -11.637 -34.434  -7.008  1.00  0.00    -0.206 F
HETATM   22  C25 UNL     1     -11.357 -35.141  -9.221  1.00  0.00     0.086 A
HETATM   23  C24 UNL     1     -11.823 -35.269 -10.526  1.00  0.00     0.145 A
HETATM   24  F2  UNL     1     -11.028 -35.873 -11.438  1.00  0.00    -0.204 F
ENDBRANCH  15  17
ENDBRANCH  12  15
ENDBRANCH   1   6
BRANCH   4  25
HETATM   25  S1  UNL     1     -15.867 -42.192 -10.724  1.00  0.00    -0.125 SA
BRANCH  25  26
HETATM   26  C11 UNL     1     -15.566 -43.717  -9.851  1.00  0.00     0.001 A
HETATM   27  C12 UNL     1     -15.328 -43.688  -8.495  1.00  0.00     0.019 A
HETATM   28  C13 UNL     1     -15.088 -44.821  -7.772  1.00  0.00     0.010 A
HETATM   29  C14 UNL     1     -15.090 -46.021  -8.437  1.00  0.00    -0.030 A
HETATM   30  C21 UNL     1     -15.323 -46.116  -9.799  1.00  0.00     0.010 A
HETATM   31  C22 UNL     1     -15.560 -44.939 -10.484  1.00  0.00     0.019 A
BRANCH  29  32
HETATM   32  C15 UNL     1     -14.838 -47.279  -7.696  1.00  0.00     0.311 C
BRANCH  32  33
HETATM   33  N5  UNL     1     -15.825 -48.249  -8.073  1.00  0.00     0.092 N
HETATM   34  C16 UNL     1     -15.252 -49.563  -8.191  1.00  0.00     0.272 C
HETATM   35  C17 UNL     1     -15.572 -50.404  -6.978  1.00  0.00     0.030 C
HETATM   36  C18 UNL     1     -17.071 -50.673  -6.921  1.00  0.00     0.003 C
HETATM   37  C19 UNL     1     -17.810 -49.427  -7.389  1.00  0.00     0.030 C
HETATM   38  C20 UNL     1     -16.937 -48.204  -7.171  1.00  0.00     0.272 C
ENDBRANCH  32  33
ENDBRANCH  29  32
ENDBRANCH  25  26
ENDBRANCH   4  25
TORSDOF 7
ENDMDL