MODEL 4
REMARK VINA RESULT: -6.398402161      7.394     11.572
REMARK  9 active torsions:
REMARK  status: ('A' for Active; 'I' for Inactive)
REMARK    1  A    between atoms: C2_2  and  C3_3
REMARK    2  A    between atoms: C3_3  and  C4_4
REMARK    3  A    between atoms: C5_6  and  C6_7
REMARK    4  A    between atoms: C6_7  and  C7_8
REMARK    5  A    between atoms: C8_9  and  O1_10
REMARK    6  A    between atoms: O1_10  and  C9_11
REMARK    7  A    between atoms: C20_25  and  O4_26
REMARK    8  A    between atoms: C21_28  and  O5_29
REMARK    9  A    between atoms: C21_28  and  C22_31
ROOT
HETATM    1  C7  UNL     1     -14.547 -48.405  -9.868  1.00  0.00     0.057 C
HETATM    2  C8  UNL     1     -15.771 -48.979 -10.557  1.00  0.00     0.142 C
HETATM    3  C11 UNL     1     -15.351 -50.287 -11.227  1.00  0.00     0.074 C
HETATM    4  C12 UNL     1     -14.374 -49.858 -12.288  1.00  0.00     0.105 C
HETATM    5  C13 UNL     1     -15.049 -49.427 -13.515  1.00  0.00     0.050 C
HETATM    6  O3  UNL     1     -13.571 -50.973 -12.749  1.00  0.00    -0.336 OA
HETATM    7  C14 UNL     1     -12.508 -50.317 -13.394  1.00  0.00     0.079 A
HETATM    8  C15 UNL     1     -11.748 -50.727 -14.490  1.00  0.00     0.039 A
HETATM    9  C16 UNL     1     -10.744 -49.902 -14.948  1.00  0.00     0.026 A
HETATM   10  C17 UNL     1     -10.505 -48.698 -14.326  1.00  0.00     0.034 A
HETATM   11 CL1  UNL     1      -9.213 -47.636 -14.915  1.00  0.00    -0.084 Cl
HETATM   12  C18 UNL     1     -11.280 -48.324 -13.241  1.00  0.00     0.037 A
HETATM   13  C19 UNL     1     -12.280 -49.104 -12.756  1.00  0.00     0.017 A
HETATM   14  C20 UNL     1     -13.249 -49.069 -11.710  1.00  0.00     0.150 C
HETATM   15  C21 UNL     1     -13.541 -47.896 -10.890  1.00  0.00     0.102 C
ENDROOT
BRANCH   1  16
HETATM   16  C6  UNL     1     -14.927 -47.504  -8.776  1.00  0.00     0.038 C
BRANCH  16  17
HETATM   17  C5  UNL     1     -15.223 -46.111  -9.135  1.00  0.00    -0.011 C
HETATM   18  C4  UNL     1     -15.003 -45.088  -8.265  1.00  0.00    -0.015 C
HETATM   19 BR1  UNL     1     -14.293 -45.542  -6.553  1.00  0.00    -0.056 Br
BRANCH  18  20
HETATM   20  C3  UNL     1     -15.283 -43.678  -8.578  1.00  0.00     0.046 C
BRANCH  20  21
HETATM   21  C2  UNL     1     -15.790 -43.561 -10.002  1.00  0.00     0.001 C
HETATM   22  C1  UNL     1     -16.161 -42.148 -10.352  1.00  0.00     0.005 C
ENDBRANCH  20  21
ENDBRANCH  18  20
ENDBRANCH  16  17
ENDBRANCH   1  16
BRANCH   2  23
HETATM   23  O1  UNL     1     -16.805 -49.104  -9.666  1.00  0.00    -0.316 OA
BRANCH  23  24
HETATM   24  C9  UNL     1     -18.112 -49.256 -10.087  1.00  0.00     0.255 C
HETATM   25  C10 UNL     1     -18.618 -48.773 -11.397  1.00  0.00     0.126 C
HETATM   26  O2  UNL     1     -18.868 -49.836  -9.284  1.00  0.00    -0.266 OA
ENDBRANCH  23  24
ENDBRANCH   2  23
BRANCH  15  27
HETATM   27  O5  UNL     1     -12.358 -47.765 -10.066  1.00  0.00    -0.386 OA
ATOM     28  H5  UNL     1     -11.675 -47.947 -10.702  1.00  0.00     0.210 HD
ENDBRANCH  15  27
BRANCH  15  29
HETATM   29  C22 UNL     1     -13.710 -46.558 -11.397  1.00  0.00     0.037 C
HETATM   30  C23 UNL     1     -14.444 -46.185 -12.616  1.00  0.00     0.008 C
ENDBRANCH  15  29
BRANCH  14  31
HETATM   31  O4  UNL     1     -12.734 -50.033 -10.759  1.00  0.00    -0.379 OA
ATOM     32  H4  UNL     1     -12.882 -50.835 -11.246  1.00  0.00     0.211 HD
ENDBRANCH  14  31
TORSDOF 9
ENDMDL