MODEL 1
REMARK VINA RESULT: -8.563760755      0.000      0.000
REMARK  7 active torsions:
REMARK  status: ('A' for Active; 'I' for Inactive)
REMARK    1  A    between atoms: C2_2  and  C4_4
REMARK    2  A    between atoms: C4_4  and  C5_5
REMARK    3  A    between atoms: C5_5  and  C6_6
REMARK    4  A    between atoms: C6_6  and  C7_7
REMARK    5  A    between atoms: C7_7  and  C9_9
REMARK    6  A    between atoms: C17_17  and  O1_18
REMARK    7  A    between atoms: O1_18  and  N1_19
ROOT
HETATM    1  C9  UNL     1      -8.265 -19.896   2.998  1.00  0.00    -0.002 C
HETATM    2  C10 UNL     1      -9.374 -18.918   2.800  1.00  0.00     0.006 C
HETATM    3  C11 UNL     1     -10.074 -18.771   4.162  1.00  0.00     0.006 C
HETATM    4  C12 UNL     1      -9.177 -19.534   5.037  1.00  0.00    -0.002 C
HETATM    5  C13 UNL     1      -9.627 -19.867   6.388  1.00  0.00    -0.005 C
HETATM    6  C14 UNL     1      -8.903 -18.949   7.364  1.00  0.00     0.006 C
HETATM    7  C15 UNL     1      -9.127 -19.251   8.798  1.00  0.00     0.008 C
HETATM    8  C16 UNL     1      -8.630 -20.683   9.011  1.00  0.00     0.029 C
HETATM    9  C17 UNL     1      -8.856 -21.181  10.417  1.00  0.00     0.225 C
HETATM   10  C18 UNL     1      -9.171 -22.624  10.205  1.00  0.00     0.158 C
HETATM   11  O2  UNL     1      -9.246 -23.487  11.058  1.00  0.00    -0.295 OA
HETATM   12  C19 UNL     1      -9.391 -22.879   8.736  1.00  0.00     0.086 C
HETATM   13  C20 UNL     1      -9.643 -21.508   8.251  1.00  0.00     0.004 C
HETATM   14  C21 UNL     1      -9.597 -21.308   6.761  1.00  0.00    -0.005 C
HETATM   15  C22 UNL     1      -8.433 -22.031   6.206  1.00  0.00     0.006 C
HETATM   16  C23 UNL     1      -7.764 -21.401   5.003  1.00  0.00     0.010 C
HETATM   17  C24 UNL     1      -8.780 -20.735   4.132  1.00  0.00    -0.036 C
HETATM   18  C25 UNL     1      -9.956 -21.586   3.824  1.00  0.00     0.016 C
ENDROOT
BRANCH   1  19
HETATM   19  C7  UNL     1      -7.541 -20.436   1.876  1.00  0.00    -0.014 C
HETATM   20  C8  UNL     1      -6.021 -20.118   1.968  1.00  0.00     0.010 C
BRANCH  19  21
HETATM   21  C6  UNL     1      -7.589 -21.805   1.370  1.00  0.00     0.005 C
BRANCH  21  22
HETATM   22  C5  UNL     1      -6.922 -22.256   0.136  1.00  0.00     0.001 C
BRANCH  22  23
HETATM   23  C4  UNL     1      -7.626 -22.245  -1.154  1.00  0.00     0.004 C
BRANCH  23  24
HETATM   24  C2  UNL     1      -7.097 -21.489  -2.300  1.00  0.00    -0.023 C
HETATM   25  C1  UNL     1      -6.626 -20.109  -2.149  1.00  0.00     0.009 C
HETATM   26  C3  UNL     1      -8.221 -21.479  -3.366  1.00  0.00     0.009 C
ENDBRANCH  23  24
ENDBRANCH  22  23
ENDBRANCH  21  22
ENDBRANCH  19  21
ENDBRANCH   1  19
BRANCH   9  27
HETATM   27  O1  UNL     1      -7.676 -21.129  11.158  1.00  0.00    -0.274 OA
BRANCH  27  28
HETATM   28  N1  UNL     1      -7.916 -21.224  12.488  1.00  0.00    -0.310 N
ATOM     29  H12 UNL     1      -8.180 -22.095  12.950  1.00  0.00     0.184 HD
ATOM     30  H11 UNL     1      -7.800 -20.326  12.956  1.00  0.00     0.184 HD
ENDBRANCH  27  28
ENDBRANCH   9  27
TORSDOF 7
ENDMDL