MODEL 2
REMARK VINA RESULT: -8.223274503      2.622      4.357
REMARK  7 active torsions:
REMARK  status: ('A' for Active; 'I' for Inactive)
REMARK    1  A    between atoms: C2_2  and  C3_3
REMARK    2  A    between atoms: C3_3  and  C4_4
REMARK    3  A    between atoms: C4_4  and  C5_5
REMARK    4  A    between atoms: C5_5  and  C6_6
REMARK    5  A    between atoms: C13_13  and  N1_14
REMARK       I    between atoms: N1_14  and  C14_16
REMARK    6  A    between atoms: C14_16  and  O2_18
REMARK    7  A    between atoms: O2_18  and  C15_19
ROOT
HETATM    1  N1  UNL     1      -8.705 -22.197   6.458  1.00  0.00    -0.331 N
ATOM      2  H1  UNL     1      -9.590 -21.726   6.651  1.00  0.00     0.165 HD
HETATM    3  C14 UNL     1      -8.191 -23.109   7.435  1.00  0.00     0.361 C
HETATM    4  O1  UNL     1      -7.103 -23.673   7.174  1.00  0.00    -0.238 OA
ENDROOT
BRANCH   1   5
HETATM    5  C13 UNL     1      -8.041 -21.916   5.229  1.00  0.00     0.096 A
HETATM    6  C5  UNL     1      -8.474 -21.366   3.985  1.00  0.00    -0.014 A
HETATM    7  C12 UNL     1      -8.420 -22.914   4.137  1.00  0.00     0.038 A
BRANCH   6   8
HETATM    8  C4  UNL     1      -9.756 -20.979   3.388  1.00  0.00     0.012 C
BRANCH   8   9
HETATM    9  C3  UNL     1     -10.657 -19.947   3.870  1.00  0.00     0.000 C
BRANCH   9  10
HETATM   10  C2  UNL     1     -10.431 -18.521   3.567  1.00  0.00    -0.005 C
HETATM   11  C1  UNL     1     -11.382 -17.633   4.394  1.00  0.00     0.005 C
ENDBRANCH   9  10
ENDBRANCH   8   9
ENDBRANCH   6   8
BRANCH   6  12
HETATM   12  C6  UNL     1      -7.312 -20.958   3.022  1.00  0.00    -0.004 C
HETATM   13  C7  UNL     1      -7.681 -21.129   1.573  1.00  0.00     0.005 C
HETATM   14  C8  UNL     1      -6.362 -21.019   0.790  1.00  0.00     0.000 C
HETATM   15  C9  UNL     1      -5.904 -19.591   0.932  1.00  0.00     0.000 C
HETATM   16  C10 UNL     1      -5.564 -19.401   2.387  1.00  0.00     0.000 C
HETATM   17  C11 UNL     1      -6.813 -19.577   3.264  1.00  0.00     0.005 C
ENDBRANCH   6  12
ENDBRANCH   1   5
BRANCH   3  18
HETATM   18  O2  UNL     1      -8.800 -23.402   8.617  1.00  0.00    -0.298 OA
BRANCH  18  19
HETATM   19  C15 UNL     1      -9.995 -22.914   9.117  1.00  0.00     0.138 C
HETATM   20  C16 UNL     1     -10.857 -23.977   9.768  1.00  0.00     0.059 C
HETATM   21  C17 UNL     1     -12.179 -23.322  10.109  1.00  0.00     0.171 C
HETATM   22  O3  UNL     1     -12.044 -22.190  10.866  1.00  0.00    -0.380 OA
HETATM   23  C18 UNL     1     -11.221 -21.215  10.336  1.00  0.00     0.063 C
HETATM   24  C19 UNL     1     -11.764 -20.577   9.089  1.00  0.00     0.038 C
HETATM   25  C22 UNL     1     -11.180 -20.080  11.350  1.00  0.00     0.038 C
HETATM   26  C23 UNL     1      -9.850 -21.814  10.128  1.00  0.00     0.070 C
HETATM   27  C20 UNL     1     -12.669 -19.455   9.557  1.00  0.00     0.003 C
HETATM   28  C21 UNL     1     -12.112 -19.010  10.880  1.00  0.00     0.003 C
ENDBRANCH  18  19
ENDBRANCH   3  18
TORSDOF 7
ENDMDL