MODEL 2
REMARK VINA RESULT: -8.659003406      0.919      1.089
REMARK  6 active torsions:
REMARK  status: ('A' for Active; 'I' for Inactive)
REMARK    1  A    between atoms: N1_2  and  C2_3
REMARK    2  A    between atoms: N1_2  and  C9_10
REMARK    3  A    between atoms: C2_3  and  C3_4
REMARK    4  A    between atoms: C17_18  and  N2_19
REMARK    5  A    between atoms: N2_19  and  C18_21
REMARK    6  A    between atoms: C18_21  and  C19_22
ROOT
HETATM    1  C9  UNL     1      -9.397 -20.183   4.119  1.00  0.00     0.031 C
HETATM    2  C10 UNL     1      -8.457 -20.408   5.278  1.00  0.00     0.031 C
HETATM    3  C11 UNL     1      -8.029 -21.838   5.474  1.00  0.00     0.003 C
HETATM    4  C12 UNL     1      -7.063 -22.344   4.451  1.00  0.00     0.005 C
HETATM    5  C13 UNL     1      -7.573 -22.502   3.078  1.00  0.00    -0.013 C
HETATM    6  C14 UNL     1      -8.968 -22.276   2.767  1.00  0.00     0.007 C
HETATM    7  C15 UNL     1      -9.884 -21.482   3.619  1.00  0.00     0.031 C
HETATM    8  C16 UNL     1      -6.588 -21.825   2.115  1.00  0.00     0.029 C
HETATM    9  C17 UNL     1      -6.956 -20.488   1.627  1.00  0.00     0.077 C
HETATM   10  C24 UNL     1      -7.360 -19.491   2.719  1.00  0.00     0.027 C
HETATM   11  C25 UNL     1      -8.799 -19.430   2.962  1.00  0.00     0.033 C
ENDROOT
BRANCH   9  12
HETATM   12  N2  UNL     1      -5.804 -19.944   0.941  1.00  0.00    -0.413 N
ATOM     13  H2  UNL     1      -4.854 -20.083   1.288  1.00  0.00     0.153 HD
BRANCH  12  14
HETATM   14  C18 UNL     1      -6.070 -19.205  -0.243  1.00  0.00     0.153 C
BRANCH  14  15
HETATM   15  C19 UNL     1      -6.622 -20.031  -1.327  1.00  0.00    -0.038 A
HETATM   16  C20 UNL     1      -6.926 -21.348  -1.098  1.00  0.00     0.025 A
HETATM   17  C21 UNL     1      -7.452 -22.138  -2.124  1.00  0.00     0.088 A
HETATM   18  N3  UNL     1      -7.658 -21.607  -3.326  1.00  0.00    -0.375 N
HETATM   19  C22 UNL     1      -7.365 -20.326  -3.561  1.00  0.00     0.088 A
ATOM     20  H3  UNL     1      -8.043 -22.183  -4.074  1.00  0.00     0.164 HD
HETATM   21  C23 UNL     1      -6.838 -19.496  -2.570  1.00  0.00     0.025 A
ENDBRANCH  14  15
ENDBRANCH  12  14
ENDBRANCH   9  12
BRANCH   1  22
HETATM   22  N1  UNL     1     -10.410 -19.296   4.659  1.00  0.00    -0.388 N
HETATM   23  C1  UNL     1     -10.704 -18.283   3.687  1.00  0.00     0.149 C
BRANCH  22  24
HETATM   24  C2  UNL     1     -11.411 -19.732   5.486  1.00  0.00     0.063 C
BRANCH  24  25
HETATM   25  C3  UNL     1     -11.592 -19.173   6.860  1.00  0.00     0.024 C
HETATM   26  C4  UNL     1     -11.740 -20.089   7.996  1.00  0.00     0.010 C
HETATM   27  C5  UNL     1     -10.459 -20.871   8.322  1.00  0.00     0.001 C
HETATM   28  C6  UNL     1      -9.473 -19.878   8.836  1.00  0.00     0.000 C
HETATM   29  C7  UNL     1      -9.813 -18.458   8.494  1.00  0.00     0.001 C
HETATM   30  C8  UNL     1     -10.380 -18.280   7.128  1.00  0.00     0.010 C
ENDBRANCH  24  25
ENDBRANCH  22  24
ENDBRANCH   1  22
TORSDOF 6
ENDMDL