MODEL 2
REMARK VINA RESULT: -6.688440987      2.094      3.956
REMARK  7 active torsions:
REMARK  status: ('A' for Active; 'I' for Inactive)
REMARK    1  A    between atoms: C2_2  and  C3_3
REMARK    2  A    between atoms: C3_3  and  O1_4
REMARK    3  A    between atoms: O1_4  and  C4_5
REMARK    4  A    between atoms: C4_5  and  O2_7
REMARK    5  A    between atoms: C4_5  and  C6_9
REMARK    6  A    between atoms: C17_21  and  C19_23
REMARK    7  A    between atoms: C19_23  and  C20_24
ROOT
HETATM    1  C6  UNL     1      -7.782 -20.558   2.640  1.00  0.00     0.056 C
HETATM    2  C7  UNL     1      -7.261 -19.238   3.019  1.00  0.00     0.011 C
HETATM    3  C8  UNL     1      -8.358 -18.737   3.933  1.00  0.00     0.007 C
HETATM    4  C9  UNL     1      -8.932 -19.981   4.569  1.00  0.00     0.003 C
HETATM    5  C10 UNL     1      -8.647 -19.935   6.007  1.00  0.00     0.024 C
HETATM    6  C11 UNL     1      -9.235 -18.622   6.509  1.00  0.00    -0.077 C
HETATM    7  C12 UNL     1      -8.545 -17.710   7.143  1.00  0.00     0.015 C
HETATM    8  C13 UNL     1     -10.701 -18.491   6.213  1.00  0.00     0.111 C
HETATM    9  C14 UNL     1     -11.411 -19.747   6.563  1.00  0.00     0.131 C
HETATM   10  O3  UNL     1     -12.625 -19.744   6.577  1.00  0.00    -0.298 OA
HETATM   11  C15 UNL     1     -10.726 -21.030   6.904  1.00  0.00     0.084 C
HETATM   12  C16 UNL     1      -9.236 -20.944   6.897  1.00  0.00     0.009 C
HETATM   13  C17 UNL     1      -8.576 -22.320   6.902  1.00  0.00    -0.039 C
HETATM   14  C18 UNL     1      -7.151 -22.194   7.453  1.00  0.00     0.015 C
HETATM   15  C22 UNL     1      -8.489 -22.927   5.565  1.00  0.00     0.010 C
HETATM   16  C23 UNL     1      -7.582 -22.037   4.694  1.00  0.00     0.011 C
HETATM   17  C24 UNL     1      -8.387 -21.176   3.813  1.00  0.00    -0.031 C
HETATM   18  C25 UNL     1      -9.584 -22.006   3.265  1.00  0.00     0.016 C
ENDROOT
BRANCH   1  19
HETATM   19  C4  UNL     1      -6.890 -21.382   1.720  1.00  0.00     0.167 C
HETATM   20  C5  UNL     1      -5.817 -22.039   2.543  1.00  0.00     0.080 C
BRANCH  19  21
HETATM   21  O1  UNL     1      -6.306 -20.466   0.882  1.00  0.00    -0.326 OA
BRANCH  21  22
HETATM   22  C3  UNL     1      -6.556 -20.419  -0.424  1.00  0.00     0.138 C
BRANCH  22  23
HETATM   23  C2  UNL     1      -6.137 -19.297  -1.265  1.00  0.00     0.014 C
HETATM   24  C1  UNL     1      -5.017 -18.618  -1.068  1.00  0.00     0.013 C
ENDBRANCH  22  23
ENDBRANCH  21  22
ENDBRANCH  19  21
BRANCH  19  25
HETATM   25  O2  UNL     1      -7.664 -22.222   0.944  1.00  0.00    -0.365 OA
ATOM     26  H2  UNL     1      -7.107 -22.572   0.259  1.00  0.00     0.213 HD
ENDBRANCH  19  25
ENDBRANCH   1  19
BRANCH  13  27
HETATM   27  C19 UNL     1      -9.338 -23.119   7.896  1.00  0.00     0.009 C
BRANCH  27  28
HETATM   28  C20 UNL     1      -9.166 -22.944   9.341  1.00  0.00    -0.004 C
HETATM   29  C21 UNL     1     -10.283 -23.360  10.222  1.00  0.00     0.005 C
ENDBRANCH  27  28
ENDBRANCH  13  27
TORSDOF 7
ENDMDL