MODEL 4
REMARK VINA RESULT: -6.495669877      2.690      4.366
REMARK  6 active torsions:
REMARK  status: ('A' for Active; 'I' for Inactive)
REMARK    1  A    between atoms: S1_2  and  C2_3
REMARK    2  A    between atoms: C2_3  and  C3_4
REMARK    3  A    between atoms: C3_4  and  C4_5
REMARK    4  A    between atoms: N1_13  and  C12_15
REMARK    5  A    between atoms: C12_15  and  C13_16
REMARK    6  A    between atoms: C13_16  and  C14_17
ROOT
HETATM    1  C4  UNL     1      -8.391 -22.619   3.725  1.00  0.00    -0.005 C
HETATM    2  C5  UNL     1      -9.805 -22.074   3.747  1.00  0.00     0.005 C
HETATM    3  C6  UNL     1      -9.811 -20.603   4.154  1.00  0.00     0.001 C
HETATM    4  C7  UNL     1      -8.978 -20.381   5.405  1.00  0.00     0.006 C
HETATM    5  C8  UNL     1      -8.699 -21.715   5.992  1.00  0.00    -0.001 C
HETATM    6  C9  UNL     1      -8.171 -21.718   7.384  1.00  0.00    -0.000 C
HETATM    7  C10 UNL     1      -8.383 -20.479   8.173  1.00  0.00     0.057 C
HETATM    8  C11 UNL     1      -9.635 -20.402   8.927  1.00  0.00    -0.017 C
HETATM    9  N1  UNL     1     -10.207 -19.288   9.048  1.00  0.00    -0.396 N
ATOM     10  H1  UNL     1      -9.727 -18.508   8.598  1.00  0.00     0.159 HD
HETATM   11  C15 UNL     1     -10.203 -21.603   9.543  1.00  0.00     0.056 C
HETATM   12  C16 UNL     1     -10.097 -22.748   8.594  1.00  0.00    -0.009 C
HETATM   13  C17 UNL     1     -10.586 -24.014   9.250  1.00  0.00     0.011 C
HETATM   14  C18 UNL     1      -8.711 -22.985   8.035  1.00  0.00    -0.006 C
HETATM   15  C19 UNL     1      -8.883 -24.067   6.993  1.00  0.00     0.006 C
HETATM   16  C20 UNL     1      -8.013 -24.006   5.808  1.00  0.00     0.010 C
HETATM   17  C21 UNL     1      -7.880 -22.649   5.154  1.00  0.00    -0.036 C
HETATM   18  C22 UNL     1      -6.406 -22.366   5.124  1.00  0.00     0.016 C
ENDROOT
BRANCH   9  19
HETATM   19  C12 UNL     1     -11.399 -18.945   9.703  1.00  0.00     0.130 C
BRANCH  19  20
HETATM   20  C13 UNL     1     -12.383 -18.409   8.661  1.00  0.00     0.132 C
BRANCH  20  21
HETATM   21  C14 UNL     1     -11.907 -18.729   7.298  1.00  0.00     0.174 C
HETATM   22  O1  UNL     1     -12.220 -19.806   6.742  1.00  0.00    -0.648 OA
HETATM   23  O2  UNL     1     -11.095 -17.839   6.602  1.00  0.00    -0.648 OA
ENDBRANCH  20  21
ENDBRANCH  19  20
ENDBRANCH   9  19
BRANCH   1  24
HETATM   24  C3  UNL     1      -7.567 -21.739   2.847  1.00  0.00     0.015 C
BRANCH  24  25
HETATM   25  C2  UNL     1      -7.744 -22.030   1.353  1.00  0.00     0.073 C
BRANCH  25  26
HETATM   26  S1  UNL     1      -6.646 -20.885   0.411  1.00  0.00    -0.173 SA
HETATM   27  C1  UNL     1      -5.960 -19.663   1.571  1.00  0.00     0.089 C
ENDBRANCH  25  26
ENDBRANCH  24  25
ENDBRANCH   1  24
TORSDOF 6
ENDMDL