MODEL 5
REMARK VINA RESULT: -7.076990915      3.390      6.682
REMARK  8 active torsions:
REMARK  status: ('A' for Active; 'I' for Inactive)
REMARK    1  A    between atoms: C2_2  and  C3_3
REMARK    2  A    between atoms: C2_2  and  C11_12
REMARK    3  A    between atoms: C3_3  and  C4_4
REMARK    4  A    between atoms: C4_4  and  C5_5
REMARK    5  A    between atoms: C5_5  and  N1_6
REMARK    6  A    between atoms: C14_15  and  C15_16
REMARK    7  A    between atoms: C22_23  and  C24_25
REMARK    8  A    between atoms: C24_25  and  O1_26
ROOT
HETATM    1  C11 UNL     1     -10.726 -18.969   6.839  1.00  0.00     0.125 C
HETATM    2  C12 UNL     1     -11.970 -19.846   6.847  1.00  0.00     0.035 C
HETATM    3  C13 UNL     1     -11.715 -20.568   8.183  1.00  0.00     0.035 C
HETATM    4  C14 UNL     1     -10.302 -20.453   8.464  1.00  0.00     0.130 C
HETATM    5  O2  UNL     1      -9.723 -19.758   7.359  1.00  0.00    -0.379 OA
ENDROOT
BRANCH   4   6
HETATM    6  C15 UNL     1      -9.416 -21.560   8.739  1.00  0.00    -0.013 C
HETATM    7  C16 UNL     1      -8.625 -21.741   7.413  1.00  0.00     0.018 C
HETATM    8  C17 UNL     1     -10.250 -22.857   8.791  1.00  0.00     0.012 C
HETATM    9  C18 UNL     1     -10.438 -23.143  10.262  1.00  0.00     0.006 C
HETATM   10  C19 UNL     1      -9.194 -22.628  10.882  1.00  0.00    -0.009 C
HETATM   11  C20 UNL     1      -9.337 -21.833  12.130  1.00  0.00     0.006 C
HETATM   12  C25 UNL     1      -8.510 -21.728   9.839  1.00  0.00     0.010 C
HETATM   13  C21 UNL     1      -8.711 -20.487  11.928  1.00  0.00     0.012 C
HETATM   14  C22 UNL     1      -7.903 -20.693  10.649  1.00  0.00    -0.018 C
HETATM   15  C23 UNL     1      -6.550 -21.219  11.201  1.00  0.00     0.018 C
BRANCH  14  16
HETATM   16  C24 UNL     1      -7.551 -19.375  10.037  1.00  0.00     0.173 C
BRANCH  16  17
HETATM   17  O1  UNL     1      -6.211 -19.081  10.404  1.00  0.00    -0.400 OA
ATOM     18  H1  UNL     1      -5.653 -19.724   9.982  1.00  0.00     0.209 HD
ENDBRANCH  16  17
ENDBRANCH  14  16
ENDBRANCH   4   6
BRANCH   1  19
HETATM   19  C2  UNL     1     -10.485 -18.616   5.386  1.00  0.00     0.011 C
HETATM   20  C1  UNL     1     -11.523 -17.642   4.876  1.00  0.00     0.012 C
BRANCH  19  21
HETATM   21  C3  UNL     1     -10.489 -19.849   4.520  1.00  0.00     0.008 C
BRANCH  21  22
HETATM   22  C4  UNL     1      -9.569 -19.582   3.333  1.00  0.00     0.031 C
BRANCH  22  23
HETATM   23  C5  UNL     1      -8.186 -19.991   3.775  1.00  0.00     0.272 C
BRANCH  23  24
HETATM   24  N1  UNL     1      -7.607 -20.847   2.795  1.00  0.00     0.088 N
HETATM   25  C6  UNL     1      -8.216 -22.132   2.692  1.00  0.00     0.272 C
HETATM   26  C7  UNL     1      -8.049 -22.942   3.960  1.00  0.00     0.030 C
HETATM   27  C8  UNL     1      -6.649 -22.783   4.514  1.00  0.00     0.003 C
HETATM   28  C9  UNL     1      -5.693 -22.193   3.511  1.00  0.00     0.030 C
HETATM   29  C10 UNL     1      -6.161 -20.912   2.904  1.00  0.00     0.272 C
ENDBRANCH  23  24
ENDBRANCH  22  23
ENDBRANCH  21  22
ENDBRANCH  19  21
ENDBRANCH   1  19
TORSDOF 8
ENDMDL