MODEL 1
REMARK VINA RESULT: -7.158517320      0.000      0.000
REMARK  7 active torsions:
REMARK  status: ('A' for Active; 'I' for Inactive)
REMARK    1  A    between atoms: C2_2  and  C3_3
REMARK    2  A    between atoms: C3_3  and  C5_5
REMARK    3  A    between atoms: C7_7  and  O1_8
REMARK    4  A    between atoms: C10_12  and  C11_13
REMARK    5  A    between atoms: N1_22  and  O2_24
REMARK    6  A    between atoms: O2_24  and  C20_25
REMARK    7  A    between atoms: C20_25  and  C21_26
ROOT
HETATM    1  C5  UNL     1     -11.867 -20.765  10.071  1.00  0.00    -0.054 C
HETATM    2  C6  UNL     1     -12.463 -19.557  10.763  1.00  0.00     0.068 C
HETATM    3  C7  UNL     1     -12.484 -18.341   9.914  1.00  0.00     0.122 C
HETATM    4  C8  UNL     1     -11.308 -18.144   8.989  1.00  0.00     0.038 C
HETATM    5  C9  UNL     1     -10.958 -19.422   8.351  1.00  0.00     0.011 C
HETATM    6  C10 UNL     1      -9.854 -19.494   7.390  1.00  0.00     0.001 C
HETATM    7  C18 UNL     1      -9.707 -21.042   7.306  1.00  0.00     0.061 C
HETATM    8  C19 UNL     1      -9.729 -21.372   8.785  1.00  0.00     0.023 C
HETATM    9  N1  UNL     1      -9.048 -22.316   9.303  1.00  0.00    -0.274 N
ATOM     10  H1  UNL     1      -9.142 -22.444  10.311  1.00  0.00     0.193 HD
HETATM   11  C24 UNL     1     -10.586 -20.423   9.453  1.00  0.00     0.025 C
HETATM   12  C25 UNL     1      -9.650 -19.699  10.458  1.00  0.00     0.027 C
ENDROOT
BRANCH   6  13
HETATM   13  C11 UNL     1     -10.096 -18.914   6.041  1.00  0.00    -0.005 C
HETATM   14  C12 UNL     1     -11.520 -18.576   5.740  1.00  0.00     0.009 C
HETATM   15  C13 UNL     1     -11.596 -17.864   4.414  1.00  0.00     0.028 C
HETATM   16  C14 UNL     1     -10.514 -18.219   3.485  1.00  0.00    -0.024 C
HETATM   17  C15 UNL     1      -9.583 -19.123   3.689  1.00  0.00    -0.087 C
HETATM   18  C16 UNL     1      -8.515 -19.436   2.710  1.00  0.00     0.043 C
HETATM   19  C17 UNL     1      -9.603 -19.872   4.974  1.00  0.00     0.038 C
ENDBRANCH   6  13
BRANCH   3  20
HETATM   20  O1  UNL     1     -13.628 -18.452   9.084  1.00  0.00    -0.395 OA
ATOM     21  H1  UNL     1     -14.348 -18.063   9.567  1.00  0.00     0.210 HD
ENDBRANCH   3  20
BRANCH   1  22
HETATM   22  C3  UNL     1     -12.140 -21.990  10.758  1.00  0.00    -0.043 C
HETATM   23  C4  UNL     1     -12.201 -21.972  12.103  1.00  0.00     0.023 C
BRANCH  22  24
HETATM   24  C2  UNL     1     -12.453 -23.243  10.120  1.00  0.00     0.000 C
HETATM   25  C1  UNL     1     -11.848 -24.386  10.196  1.00  0.00     0.012 C
ENDBRANCH  22  24
ENDBRANCH   1  22
BRANCH   9  26
HETATM   26  O2  UNL     1      -8.214 -23.164   8.665  1.00  0.00    -0.280 OA
BRANCH  26  27
HETATM   27  C20 UNL     1      -8.670 -23.969   7.599  1.00  0.00     0.205 C
BRANCH  27  28
HETATM   28  C21 UNL     1      -7.642 -24.150   6.524  1.00  0.00     0.012 A
HETATM   29  C22 UNL     1      -8.083 -23.675   5.121  1.00  0.00     0.007 A
HETATM   30  C23 UNL     1      -7.001 -22.996   5.858  1.00  0.00     0.007 A
ENDBRANCH  27  28
ENDBRANCH  26  27
ENDBRANCH   9  26
TORSDOF 7
ENDMDL