MODEL 1
REMARK VINA RESULT: -8.807874584      0.000      0.000
REMARK  6 active torsions:
REMARK  status: ('A' for Active; 'I' for Inactive)
REMARK    1  A    between atoms: N1_7  and  C7_8
REMARK    2  A    between atoms: C7_8  and  C8_9
REMARK    3  A    between atoms: C8_9  and  C9_10
REMARK    4  A    between atoms: C9_10  and  N2_11
REMARK    5  A    between atoms: C9_10  and  C21_24
REMARK    6  A    between atoms: N2_11  and  C10_13
ROOT
HETATM    1  C9  UNL     1      -7.555 -21.136   3.700  1.00  0.00     0.136 C
ENDROOT
BRANCH   1   2
HETATM    2  C8  UNL     1      -6.695 -21.540   2.566  1.00  0.00     0.062 C
BRANCH   2   3
HETATM    3  C7  UNL     1      -7.425 -21.709   1.292  1.00  0.00     0.275 C
BRANCH   3   4
HETATM    4  N1  UNL     1      -7.118 -20.831   0.196  1.00  0.00     0.089 N
HETATM    5  C6  UNL     1      -6.758 -21.627  -1.008  1.00  0.00     0.276 C
HETATM    6  C4  UNL     1      -6.600 -20.633  -2.115  1.00  0.00     0.010 C
HETATM    7  C3  UNL     1      -6.901 -19.197  -1.636  1.00  0.00     0.012 C
HETATM    8  C5  UNL     1      -7.614 -20.862  -3.242  1.00  0.00     0.011 C
HETATM    9  C2  UNL     1      -5.913 -18.897  -0.503  1.00  0.00     0.010 C
HETATM   10  C1  UNL     1      -4.597 -18.633  -1.167  1.00  0.00     0.011 C
HETATM   11  C25 UNL     1      -5.894 -20.052   0.471  1.00  0.00     0.276 C
ENDBRANCH   3   4
ENDBRANCH   2   3
ENDBRANCH   1   2
BRANCH   1  12
HETATM   12  N2  UNL     1      -8.845 -20.690   3.455  1.00  0.00    -0.403 N
ATOM     13  H2  UNL     1      -9.334 -21.124   2.672  1.00  0.00     0.154 HD
BRANCH  12  14
HETATM   14  C10 UNL     1      -9.546 -19.713   4.160  1.00  0.00     0.027 C
HETATM   15  C11 UNL     1      -9.990 -18.537   3.369  1.00  0.00     0.031 C
HETATM   16  C12 UNL     1     -11.313 -17.966   3.853  1.00  0.00     0.007 C
HETATM   17  C13 UNL     1     -11.445 -17.759   5.309  1.00  0.00    -0.014 C
HETATM   18  C14 UNL     1     -12.113 -18.912   6.006  1.00  0.00     0.009 C
HETATM   19  C18 UNL     1     -10.180 -17.325   6.008  1.00  0.00     0.009 C
HETATM   20  C15 UNL     1     -11.110 -20.042   6.138  1.00  0.00    -0.012 C
HETATM   21  C16 UNL     1     -10.011 -19.619   7.050  1.00  0.00     0.009 C
HETATM   22  C20 UNL     1     -10.706 -20.439   4.787  1.00  0.00     0.035 C
HETATM   23  C17 UNL     1      -9.300 -18.480   6.352  1.00  0.00    -0.012 C
HETATM   24  C19 UNL     1      -8.594 -19.070   5.192  1.00  0.00     0.035 C
ENDBRANCH  12  14
ENDBRANCH   1  12
BRANCH   1  25
HETATM   25  C21 UNL     1      -7.608 -22.282   4.709  1.00  0.00     0.074 A
HETATM   26  C22 UNL     1      -8.478 -23.297   4.808  1.00  0.00     0.037 A
HETATM   27  C23 UNL     1      -8.068 -24.069   5.907  1.00  0.00     0.027 A
HETATM   28  C24 UNL     1      -6.953 -23.440   6.397  1.00  0.00     0.142 A
HETATM   29  O1  UNL     1      -6.720 -22.409   5.677  1.00  0.00    -0.325 OA
ENDBRANCH   1  25
TORSDOF 6
ENDMDL