MODEL 5
REMARK VINA RESULT: -7.832767363      1.441      2.033
REMARK  8 active torsions:
REMARK  status: ('A' for Active; 'I' for Inactive)
REMARK    1  A    between atoms: C2_2  and  C3_3
REMARK    2  A    between atoms: C5_5  and  C6_6
REMARK    3  A    between atoms: C6_6  and  C7_7
REMARK    4  A    between atoms: C7_7  and  C8_8
REMARK    5  A    between atoms: C15_15  and  O1_16
REMARK    6  A    between atoms: C19_21  and  C21_23
REMARK    7  A    between atoms: C21_23  and  C22_24
REMARK    8  A    between atoms: C22_24  and  C23_25
ROOT
HETATM    1  C8  UNL     1      -7.528 -21.555   3.411  1.00  0.00     0.018 C
HETATM    2  C9  UNL     1      -6.053 -21.212   3.236  1.00  0.00     0.023 C
HETATM    3  C10 UNL     1      -7.454 -22.771   4.361  1.00  0.00     0.017 C
HETATM    4  C11 UNL     1      -7.334 -22.349   5.778  1.00  0.00     0.010 C
HETATM    5  C12 UNL     1      -8.761 -22.210   6.265  1.00  0.00     0.021 C
HETATM    6  C13 UNL     1      -8.826 -22.853   7.585  1.00  0.00    -0.056 C
HETATM    7  C14 UNL     1      -9.374 -24.058   7.782  1.00  0.00     0.017 C
HETATM    8  C15 UNL     1      -8.249 -22.143   8.772  1.00  0.00     0.146 C
HETATM    9  C16 UNL     1      -8.999 -20.811   8.813  1.00  0.00     0.037 C
HETATM   10  C17 UNL     1      -8.632 -20.087   7.510  1.00  0.00     0.009 C
HETATM   11  C18 UNL     1      -9.246 -20.810   6.303  1.00  0.00     0.009 C
HETATM   12  C19 UNL     1      -9.135 -20.000   5.075  1.00  0.00     0.022 C
HETATM   13  C20 UNL     1      -8.575 -18.593   5.395  1.00  0.00     0.024 C
HETATM   14  C25 UNL     1      -8.326 -20.472   3.949  1.00  0.00     0.143 C
HETATM   15  O3  UNL     1      -8.319 -19.555   3.084  1.00  0.00    -0.296 OA
ENDROOT
BRANCH   1  16
HETATM   16  C7  UNL     1      -8.168 -22.131   2.194  1.00  0.00     0.021 C
BRANCH  16  17
HETATM   17  C6  UNL     1      -7.384 -22.469   0.997  1.00  0.00     0.029 C
BRANCH  17  18
HETATM   18  C5  UNL     1      -6.993 -21.312   0.173  1.00  0.00    -0.020 C
HETATM   19  C3  UNL     1      -7.024 -21.259  -1.147  1.00  0.00    -0.067 C
HETATM   20  C4  UNL     1      -7.453 -22.402  -1.988  1.00  0.00     0.048 C
BRANCH  19  21
HETATM   21  C2  UNL     1      -6.601 -20.028  -1.791  1.00  0.00    -0.004 C
HETATM   22  C1  UNL     1      -5.909 -19.102  -1.362  1.00  0.00     0.012 C
ENDBRANCH  19  21
ENDBRANCH  17  18
ENDBRANCH  16  17
ENDBRANCH   1  16
BRANCH  12  23
HETATM   23  C21 UNL     1     -10.525 -19.745   4.529  1.00  0.00     0.025 C
BRANCH  23  24
HETATM   24  C22 UNL     1     -11.077 -18.386   4.699  1.00  0.00     0.079 C
BRANCH  24  25
HETATM   25  C23 UNL     1     -11.708 -18.383   6.079  1.00  0.00     0.123 C
HETATM   26  C24 UNL     1     -12.631 -19.454   6.538  1.00  0.00     0.091 C
HETATM   27  O2  UNL     1     -11.431 -17.448   6.845  1.00  0.00    -0.298 OA
ENDBRANCH  24  25
ENDBRANCH  23  24
ENDBRANCH  12  23
BRANCH   8  28
HETATM   28  O1  UNL     1      -6.903 -21.821   8.565  1.00  0.00    -0.391 OA
ATOM     29  H1  UNL     1      -6.337 -22.554   8.781  1.00  0.00     0.210 HD
ENDBRANCH   8  28
TORSDOF 8
ENDMDL