MODEL 1
REMARK VINA RESULT: -8.271294203      0.000      0.000
REMARK  7 active torsions:
REMARK  status: ('A' for Active; 'I' for Inactive)
REMARK    1  A    between atoms: C2_2  and  C3_3
REMARK    2  A    between atoms: C3_3  and  C4_4
REMARK    3  A    between atoms: C4_4  and  C5_5
REMARK    4  A    between atoms: C5_5  and  C6_6
REMARK    5  A    between atoms: C6_6  and  C7_7
REMARK    6  A    between atoms: C22_23  and  O2_24
REMARK    7  A    between atoms: C23_26  and  C24_27
ROOT
HETATM    1  C7  UNL     1      -6.174 -21.454   3.325  1.00  0.00    -0.014 C
HETATM    2  C8  UNL     1      -6.461 -22.771   3.919  1.00  0.00     0.005 C
HETATM    3  C9  UNL     1      -7.036 -22.718   5.347  1.00  0.00     0.011 C
HETATM    4  C10 UNL     1      -8.302 -21.907   5.199  1.00  0.00    -0.027 C
HETATM    5  C11 UNL     1      -9.065 -22.577   4.080  1.00  0.00     0.016 C
HETATM    6  C12 UNL     1      -7.819 -20.520   4.822  1.00  0.00     0.002 C
HETATM    7  C13 UNL     1      -7.289 -20.437   3.451  1.00  0.00     0.010 C
HETATM    8  C14 UNL     1      -8.845 -19.555   5.247  1.00  0.00     0.026 C
HETATM    9  C15 UNL     1      -9.983 -19.285   4.347  1.00  0.00     0.009 C
HETATM   10  C16 UNL     1     -10.829 -18.214   5.038  1.00  0.00     0.018 C
HETATM   11  C17 UNL     1     -11.197 -18.528   6.428  1.00  0.00     0.024 C
HETATM   12  C18 UNL     1     -11.216 -17.264   7.297  1.00  0.00     0.024 C
HETATM   13  C19 UNL     1     -12.541 -19.163   6.497  1.00  0.00     0.136 C
HETATM   14  O1  UNL     1     -13.686 -18.815   6.378  1.00  0.00    -0.297 OA
HETATM   15  C20 UNL     1     -11.810 -20.448   6.788  1.00  0.00     0.088 C
HETATM   16  C21 UNL     1     -10.553 -19.698   7.086  1.00  0.00     0.044 C
HETATM   17  C22 UNL     1      -9.259 -20.144   6.587  1.00  0.00     0.078 C
HETATM   18  C23 UNL     1      -9.102 -21.657   6.409  1.00  0.00     0.098 C
ENDROOT
BRANCH   1  19
HETATM   19  C6  UNL     1      -5.942 -21.655   1.836  1.00  0.00     0.005 C
BRANCH  19  20
HETATM   20  C5  UNL     1      -7.109 -21.243   1.014  1.00  0.00     0.000 C
BRANCH  20  21
HETATM   21  C4  UNL     1      -7.815 -22.445   0.457  1.00  0.00     0.000 C
BRANCH  21  22
HETATM   22  C3  UNL     1      -7.386 -22.730  -0.940  1.00  0.00    -0.000 C
BRANCH  22  23
HETATM   23  C2  UNL     1      -7.171 -21.434  -1.717  1.00  0.00    -0.005 C
HETATM   24  C1  UNL     1      -7.852 -21.463  -3.055  1.00  0.00     0.005 C
ENDBRANCH  22  23
ENDBRANCH  21  22
ENDBRANCH  20  21
ENDBRANCH  19  20
ENDBRANCH   1  19
BRANCH  18  25
HETATM   25  C24 UNL     1      -8.675 -22.340   7.647  1.00  0.00     0.131 C
HETATM   26  C25 UNL     1      -9.575 -23.220   8.447  1.00  0.00     0.091 C
HETATM   27  O3  UNL     1      -7.535 -22.245   8.131  1.00  0.00    -0.298 OA
ENDBRANCH  18  25
BRANCH  17  28
HETATM   28  O2  UNL     1      -8.241 -19.749   7.460  1.00  0.00    -0.388 OA
ATOM     29  H2  UNL     1      -8.704 -19.436   8.228  1.00  0.00     0.210 HD
ENDBRANCH  17  28
TORSDOF 7
ENDMDL