MODEL 1
REMARK VINA RESULT: -7.993614010      0.000      0.000
REMARK  6 active torsions:
REMARK  status: ('A' for Active; 'I' for Inactive)
REMARK    1  A    between atoms: C2_2  and  C4_4
REMARK    2  A    between atoms: C4_4  and  C5_5
REMARK    3  A    between atoms: C7_7  and  O1_8
REMARK    4  A    between atoms: C8_10  and  O2_11
REMARK    5  A    between atoms: C9_13  and  C10_14
REMARK    6  A    between atoms: C11_15  and  C12_16
ROOT
HETATM    1  C5  UNL     1      29.480  -3.063  58.113  1.00  0.00    -0.054 A
HETATM    2  C6  UNL     1      30.030  -3.611  59.242  1.00  0.00     0.046 A
HETATM    3  C7  UNL     1      31.348  -4.021  59.298  1.00  0.00     0.100 A
HETATM    4  C8  UNL     1      32.174  -3.883  58.173  1.00  0.00     0.109 A
HETATM    5  C9  UNL     1      31.659  -3.340  57.028  1.00  0.00     0.000 A
HETATM    6  C18 UNL     1      30.305  -2.936  57.026  1.00  0.00     0.021 A
ENDROOT
BRANCH   5   7
HETATM    7  C10 UNL     1      32.449  -3.166  55.833  1.00  0.00     0.015 C
HETATM    8  C11 UNL     1      33.074  -4.039  55.125  1.00  0.00     0.012 C
BRANCH   8   9
HETATM    9  C12 UNL     1      33.842  -3.699  53.921  1.00  0.00    -0.030 A
HETATM   10  C13 UNL     1      35.183  -4.042  53.806  1.00  0.00     0.053 A
HETATM   11  C14 UNL     1      35.891  -3.726  52.689  1.00  0.00     0.120 A
HETATM   12  F1  UNL     1      37.204  -4.074  52.602  1.00  0.00    -0.206 F
HETATM   13  C15 UNL     1      35.335  -3.054  51.617  1.00  0.00     0.084 A
HETATM   14  C16 UNL     1      34.008  -2.717  51.735  1.00  0.00     0.120 A
HETATM   15  F2  UNL     1      33.452  -2.056  50.686  1.00  0.00    -0.206 F
HETATM   16  C17 UNL     1      33.269  -3.039  52.884  1.00  0.00     0.053 A
ENDBRANCH   8   9
ENDBRANCH   5   7
BRANCH   4  17
HETATM   17  O2  UNL     1      33.480  -4.305  58.276  1.00  0.00    -0.357 OA
ATOM     18  H2  UNL     1      33.946  -4.117  59.081  1.00  0.00     0.217 HD
ENDBRANCH   4  17
BRANCH   3  19
HETATM   19  O1  UNL     1      31.817  -4.562  60.474  1.00  0.00    -0.358 OA
ATOM     20  H1  UNL     1      31.991  -5.495  60.504  1.00  0.00     0.217 HD
ENDBRANCH   3  19
BRANCH   1  21
HETATM   21  C4  UNL     1      28.081  -2.632  58.068  1.00  0.00     0.042 C
BRANCH  21  22
HETATM   22  C2  UNL     1      27.400  -2.628  59.410  1.00  0.00    -0.019 C
HETATM   23  C1  UNL     1      26.400  -3.742  59.555  1.00  0.00     0.010 C
HETATM   24  C3  UNL     1      26.758  -1.296  59.723  1.00  0.00     0.010 C
ENDBRANCH  21  22
ENDBRANCH   1  21
TORSDOF 6
ENDMDL