MODEL 4
REMARK VINA RESULT: -6.389114350      3.352      5.138
REMARK  5 active torsions:
REMARK  status: ('A' for Active; 'I' for Inactive)
REMARK    1  A    between atoms: C2_2  and  C3_3
REMARK    2  A    between atoms: C3_3  and  C4_4
REMARK    3  A    between atoms: C4_4  and  C5_5
REMARK    4  A    between atoms: C5_5  and  N1_6
REMARK    5  A    between atoms: C14_19  and  N3_20
ROOT
HETATM    1  N1  UNL     1      33.841  -4.805  54.564  1.00  0.00    -0.276 N
HETATM    2  N2  UNL     1      33.772  -4.574  55.865  1.00  0.00    -0.295 N
ATOM      3  H2  UNL     1      33.483  -3.689  56.283  1.00  0.00     0.187 HD
HETATM    4  C6  UNL     1      34.137  -5.675  56.566  1.00  0.00     0.070 A
HETATM    5  C7  UNL     1      34.241  -5.976  57.899  1.00  0.00    -0.009 A
HETATM    6  C8  UNL     1      33.905  -4.940  58.899  1.00  0.00     0.052 C
HETATM    7  C9  UNL     1      34.655  -7.229  58.292  1.00  0.00     0.064 A
HETATM    8 CL1  UNL     1      34.796  -7.632  60.011  1.00  0.00    -0.082 Cl
HETATM    9  C10 UNL     1      34.965  -8.182  57.333  1.00  0.00     0.063 A
HETATM   10 CL2  UNL     1      35.490  -9.770  57.890  1.00  0.00    -0.082 Cl
HETATM   11  C11 UNL     1      34.867  -7.904  55.982  1.00  0.00    -0.022 A
HETATM   12  C12 UNL     1      35.198  -8.920  55.025  1.00  0.00     0.051 C
HETATM   13  C13 UNL     1      34.452  -6.645  55.645  1.00  0.00     0.045 A
HETATM   14  C14 UNL     1      34.261  -6.081  54.417  1.00  0.00     0.129 A
ENDROOT
BRANCH   1  15
HETATM   15  C5  UNL     1      33.522  -3.847  53.536  1.00  0.00     0.151 C
BRANCH  15  16
HETATM   16  C4  UNL     1      34.736  -3.245  52.900  1.00  0.00     0.022 C
BRANCH  16  17
HETATM   17  C3  UNL     1      34.266  -1.992  52.148  1.00  0.00     0.001 C
BRANCH  17  18
HETATM   18  C2  UNL     1      34.464  -2.209  50.643  1.00  0.00    -0.004 C
HETATM   19  C1  UNL     1      35.922  -2.352  50.292  1.00  0.00     0.005 C
ENDBRANCH  17  18
ENDBRANCH  16  17
ENDBRANCH  15  16
ENDBRANCH   1  15
BRANCH  14  20
HETATM   20  N3  UNL     1      34.439  -6.635  53.285  1.00  0.00    -0.384 N
ATOM     21  H32 UNL     1      34.783  -7.580  53.113  1.00  0.00     0.157 HD
ATOM     22  H31 UNL     1      34.247  -6.174  52.396  1.00  0.00     0.157 HD
ENDBRANCH  14  20
TORSDOF 5
ENDMDL