MODEL 2
REMARK VINA RESULT: -6.153717516      1.795      2.364
REMARK  5 active torsions:
REMARK  status: ('A' for Active; 'I' for Inactive)
REMARK    1  A    between atoms: N1_2  and  C2_5
REMARK    2  A    between atoms: C6_10  and  C7_11
REMARK    3  A    between atoms: C8_12  and  C9_13
REMARK    4  A    between atoms: C9_13  and  N2_14
REMARK    5  A    between atoms: N2_14  and  C10_16
ROOT
HETATM    1  C2  UNL     1      35.521  -3.433  52.262  1.00  0.00     0.357 C
HETATM    2  O1  UNL     1      36.881  -3.311  52.447  1.00  0.00    -0.351 OA
HETATM    3  C3  UNL     1      37.272  -4.534  52.982  1.00  0.00     0.210 C
HETATM    4  C4  UNL     1      36.167  -4.797  53.982  1.00  0.00    -0.021 A
HETATM    5  C5  UNL     1      36.106  -5.534  55.129  1.00  0.00     0.021 A
HETATM    6  C6  UNL     1      34.919  -5.630  55.899  1.00  0.00    -0.034 A
HETATM    7  C13 UNL     1      33.857  -4.923  55.385  1.00  0.00     0.036 A
HETATM    8  C14 UNL     1      33.913  -4.171  54.220  1.00  0.00     0.046 A
HETATM    9 CL1  UNL     1      32.486  -3.303  53.644  1.00  0.00    -0.084 Cl
HETATM   10  C15 UNL     1      35.080  -4.109  53.513  1.00  0.00     0.028 A
ENDROOT
BRANCH   6  11
HETATM   11  C7  UNL     1      34.925  -6.482  57.049  1.00  0.00     0.013 C
HETATM   12  C8  UNL     1      34.686  -7.728  57.203  1.00  0.00     0.017 C
BRANCH  12  13
HETATM   13  C9  UNL     1      34.297  -8.719  56.197  1.00  0.00     0.083 C
BRANCH  13  14
HETATM   14  N2  UNL     1      35.279  -9.246  55.343  1.00  0.00    -0.395 N
ATOM     15  H2  UNL     1      35.936  -9.933  55.712  1.00  0.00     0.159 HD
BRANCH  14  16
HETATM   16  C10 UNL     1      35.385  -8.858  54.002  1.00  0.00     0.072 C
HETATM   17  C11 UNL     1      35.719  -9.956  53.055  1.00  0.00     0.031 C
HETATM   18  C12 UNL     1      34.127  -8.185  53.463  1.00  0.00     0.031 C
ENDBRANCH  14  16
ENDBRANCH  13  14
ENDBRANCH  12  13
ENDBRANCH   6  11
BRANCH   1  19
HETATM   19  N1  UNL     1      34.848  -2.204  52.028  1.00  0.00    -0.048 N
HETATM   20  C1  UNL     1      34.525  -1.950  50.661  1.00  0.00     0.270 C
ATOM     21  H12 UNL     1      35.386  -1.427  52.414  1.00  0.00     0.280 HD
ATOM     22  H11 UNL     1      34.010  -2.143  52.607  1.00  0.00     0.280 HD
ENDBRANCH   1  19
TORSDOF 5
ENDMDL