MODEL 2
REMARK VINA RESULT: -6.495884419      2.067      3.219
REMARK  5 active torsions:
REMARK  status: ('A' for Active; 'I' for Inactive)
REMARK    1  A    between atoms: C2_2  and  C4_4
REMARK    2  A    between atoms: C4_4  and  C5_5
REMARK    3  A    between atoms: C5_5  and  C6_6
REMARK    4  A    between atoms: C6_6  and  O1_7
REMARK    5  A    between atoms: C6_6  and  C7_10
ROOT
HETATM    1  C7  UNL     1      34.988  -5.356  55.399  1.00  0.00     0.206 C
HETATM    2  O2  UNL     1      33.814  -5.666  56.103  1.00  0.00    -0.367 OA
HETATM    3  C8  UNL     1      34.136  -6.644  57.002  1.00  0.00     0.152 C
HETATM    4  C9  UNL     1      34.652  -6.107  58.325  1.00  0.00     0.045 C
HETATM    5  C10 UNL     1      35.245  -7.408  56.385  1.00  0.00    -0.018 A
HETATM    6  C11 UNL     1      35.781  -8.678  56.629  1.00  0.00     0.052 A
HETATM    7  C12 UNL     1      36.841  -9.162  55.895  1.00  0.00     0.117 A
HETATM    8  F1  UNL     1      37.367 -10.397  56.126  1.00  0.00    -0.206 F
HETATM    9  C13 UNL     1      37.361  -8.353  54.907  1.00  0.00     0.043 A
HETATM   10  C14 UNL     1      36.831  -7.104  54.671  1.00  0.00     0.013 A
HETATM   11  C15 UNL     1      35.766  -6.599  55.396  1.00  0.00    -0.016 A
ENDROOT
BRANCH   1  12
HETATM   12  C6  UNL     1      34.626  -4.884  54.011  1.00  0.00     0.164 C
HETATM   13 CL1  UNL     1      33.329  -3.678  54.060  1.00  0.00    -0.085 Cl
BRANCH  12  14
HETATM   14  C5  UNL     1      35.804  -4.251  53.303  1.00  0.00     0.058 C
BRANCH  14  15
HETATM   15  C4  UNL     1      35.368  -2.919  52.789  1.00  0.00     0.008 C
BRANCH  15  16
HETATM   16  C2  UNL     1      35.006  -2.921  51.328  1.00  0.00    -0.023 C
HETATM   17  C1  UNL     1      33.893  -1.992  50.982  1.00  0.00     0.009 C
HETATM   18  C3  UNL     1      36.246  -2.575  50.531  1.00  0.00     0.009 C
ENDBRANCH  15  16
ENDBRANCH  14  15
ENDBRANCH  12  14
BRANCH  12  19
HETATM   19  O1  UNL     1      34.266  -6.006  53.268  1.00  0.00    -0.372 OA
ATOM     20  H1  UNL     1      34.350  -5.765  52.352  1.00  0.00     0.212 HD
ENDBRANCH  12  19
ENDBRANCH   1  12
TORSDOF 5
ENDMDL