MODEL 1
REMARK VINA RESULT: -6.556013181      0.000      0.000
REMARK  5 active torsions:
REMARK  status: ('A' for Active; 'I' for Inactive)
REMARK    1  A    between atoms: C2_2  and  C3_3
REMARK    2  A    between atoms: C7_8  and  C8_9
REMARK    3  A    between atoms: C8_9  and  C9_10
REMARK    4  A    between atoms: C8_9  and  C12_19
REMARK    5  A    between atoms: C11_14  and  N2_15
ROOT
HETATM    1  C8  UNL     1      35.528  -7.908  55.444  1.00  0.00     0.066 C
ENDROOT
BRANCH   1   2
HETATM    2  C7  UNL     1      35.833  -6.678  54.739  1.00  0.00    -0.009 A
HETATM    3  C6  UNL     1      37.132  -6.196  54.724  1.00  0.00     0.014 A
HETATM    4  C5  UNL     1      37.513  -5.047  54.083  1.00  0.00     0.043 A
HETATM    5  C4  UNL     1      36.572  -4.307  53.405  1.00  0.00     0.125 A
HETATM    6  C3  UNL     1      35.265  -4.744  53.391  1.00  0.00     0.019 A
HETATM    7  F1  UNL     1      36.884  -3.165  52.752  1.00  0.00    -0.205 F
HETATM    8  C15 UNL     1      34.915  -5.907  54.048  1.00  0.00     0.132 A
HETATM    9  F2  UNL     1      33.640  -6.287  54.008  1.00  0.00    -0.205 F
BRANCH   6  10
HETATM   10  C2  UNL     1      34.224  -3.969  52.665  1.00  0.00     0.040 C
HETATM   11  C1  UNL     1      33.409  -3.245  53.714  1.00  0.00     0.010 C
ENDBRANCH   6  10
ENDBRANCH   1   2
BRANCH   1  12
HETATM   12  C9  UNL     1      36.551  -8.996  55.232  1.00  0.00     0.010 A
HETATM   13  C10 UNL     1      37.583  -9.363  56.049  1.00  0.00     0.105 A
HETATM   14  N1  UNL     1      38.355 -10.337  55.670  1.00  0.00    -0.346 N
HETATM   15  C11 UNL     1      38.102 -10.931  54.503  1.00  0.00     0.142 A
ATOM     16  H1  UNL     1      39.135 -10.640  56.252  1.00  0.00     0.167 HD
HETATM   17  S1  UNL     1      36.739 -10.093  53.924  1.00  0.00    -0.057 SA
BRANCH  15  18
HETATM   18  N2  UNL     1      38.740 -11.920  53.930  1.00  0.00    -0.380 N
ATOM     19  H22 UNL     1      39.543 -11.867  53.303  1.00  0.00     0.158 HD
ATOM     20  H21 UNL     1      38.561 -12.922  53.997  1.00  0.00     0.158 HD
ENDBRANCH  15  18
ENDBRANCH   1  12
BRANCH   1  21
HETATM   21  C12 UNL     1      35.341  -7.784  56.941  1.00  0.00    -0.009 C
HETATM   22  C13 UNL     1      34.360  -8.905  57.322  1.00  0.00     0.010 C
HETATM   23  C14 UNL     1      34.676  -6.480  57.330  1.00  0.00     0.010 C
ENDBRANCH   1  21
TORSDOF 5
ENDMDL