MODEL 1
REMARK VINA RESULT: -5.235722618      0.000      0.000
REMARK  5 active torsions:
REMARK  status: ('A' for Active; 'I' for Inactive)
REMARK    1  A    between atoms: C2_2  and  C3_3
REMARK    2  A    between atoms: C3_3  and  N1_4
REMARK    3  A    between atoms: C3_3  and  C13_17
REMARK    4  A    between atoms: N1_4  and  C4_5
REMARK    5  A    between atoms: C8_11  and  C9_12
ROOT
HETATM    1  C4  UNL     1      35.074  -6.245  56.230  1.00  0.00     0.128 A
HETATM    2  C5  UNL     1      34.576  -5.757  57.446  1.00  0.00     0.070 A
HETATM    3  C6  UNL     1      34.358  -6.547  58.552  1.00  0.00     0.008 A
HETATM    4  C7  UNL     1      33.828  -5.982  59.828  1.00  0.00     0.068 C
HETATM    5  N2  UNL     1      34.631  -7.859  58.477  1.00  0.00    -0.362 N
ATOM      6  H2  UNL     1      34.470  -8.449  59.294  1.00  0.00     0.165 HD
HETATM    7  C8  UNL     1      35.107  -8.410  57.358  1.00  0.00     0.034 A
HETATM    8  C12 UNL     1      35.329  -7.640  56.252  1.00  0.00     0.075 A
HETATM    9  S1  UNL     1      35.958  -8.466  54.804  1.00  0.00    -0.047 SA
ENDROOT
BRANCH   1  10
HETATM   10  N1  UNL     1      35.275  -5.573  55.238  1.00  0.00    -0.408 NA
BRANCH  10  11
HETATM   11  C3  UNL     1      35.601  -4.569  54.407  1.00  0.00     0.117 C
BRANCH  11  12
HETATM   12  C2  UNL     1      36.928  -4.573  53.673  1.00  0.00     0.068 C
HETATM   13  C1  UNL     1      38.015  -5.383  54.240  1.00  0.00     0.012 C
ENDBRANCH  11  12
BRANCH  11  14
HETATM   14  C13 UNL     1      34.504  -4.098  53.439  1.00  0.00     0.226 C
HETATM   15  C14 UNL     1      34.908  -2.975  52.553  1.00  0.00     0.078 C
HETATM   16  F1  UNL     1      33.959  -5.083  52.692  1.00  0.00    -0.218 F
HETATM   17 CL1  UNL     1      33.153  -3.476  54.470  1.00  0.00    -0.075 Cl
ENDBRANCH  11  14
ENDBRANCH  10  11
ENDBRANCH   1  10
BRANCH   7  18
HETATM   18  C9  UNL     1      35.385  -9.887  57.306  1.00  0.00     0.029 C
HETATM   19  C10 UNL     1      36.499 -10.246  58.284  1.00  0.00     0.016 C
HETATM   20  C11 UNL     1      34.153 -10.655  57.743  1.00  0.00     0.016 C
ENDBRANCH   7  18
TORSDOF 5
ENDMDL