MODEL 1
REMARK VINA RESULT: -7.429559851      0.000      0.000
REMARK  7 active torsions:
REMARK  status: ('A' for Active; 'I' for Inactive)
REMARK    1  A    between atoms: C2_2  and  C3_3
REMARK    2  A    between atoms: C3_3  and  C5_5
REMARK    3  A    between atoms: C3_3  and  N1_10
REMARK    4  A    between atoms: C5_5  and  C6_6
REMARK    5  A    between atoms: N1_10  and  C10_12
REMARK    6  A    between atoms: C11_15  and  O1_16
REMARK    7  A    between atoms: N3_20  and  C14_21
ROOT
HETATM    1  C10 UNL     1      35.725  -3.911  53.371  1.00  0.00     0.687 A
HETATM    2  N2  UNL     1      36.684  -3.629  52.493  1.00  0.00    -0.168 N
ATOM      3  H2  UNL     1      37.661  -3.906  52.579  1.00  0.00     0.186 HD
HETATM    4  C11 UNL     1      36.159  -2.915  51.465  1.00  0.00     0.178 A
HETATM    5  C12 UNL     1      34.816  -2.758  51.733  1.00  0.00     0.082 A
HETATM    6  C13 UNL     1      33.807  -2.031  50.878  1.00  0.00     0.074 C
HETATM    7  N3  UNL     1      34.573  -3.362  52.881  1.00  0.00    -0.124 N
ENDROOT
BRANCH   1   8
HETATM    8  N1  UNL     1      35.724  -4.542  54.461  1.00  0.00    -0.217 N
ATOM      9  H1  UNL     1      35.715  -3.935  55.281  1.00  0.00     0.178 HD
BRANCH   8  10
HETATM   10  C3  UNL     1      35.734  -5.905  54.780  1.00  0.00     0.044 C
HETATM   11  C4  UNL     1      37.200  -6.372  54.732  1.00  0.00     0.039 C
BRANCH  10  12
HETATM   12  C2  UNL     1      35.328  -6.169  56.242  1.00  0.00     0.026 C
HETATM   13  C1  UNL     1      34.070  -5.476  56.610  1.00  0.00     0.007 C
ENDBRANCH  10  12
BRANCH  10  14
HETATM   14  C5  UNL     1      34.864  -6.766  53.956  1.00  0.00     0.039 C
BRANCH  14  15
HETATM   15  C6  UNL     1      34.910  -8.222  54.101  1.00  0.00    -0.049 C
HETATM   16  C7  UNL     1      36.206  -8.878  54.404  1.00  0.00     0.014 C
HETATM   17  C8  UNL     1      34.477  -8.793  52.732  1.00  0.00     0.014 C
HETATM   18  C9  UNL     1      33.883  -8.780  55.076  1.00  0.00     0.014 C
ENDBRANCH  14  15
ENDBRANCH  10  14
ENDBRANCH   8  10
ENDBRANCH   1   8
BRANCH   7  19
HETATM   19  C14 UNL     1      33.259  -3.411  53.496  1.00  0.00     0.480 C
HETATM   20  F1  UNL     1      33.118  -2.389  54.398  1.00  0.00    -0.190 F
HETATM   21  F2  UNL     1      32.304  -3.248  52.503  1.00  0.00    -0.190 F
ENDBRANCH   7  19
BRANCH   4  22
HETATM   22  O1  UNL     1      36.856  -2.444  50.364  1.00  0.00    -0.344 OA
ATOM     23  H1  UNL     1      36.841  -1.553  50.035  1.00  0.00     0.219 HD
ENDBRANCH   4  22
TORSDOF 7
ENDMDL