MODEL 3
REMARK VINA RESULT: -6.754074237      3.637      6.225
REMARK  5 active torsions:
REMARK  status: ('A' for Active; 'I' for Inactive)
REMARK    1  A    between atoms: N1_1  and  C1_4
REMARK    2  A    between atoms: N3_15  and  C8_16
REMARK    3  A    between atoms: C8_16  and  C9_17
REMARK    4  A    between atoms: C9_17  and  C10_18
REMARK    5  A    between atoms: C10_18  and  C11_19
ROOT
HETATM    1  C1  UNL     1      35.435  -7.940  55.284  1.00  0.00     0.679 A
HETATM    2  N2  UNL     1      35.494  -8.176  56.607  1.00  0.00    -0.190 N
ATOM      3  H2  UNL     1      35.944  -8.984  57.037  1.00  0.00     0.184 HD
HETATM    4  C2  UNL     1      34.867  -7.181  57.286  1.00  0.00     0.079 A
HETATM    5  C3  UNL     1      34.662  -6.973  58.639  1.00  0.00     0.076 A
HETATM    6  C4  UNL     1      33.975  -5.850  59.055  1.00  0.00     0.140 A
HETATM    7  F1  UNL     1      33.770  -5.636  60.395  1.00  0.00    -0.204 F
HETATM    8  C5  UNL     1      33.515  -4.971  58.100  1.00  0.00     0.074 A
HETATM    9 CL1  UNL     1      32.644  -3.544  58.622  1.00  0.00    -0.081 Cl
HETATM   10  C6  UNL     1      33.710  -5.164  56.748  1.00  0.00     0.059 A
HETATM   11  C7  UNL     1      34.406  -6.302  56.327  1.00  0.00     0.080 A
HETATM   12  N3  UNL     1      34.766  -6.790  55.129  1.00  0.00    -0.181 N
ENDROOT
BRANCH  12  13
HETATM   13  C8  UNL     1      34.450  -6.126  53.883  1.00  0.00     0.148 C
BRANCH  13  14
HETATM   14  C9  UNL     1      35.204  -4.826  53.730  1.00  0.00     0.021 C
BRANCH  14  15
HETATM   15  C10 UNL     1      34.338  -3.691  53.323  1.00  0.00     0.006 C
BRANCH  15  16
HETATM   16  C11 UNL     1      34.984  -2.697  52.410  1.00  0.00    -0.014 C
HETATM   17  C12 UNL     1      33.930  -2.215  51.422  1.00  0.00     0.004 C
HETATM   18  C13 UNL     1      34.635  -1.979  50.126  1.00  0.00     0.000 C
HETATM   19  C14 UNL     1      36.079  -2.256  50.383  1.00  0.00     0.000 C
HETATM   20  C15 UNL     1      36.066  -3.248  51.554  1.00  0.00     0.004 C
ENDBRANCH  15  16
ENDBRANCH  14  15
ENDBRANCH  13  14
ENDBRANCH  12  13
BRANCH   1  21
HETATM   21  N1  UNL     1      35.942  -8.707  54.352  1.00  0.00    -0.234 N
ATOM     22  H12 UNL     1      36.551  -9.518  54.469  1.00  0.00     0.174 HD
ATOM     23  H11 UNL     1      35.795  -8.596  53.349  1.00  0.00     0.174 HD
ENDBRANCH   1  21
TORSDOF 5
ENDMDL