MODEL 3
REMARK VINA RESULT: -5.046507943      0.631      1.141
REMARK  6 active torsions:
REMARK  status: ('A' for Active; 'I' for Inactive)
REMARK    1  A    between atoms: C4_4  and  C5_5
REMARK    2  A    between atoms: C8_8  and  C9_9
REMARK    3  A    between atoms: C9_9  and  O1_10
REMARK    4  A    between atoms: C9_9  and  C10_12
REMARK    5  A    between atoms: C10_12  and  N1_13
REMARK    6  A    between atoms: N1_13  and  C11_16
ROOT
HETATM    1  C1  UNL     1      35.076 -10.336  59.084  1.00  0.00     0.051 C
HETATM    2  C2  UNL     1      35.080  -9.334  57.948  1.00  0.00    -0.021 A
HETATM    3  C3  UNL     1      35.521  -9.730  56.680  1.00  0.00     0.022 A
HETATM    4  C4  UNL     1      35.588  -8.919  55.589  1.00  0.00    -0.023 A
HETATM    5  C8  UNL     1      35.157  -7.548  55.783  1.00  0.00     0.007 A
HETATM    6  C15 UNL     1      34.733  -7.152  57.011  1.00  0.00     0.082 A
HETATM    7 CL1  UNL     1      34.270  -5.508  57.406  1.00  0.00    -0.080 Cl
HETATM    8  C16 UNL     1      34.687  -8.033  58.102  1.00  0.00     0.144 A
HETATM    9  F1  UNL     1      34.272  -7.662  59.318  1.00  0.00    -0.204 F
ENDROOT
BRANCH   5  10
HETATM   10  C9  UNL     1      35.326  -6.697  54.656  1.00  0.00     0.179 C
BRANCH  10  11
HETATM   11  O1  UNL     1      36.531  -5.910  55.069  1.00  0.00    -0.389 OA
ATOM     12  H1  UNL     1      36.127  -5.116  55.398  1.00  0.00     0.210 HD
ENDBRANCH  10  11
BRANCH  10  13
HETATM   13  C10 UNL     1      34.424  -5.665  54.182  1.00  0.00     0.269 C
BRANCH  13  14
HETATM   14  N1  UNL     1      34.155  -5.136  52.934  1.00  0.00    -0.065 N
ATOM     15  H12 UNL     1      34.831  -5.424  52.227  1.00  0.00     0.278 HD
ATOM     16  H11 UNL     1      33.326  -5.543  52.500  1.00  0.00     0.278 HD
BRANCH  14  17
HETATM   17  C11 UNL     1      34.063  -3.634  53.083  1.00  0.00     0.115 C
HETATM   18  C12 UNL     1      33.311  -3.264  54.318  1.00  0.00     0.045 C
HETATM   19  C13 UNL     1      35.483  -3.165  53.205  1.00  0.00     0.045 C
HETATM   20  C14 UNL     1      33.444  -3.085  51.815  1.00  0.00     0.045 C
ENDBRANCH  14  17
ENDBRANCH  13  14
ENDBRANCH  10  13
ENDBRANCH   5  10
BRANCH   4  21
HETATM   21  C5  UNL     1      36.166  -9.292  54.275  1.00  0.00    -0.077 C
HETATM   22  C6  UNL     1      37.609  -9.651  54.240  1.00  0.00     0.044 C
HETATM   23  C7  UNL     1      35.244  -9.759  53.223  1.00  0.00     0.044 C
ENDBRANCH   4  21
TORSDOF 6
ENDMDL