MODEL 1
REMARK VINA RESULT: -6.204752380      0.000      0.000
REMARK  7 active torsions:
REMARK  status: ('A' for Active; 'I' for Inactive)
REMARK    1  A    between atoms: C2_2  and  C3_3
REMARK    2  A    between atoms: C3_3  and  C11_19
REMARK    3  A    between atoms: C4_4  and  C5_5
REMARK    4  A    between atoms: C6_8  and  C7_9
REMARK    5  A    between atoms: C7_9  and  C8_10
REMARK    6  A    between atoms: C8_10  and  O1_11
REMARK    7  A    between atoms: C8_10  and  C9_13
ROOT
HETATM    1  C5  UNL     1      34.334  -7.075  54.031  1.00  0.00     0.105 A
HETATM    2  N1  UNL     1      34.237  -5.952  53.341  1.00  0.00    -0.341 N
ATOM      3  H1  UNL     1      34.281  -5.903  52.324  1.00  0.00     0.167 HD
HETATM    4  C6  UNL     1      34.071  -4.876  54.142  1.00  0.00     0.051 A
HETATM    5  C10 UNL     1      34.066  -5.399  55.407  1.00  0.00     0.119 A
HETATM    6  N2  UNL     1      34.228  -6.747  55.342  1.00  0.00    -0.350 N
ATOM      7  H2  UNL     1      34.263  -7.391  56.133  1.00  0.00     0.166 HD
ENDROOT
BRANCH   1   8
HETATM    8  C4  UNL     1      34.504  -8.464  53.608  1.00  0.00     0.056 C
HETATM    9  C3  UNL     1      35.605  -9.163  53.742  1.00  0.00    -0.048 C
BRANCH   9  10
HETATM   10  C2  UNL     1      36.766  -8.556  54.345  1.00  0.00    -0.002 C
HETATM   11  C1  UNL     1      37.198  -8.801  55.568  1.00  0.00     0.012 C
ENDBRANCH   9  10
BRANCH   9  12
HETATM   12  C11 UNL     1      35.589 -10.573  53.243  1.00  0.00    -0.024 C
HETATM   13  C12 UNL     1      35.010 -11.546  54.218  1.00  0.00     0.019 C
HETATM   14  C13 UNL     1      34.796 -10.685  51.951  1.00  0.00     0.019 C
HETATM   15  C14 UNL     1      36.997 -11.046  52.900  1.00  0.00     0.019 C
ENDBRANCH   9  12
ENDBRANCH   1   8
BRANCH   4  16
HETATM   16  C7  UNL     1      33.932  -3.485  53.772  1.00  0.00     0.065 C
BRANCH  16  17
HETATM   17  C8  UNL     1      33.928  -3.116  52.497  1.00  0.00     0.078 C
BRANCH  17  18
HETATM   18  O1  UNL     1      32.788  -3.386  51.757  1.00  0.00    -0.362 OA
ATOM     19  H1  UNL     1      32.074  -2.761  51.808  1.00  0.00     0.217 HD
ENDBRANCH  17  18
BRANCH  17  20
HETATM   20  C9  UNL     1      35.090  -2.434  51.864  1.00  0.00     0.234 C
HETATM   21 CL1  UNL     1      34.737  -1.911  50.205  1.00  0.00    -0.101 Cl
HETATM   22 CL2  UNL     1      36.563  -3.386  51.972  1.00  0.00    -0.101 Cl
ENDBRANCH  17  20
ENDBRANCH  16  17
ENDBRANCH   4  16
TORSDOF 7
ENDMDL