MODEL 5
REMARK VINA RESULT: -6.686291244      2.900      3.582
REMARK  14 active torsions:
REMARK  status: ('A' for Active; 'I' for Inactive)
REMARK    1  A    between atoms: C2_2  and  C5_5
REMARK    2  A    between atoms: C6_10  and  N3_11
REMARK    3  A    between atoms: N3_11  and  C7_14
REMARK    4  A    between atoms: C7_14  and  O1_15
REMARK    5  A    between atoms: C7_14  and  C8_17
REMARK    6  A    between atoms: C8_17  and  N4_18
REMARK    7  A    between atoms: C8_17  and  C13_34
REMARK       I    between atoms: N4_18  and  C9_20
REMARK    8  A    between atoms: C9_20  and  C10_22
REMARK    9  A    between atoms: C10_22  and  O3_23
REMARK   10  A    between atoms: C10_22  and  C11_25
REMARK   11  A    between atoms: C11_25  and  O4_26
REMARK   12  A    between atoms: C11_25  and  C12_28
REMARK   13  A    between atoms: C12_28  and  O5_29
REMARK   14  A    between atoms: O5_29  and  S1_30
ROOT
HETATM    1  C8  UNL     1      14.330  21.939  50.180  1.00  0.00     0.242 C
ENDROOT
BRANCH   1   2
HETATM    2  C7  UNL     1      13.940  23.193  50.956  1.00  0.00     0.355 C
BRANCH   2   3
HETATM    3  N3  UNL     1      12.734  22.894  51.661  1.00  0.00    -0.014 N
ATOM      4  H32 UNL     1      12.541  21.893  51.624  1.00  0.00     0.283 HD
ATOM      5  H31 UNL     1      11.927  23.248  51.147  1.00  0.00     0.283 HD
BRANCH   3   6
HETATM    6  C6  UNL     1      12.700  23.356  53.022  1.00  0.00     0.376 C
HETATM    7  N2  UNL     1      13.195  22.332  53.864  1.00  0.00    -0.296 N
HETATM    8  N1  UNL     1      12.521  21.169  54.164  1.00  0.00    -0.299 N
ATOM      9  H2  UNL     1      14.117  22.465  54.279  1.00  0.00     0.183 HD
HETATM   10  C5  UNL     1      11.338  21.149  54.675  1.00  0.00     0.080 C
ATOM     11  H1  UNL     1      12.981  20.280  53.973  1.00  0.00     0.187 HD
HETATM   12  S3  UNL     1      10.542  22.675  55.008  1.00  0.00    -0.038 SA
HETATM   13  S2  UNL     1      10.981  23.866  53.300  1.00  0.00    -0.036 SA
BRANCH  10  14
HETATM   14  C2  UNL     1      10.672  19.911  54.972  1.00  0.00    -0.000 C
HETATM   15  C1  UNL     1      10.367  19.167  53.690  1.00  0.00     0.021 C
HETATM   16  C3  UNL     1      11.472  18.973  55.858  1.00  0.00     0.021 C
HETATM   17  C4  UNL     1       9.378  20.195  55.731  1.00  0.00     0.021 C
ENDBRANCH  10  14
ENDBRANCH   3   6
ENDBRANCH   2   3
BRANCH   2  18
HETATM   18  O1  UNL     1      13.608  24.155  49.982  1.00  0.00    -0.368 OA
ATOM     19  H1  UNL     1      14.188  24.893  50.123  1.00  0.00     0.212 HD
ENDBRANCH   2  18
ENDBRANCH   1   2
BRANCH   1  20
HETATM   20  N4  UNL     1      15.634  21.542  50.669  1.00  0.00    -0.341 N
HETATM   21  C9  UNL     1      16.776  21.558  49.830  1.00  0.00     0.249 C
HETATM   22  O2  UNL     1      16.677  21.917  48.637  1.00  0.00    -0.271 OA
ATOM     23  H4  UNL     1      15.733  21.244  51.640  1.00  0.00     0.163 HD
BRANCH  21  24
HETATM   24  C10 UNL     1      18.087  21.147  50.366  1.00  0.00     0.240 C
BRANCH  24  25
HETATM   25  O3  UNL     1      17.914  20.166  51.309  1.00  0.00    -0.383 OA
ATOM     26  H3  UNL     1      18.597  19.512  51.218  1.00  0.00     0.210 HD
ENDBRANCH  24  25
BRANCH  24  27
HETATM   27  C11 UNL     1      18.729  22.399  50.952  1.00  0.00     0.181 C
BRANCH  27  28
HETATM   28  O4  UNL     1      18.033  23.533  50.548  1.00  0.00    -0.390 OA
ATOM     29  H4  UNL     1      18.313  24.289  51.051  1.00  0.00     0.210 HD
ENDBRANCH  27  28
BRANCH  27  30
HETATM   30  C12 UNL     1      18.730  22.299  52.473  1.00  0.00     0.227 C
BRANCH  30  31
HETATM   31  O5  UNL     1      17.472  22.662  52.948  1.00  0.00    -0.254 OA
BRANCH  31  32
HETATM   32  S1  UNL     1      16.839  21.545  53.999  1.00  0.00     0.251 S
HETATM   33  O6  UNL     1      16.314  22.304  55.204  1.00  0.00    -0.572 OA
HETATM   34  O7  UNL     1      15.668  20.814  53.412  1.00  0.00    -0.572 OA
HETATM   35  O8  UNL     1      17.965  20.453  54.553  1.00  0.00    -0.572 OA
ENDBRANCH  31  32
ENDBRANCH  30  31
ENDBRANCH  27  30
ENDBRANCH  24  27
ENDBRANCH  21  24
ENDBRANCH   1  20
BRANCH   1  36
HETATM   36  C13 UNL     1      13.345  20.862  50.260  1.00  0.00     0.201 C
HETATM   37  O9  UNL     1      12.609  20.555  49.293  1.00  0.00    -0.646 OA
HETATM   38  O10 UNL     1      13.204  20.143  51.437  1.00  0.00    -0.646 OA
ENDBRANCH   1  36
TORSDOF 14
ENDMDL