MODEL 1
REMARK VINA RESULT: -8.881778562      0.000      0.000
REMARK  13 active torsions:
REMARK  status: ('A' for Active; 'I' for Inactive)
REMARK       I    between atoms: C2_2  and  N1_4
REMARK    1  A    between atoms: N1_4  and  C3_6
REMARK    2  A    between atoms: C3_6  and  C4_7
REMARK    3  A    between atoms: C3_6  and  C7_16
REMARK    4  A    between atoms: C6_10  and  N2_11
REMARK    5  A    between atoms: C7_16  and  C8_17
REMARK    6  A    between atoms: C7_16  and  N8_29
REMARK    7  A    between atoms: C7_16  and  C16_43
REMARK    8  A    between atoms: C8_17  and  O2_18
REMARK    9  A    between atoms: O2_18  and  C9_19
REMARK   10  A    between atoms: C9_19  and  C10_21
REMARK   11  A    between atoms: C10_21  and  N4_22
REMARK   12  A    between atoms: N8_29  and  C12_31
REMARK   13  A    between atoms: C14_35  and  N10_36
ROOT
HETATM    1  C7  UNL     1      15.639  22.596  48.490  1.00  0.00     0.158 C
ENDROOT
BRANCH   1   2
HETATM    2  C3  UNL     1      14.690  21.745  49.244  1.00  0.00     0.174 C
BRANCH   2   3
HETATM    3  N1  UNL     1      15.181  21.597  50.625  1.00  0.00    -0.348 N
HETATM    4  C2  UNL     1      14.346  21.780  51.742  1.00  0.00     0.214 C
HETATM    5  C1  UNL     1      14.855  21.616  53.114  1.00  0.00     0.117 C
HETATM    6  O1  UNL     1      13.147  22.085  51.562  1.00  0.00    -0.274 OA
ATOM      7  H1  UNL     1      16.160  21.353  50.777  1.00  0.00     0.163 HD
ENDBRANCH   2   3
BRANCH   2   8
HETATM    8  C4  UNL     1      14.411  20.350  48.736  1.00  0.00     0.043 A
HETATM    9  C5  UNL     1      13.113  19.909  48.644  1.00  0.00     0.080 A
HETATM   10  S1  UNL     1      13.281  18.313  48.069  1.00  0.00    -0.064 SA
HETATM   11  C6  UNL     1      14.979  18.277  47.971  1.00  0.00     0.142 A
HETATM   12  N3  UNL     1      15.348  19.486  48.383  1.00  0.00    -0.338 N
ATOM     13  H3  UNL     1      16.334  19.742  48.425  1.00  0.00     0.168 HD
BRANCH  11  14
HETATM   14  N2  UNL     1      15.776  17.295  47.585  1.00  0.00    -0.380 N
ATOM     15  H22 UNL     1      15.898  16.945  46.634  1.00  0.00     0.158 HD
ATOM     16  H21 UNL     1      16.405  16.715  48.142  1.00  0.00     0.158 HD
ENDBRANCH  11  14
ENDBRANCH   2   8
ENDBRANCH   1   2
BRANCH   1  17
HETATM   17  C8  UNL     1      17.062  22.619  48.931  1.00  0.00     0.222 C
BRANCH  17  18
HETATM   18  O2  UNL     1      17.669  21.417  49.253  1.00  0.00    -0.317 OA
BRANCH  18  19
HETATM   19  C9  UNL     1      18.677  21.349  50.174  1.00  0.00     0.278 C
HETATM   20  O3  UNL     1      19.574  20.481  50.000  1.00  0.00    -0.263 OA
BRANCH  19  21
HETATM   21  C10 UNL     1      18.792  22.220  51.359  1.00  0.00     0.261 C
BRANCH  21  22
HETATM   22  N4  UNL     1      18.503  21.535  52.585  1.00  0.00    -0.265 N
HETATM   23  C11 UNL     1      18.446  22.103  53.798  1.00  0.00     0.217 A
HETATM   24  N5  UNL     1      18.148  21.136  54.715  1.00  0.00    -0.278 N
HETATM   25  N6  UNL     1      18.034  20.014  54.029  1.00  0.00    -0.006 NA
ATOM     26  H5  UNL     1      18.038  21.256  55.723  1.00  0.00     0.185 HD
HETATM   27  N7  UNL     1      18.252  20.260  52.727  1.00  0.00    -0.223 N
ATOM     28  H7  UNL     1      18.225  19.570  51.976  1.00  0.00     0.206 HD
ENDBRANCH  21  22
ENDBRANCH  19  21
ENDBRANCH  18  19
ENDBRANCH  17  18
ENDBRANCH   1  17
BRANCH   1  29
HETATM   29  N8  UNL     1      15.447  22.745  47.082  1.00  0.00    -0.363 N
ATOM     30  H8  UNL     1      14.642  22.207  46.760  1.00  0.00     0.161 HD
BRANCH  29  31
HETATM   31  C12 UNL     1      16.043  23.410  46.042  1.00  0.00     0.114 A
HETATM   32  C13 UNL     1      17.353  23.373  45.690  1.00  0.00     0.141 A
HETATM   33  N9  UNL     1      17.861  24.096  44.665  1.00  0.00    -0.200 N
HETATM   34  C14 UNL     1      17.089  24.899  43.931  1.00  0.00     0.678 A
ATOM     35  H9  UNL     1      18.855  24.025  44.449  1.00  0.00     0.183 HD
HETATM   36  N11 UNL     1      15.786  24.979  44.228  1.00  0.00    -0.154 N
HETATM   37  C15 UNL     1      15.270  24.273  45.236  1.00  0.00     0.287 A
ATOM     38  H11 UNL     1      15.181  25.588  43.678  1.00  0.00     0.187 HD
HETATM   39  O4  UNL     1      14.064  24.388  45.461  1.00  0.00    -0.265 OA
BRANCH  34  40
HETATM   40  N10 UNL     1      17.580  25.594  42.941  1.00  0.00    -0.234 N
ATOM     41 2H10 UNL     1      18.497  26.032  43.028  1.00  0.00     0.174 HD
ATOM     42 1H10 UNL     1      17.064  25.715  42.070  1.00  0.00     0.174 HD
ENDBRANCH  34  40
ENDBRANCH  29  31
ENDBRANCH   1  29
BRANCH   1  43
HETATM   43  C16 UNL     1      15.163  24.011  49.007  1.00  0.00     0.264 C
HETATM   44  N12 UNL     1      16.032  24.808  49.769  1.00  0.00    -0.060 NA
HETATM   45  O5  UNL     1      14.021  24.417  48.732  1.00  0.00    -0.274 OA
ENDBRANCH   1  43
TORSDOF 13
ENDMDL