MODEL 4
REMARK VINA RESULT: -8.285339794      1.578      1.976
REMARK  15 active torsions:
REMARK  status: ('A' for Active; 'I' for Inactive)
REMARK    1  A    between atoms: N2_3  and  C2_5
REMARK    2  A    between atoms: C2_5  and  N3_6
REMARK    3  A    between atoms: C2_5  and  C3_10
REMARK    4  A    between atoms: C2_5  and  C9_28
REMARK    5  A    between atoms: C3_10  and  N4_11
REMARK    6  A    between atoms: C5_17  and  C6_18
REMARK    7  A    between atoms: C6_18  and  O1_19
REMARK    8  A    between atoms: C6_18  and  N7_21
REMARK    9  A    between atoms: N7_21  and  C7_24
REMARK   10  A    between atoms: C7_24  and  C8_25
REMARK   11  A    between atoms: C9_28  and  N9_29
REMARK   12  A    between atoms: C12_34  and  N11_35
REMARK   13  A    between atoms: N11_35  and  C13_37
REMARK   14  A    between atoms: C13_37  and  C14_38
REMARK   15  A    between atoms: C18_45  and  N13_46
ROOT
HETATM    1  N1  UNL     1      21.104  18.619  52.534  1.00  0.00    -0.172 NA
HETATM    2  C1  UNL     1      20.324  19.372  52.940  1.00  0.00     0.179 C
HETATM    3  N2  UNL     1      19.364  20.304  53.429  1.00  0.00    -0.292 N
ATOM      4  H2  UNL     1      19.245  20.431  54.434  1.00  0.00     0.174 HD
ENDROOT
BRANCH   3   5
HETATM    5  C2  UNL     1      18.566  21.065  52.514  1.00  0.00     0.236 C
BRANCH   5   6
HETATM    6  N3  UNL     1      18.463  22.399  53.116  1.00  0.00    -0.049 N
ATOM      7  H33 UNL     1      18.912  22.476  54.029  1.00  0.00     0.277 HD
ATOM      8  H32 UNL     1      19.028  23.108  52.648  1.00  0.00     0.277 HD
ATOM      9  H31 UNL     1      17.464  22.607  53.128  1.00  0.00     0.277 HD
ENDBRANCH   5   6
BRANCH   5  10
HETATM   10  C3  UNL     1      17.192  20.507  52.342  1.00  0.00     0.195 C
BRANCH  10  11
HETATM   11  N4  UNL     1      16.207  20.905  53.303  1.00  0.00    -0.323 N
HETATM   12  C4  UNL     1      16.445  20.797  54.651  1.00  0.00     0.201 A
HETATM   13  N5  UNL     1      15.372  21.245  55.300  1.00  0.00    -0.295 N
HETATM   14  N6  UNL     1      14.485  21.621  54.440  1.00  0.00    -0.284 N
ATOM     15  H5  UNL     1      15.268  21.284  56.314  1.00  0.00     0.187 HD
HETATM   16  C5  UNL     1      15.006  21.408  53.189  1.00  0.00     0.156 A
ATOM     17  H6  UNL     1      13.565  22.007  54.652  1.00  0.00     0.188 HD
BRANCH  16  18
HETATM   18  C6  UNL     1      14.212  21.717  51.975  1.00  0.00     0.389 C
BRANCH  18  19
HETATM   19  O1  UNL     1      12.873  21.940  52.372  1.00  0.00    -0.364 OA
ATOM     20  H1  UNL     1      12.311  21.744  51.631  1.00  0.00     0.212 HD
ENDBRANCH  18  19
BRANCH  18  21
HETATM   21  N7  UNL     1      14.620  22.976  51.355  1.00  0.00    -0.034 N
ATOM     22  H72 UNL     1      15.298  23.482  51.924  1.00  0.00     0.281 HD
ATOM     23  H71 UNL     1      15.202  22.827  50.531  1.00  0.00     0.281 HD
BRANCH  21  24
HETATM   24  C7  UNL     1      13.438  23.782  51.058  1.00  0.00     0.334 C
BRANCH  24  25
HETATM   25  C8  UNL     1      13.810  25.171  50.712  1.00  0.00     0.257 C
HETATM   26  N8  UNL     1      15.013  25.460  50.037  1.00  0.00    -0.061 NA
HETATM   27  O2  UNL     1      13.021  26.089  51.037  1.00  0.00    -0.275 OA
ENDBRANCH  24  25
ENDBRANCH  21  24
ENDBRANCH  18  21
ENDBRANCH  16  18
ENDBRANCH  10  11
ENDBRANCH   5  10
BRANCH   5  28
HETATM   28  C9  UNL     1      19.220  21.197  51.154  1.00  0.00     0.195 C
BRANCH  28  29
HETATM   29  N9  UNL     1      18.528  22.113  50.283  1.00  0.00    -0.323 N
HETATM   30  C10 UNL     1      18.800  23.406  50.064  1.00  0.00     0.185 A
HETATM   31  N10 UNL     1      17.906  23.928  49.207  1.00  0.00    -0.346 N
HETATM   32  C11 UNL     1      17.054  22.951  48.877  1.00  0.00     0.123 A
ATOM     33  H10 UNL     1      17.882  24.891  48.871  1.00  0.00     0.167 HD
HETATM   34  C12 UNL     1      15.966  22.917  48.052  1.00  0.00     0.148 A
HETATM   35  C19 UNL     1      17.445  21.816  49.550  1.00  0.00     0.155 A
HETATM   36  N12 UNL     1      15.305  21.717  47.935  1.00  0.00    -0.175 N
HETATM   37  C18 UNL     1      15.670  20.614  48.575  1.00  0.00     0.679 A
ATOM     38  H12 UNL     1      14.490  21.673  47.323  1.00  0.00     0.186 HD
HETATM   39  N14 UNL     1      16.739  20.651  49.386  1.00  0.00    -0.174 N
ATOM     40  H14 UNL     1      17.028  19.809  49.882  1.00  0.00     0.186 HD
BRANCH  34  41
HETATM   41  N11 UNL     1      15.492  23.888  47.374  1.00  0.00    -0.368 N
ATOM     42  H11 UNL     1      15.676  24.819  47.748  1.00  0.00     0.161 HD
BRANCH  41  43
HETATM   43  C13 UNL     1      14.742  23.850  46.168  1.00  0.00     0.186 C
BRANCH  43  44
HETATM   44  C14 UNL     1      15.601  24.278  45.011  1.00  0.00     0.070 A
HETATM   45  C15 UNL     1      15.168  24.752  43.800  1.00  0.00     0.036 A
HETATM   46  C16 UNL     1      16.284  25.029  43.017  1.00  0.00     0.027 A
HETATM   47  C17 UNL     1      17.354  24.698  43.822  1.00  0.00     0.142 A
HETATM   48  O3  UNL     1      16.904  24.263  44.981  1.00  0.00    -0.325 OA
ENDBRANCH  43  44
ENDBRANCH  41  43
ENDBRANCH  34  41
BRANCH  37  49
HETATM   49  N13 UNL     1      15.003  19.498  48.418  1.00  0.00    -0.234 N
ATOM     50 2H13 UNL     1      14.113  19.500  47.920  1.00  0.00     0.174 HD
ATOM     51 1H13 UNL     1      15.362  18.619  48.793  1.00  0.00     0.174 HD
ENDBRANCH  37  49
ENDBRANCH  28  29
ENDBRANCH   5  28
ENDBRANCH   3   5
TORSDOF 15
ENDMDL