MODEL 3
REMARK VINA RESULT: -8.031486535      4.638      8.465
REMARK  17 active torsions:
REMARK  status: ('A' for Active; 'I' for Inactive)
REMARK    1  A    between atoms: S1_2  and  C2_3
REMARK    2  A    between atoms: C3_4  and  C4_5
REMARK    3  A    between atoms: C4_5  and  C5_6
REMARK    4  A    between atoms: C5_6  and  C6_7
REMARK    5  A    between atoms: C6_7  and  O1_8
REMARK    6  A    between atoms: C6_7  and  C7_10
REMARK    7  A    between atoms: C7_10  and  O2_11
REMARK    8  A    between atoms: C7_10  and  C8_13
REMARK    9  A    between atoms: C8_13  and  C9_15
REMARK   10  A    between atoms: C9_15  and  O4_16
REMARK   11  A    between atoms: C9_15  and  C10_18
REMARK   12  A    between atoms: C10_18  and  O5_19
REMARK   13  A    between atoms: C11_22  and  C12_23
REMARK   14  A    between atoms: C12_23  and  N1_24
REMARK   15  A    between atoms: N1_24  and  C13_26
REMARK   16  A    between atoms: C16_33  and  C17_34
REMARK       I    between atoms: C17_34  and  N4_36
REMARK   17  A    between atoms: N4_36  and  C18_38
ROOT
HETATM    1  C2  UNL     1      17.305  21.110  53.900  1.00  0.00     0.048 A
HETATM    2  C3  UNL     1      17.236  22.009  52.851  1.00  0.00     0.071 A
HETATM    3  O6  UNL     1      15.976  22.308  52.647  1.00  0.00    -0.315 OA
HETATM    4  C11 UNL     1      15.190  21.681  53.473  1.00  0.00     0.088 A
HETATM    5  C16 UNL     1      16.004  20.903  54.292  1.00  0.00     0.083 A
ENDROOT
BRANCH   2   6
HETATM    6  C4  UNL     1      18.384  22.575  52.053  1.00  0.00     0.069 C
BRANCH   6   7
HETATM    7  C5  UNL     1      17.874  23.632  51.105  1.00  0.00     0.041 C
BRANCH   7   8
HETATM    8  C6  UNL     1      17.513  23.146  49.752  1.00  0.00     0.154 C
BRANCH   8   9
HETATM    9  O1  UNL     1      18.386  23.595  48.794  1.00  0.00    -0.393 OA
ATOM     10  H1  UNL     1      17.953  23.758  47.965  1.00  0.00     0.210 HD
ENDBRANCH   8   9
BRANCH   8  11
HETATM   11  C7  UNL     1      16.053  23.345  49.366  1.00  0.00     0.219 C
BRANCH  11  12
HETATM   12  O2  UNL     1      15.682  24.651  49.356  1.00  0.00    -0.385 OA
ATOM     13  H2  UNL     1      14.746  24.769  49.241  1.00  0.00     0.210 HD
ENDBRANCH  11  12
BRANCH  11  14
HETATM   14  C8  UNL     1      15.830  22.559  48.157  1.00  0.00     0.188 C
HETATM   15  O3  UNL     1      16.280  21.391  48.235  1.00  0.00    -0.292 OA
BRANCH  14  16
HETATM   16  C9  UNL     1      15.186  22.902  46.900  1.00  0.00     0.213 C
BRANCH  16  17
HETATM   17  O4  UNL     1      14.079  23.766  47.104  1.00  0.00    -0.386 OA
ATOM     18  H4  UNL     1      13.256  23.294  47.048  1.00  0.00     0.210 HD
ENDBRANCH  16  17
BRANCH  16  19
HETATM   19  C10 UNL     1      16.031  23.601  45.870  1.00  0.00     0.203 C
BRANCH  19  20
HETATM   20  O5  UNL     1      17.379  23.445  45.988  1.00  0.00    -0.398 OA
ATOM     21  H5  UNL     1      17.833  23.112  45.223  1.00  0.00     0.209 HD
ENDBRANCH  19  20
ENDBRANCH  16  19
ENDBRANCH  14  16
ENDBRANCH  11  14
ENDBRANCH   8  11
ENDBRANCH   7   8
ENDBRANCH   6   7
ENDBRANCH   2   6
BRANCH   1  22
HETATM   22  S1  UNL     1      18.815  20.447  54.504  1.00  0.00    -0.131 SA
HETATM   23  C1  UNL     1      19.801  19.577  53.299  1.00  0.00     0.095 C
ENDBRANCH   1  22
BRANCH   5  24
HETATM   24  C17 UNL     1      15.532  20.038  55.360  1.00  0.00     0.273 C
HETATM   25  O7  UNL     1      15.976  18.875  55.504  1.00  0.00    -0.267 OA
HETATM   26  N4  UNL     1      14.557  20.521  56.250  1.00  0.00    -0.153 N
ATOM     27  H4  UNL     1      14.342  21.516  56.177  1.00  0.00     0.187 HD
BRANCH  26  28
HETATM   28  C18 UNL     1      13.912  19.881  57.128  1.00  0.00     0.710 A
HETATM   29  N5  UNL     1      13.835  20.315  58.416  1.00  0.00    -0.117 N
HETATM   30  N6  UNL     1      13.107  19.467  59.119  1.00  0.00     0.006 NA
ATOM     31  H5  UNL     1      14.270  21.163  58.781  1.00  0.00     0.202 HD
HETATM   32  N7  UNL     1      12.721  18.503  58.303  1.00  0.00     0.006 NA
HETATM   33  N8  UNL     1      13.208  18.748  57.089  1.00  0.00    -0.117 N
ATOM     34  H8  UNL     1      13.065  18.166  56.263  1.00  0.00     0.202 HD
ENDBRANCH  26  28
ENDBRANCH   5  24
BRANCH   4  35
HETATM   35  C12 UNL     1      13.718  21.773  53.533  1.00  0.00     0.189 C
BRANCH  35  36
HETATM   36  N1  UNL     1      13.181  22.156  52.251  1.00  0.00    -0.356 N
ATOM     37  H1  UNL     1      13.149  21.468  51.499  1.00  0.00     0.162 HD
BRANCH  36  38
HETATM   38  C13 UNL     1      12.699  23.464  52.010  1.00  0.00     0.171 C
HETATM   39  N2  UNL     1      11.808  24.008  52.796  1.00  0.00    -0.361 N
HETATM   40  C14 UNL     1      11.469  25.333  52.362  1.00  0.00     0.142 C
ATOM     41  H2  UNL     1      11.406  23.551  53.615  1.00  0.00     0.162 HD
HETATM   42  C15 UNL     1      12.498  25.658  51.319  1.00  0.00     0.142 C
HETATM   43  N3  UNL     1      13.044  24.364  50.977  1.00  0.00    -0.361 N
ATOM     44  H3  UNL     1      13.581  24.141  50.139  1.00  0.00     0.162 HD
ENDBRANCH  36  38
ENDBRANCH  35  36
ENDBRANCH   4  35
TORSDOF 17
ENDMDL