MODEL 1
REMARK VINA RESULT: -7.559530194      0.000      0.000
REMARK  15 active torsions:
REMARK  status: ('A' for Active; 'I' for Inactive)
REMARK    1  A    between atoms: C2_2  and  S1_3
REMARK    2  A    between atoms: S1_3  and  C3_4
REMARK    3  A    between atoms: C3_4  and  C4_5
REMARK    4  A    between atoms: C4_5  and  N1_7
REMARK    5  A    between atoms: C4_5  and  C6_11
REMARK       I    between atoms: C6_11  and  N2_13
REMARK    6  A    between atoms: N2_13  and  C7_15
REMARK    7  A    between atoms: C8_19  and  O2_20
REMARK    8  A    between atoms: C9_25  and  N5_26
REMARK    9  A    between atoms: C10_30  and  O3_31
REMARK   10  A    between atoms: O3_31  and  C11_32
REMARK   11  A    between atoms: C11_32  and  C12_34
REMARK   12  A    between atoms: C12_34  and  N6_36
REMARK   13  A    between atoms: N6_36  and  C14_38
REMARK   14  A    between atoms: C14_38  and  N8_41
REMARK   15  A    between atoms: N8_41  and  S2_43
ROOT
HETATM    1  C14 UNL     1      18.536  19.882  52.617  1.00  0.00     0.297 C
HETATM    2  C15 UNL     1      19.928  19.327  52.529  1.00  0.00     0.106 C
HETATM    3  N7  UNL     1      20.998  18.920  52.460  1.00  0.00    -0.193 NA
ENDROOT
BRANCH   1   4
HETATM    4  N6  UNL     1      18.211  20.503  51.394  1.00  0.00    -0.377 N
ATOM      5  H6  UNL     1      17.625  20.044  50.697  1.00  0.00     0.157 HD
BRANCH   4   6
HETATM    6  C12 UNL     1      18.741  21.797  51.186  1.00  0.00     0.175 C
HETATM    7  C13 UNL     1      19.672  21.715  49.981  1.00  0.00     0.042 C
BRANCH   6   8
HETATM    8  C11 UNL     1      17.749  22.886  51.012  1.00  0.00     0.281 C
HETATM    9  O4  UNL     1      17.510  23.799  51.831  1.00  0.00    -0.263 OA
BRANCH   8  10
HETATM   10  O3  UNL     1      17.010  22.903  49.840  1.00  0.00    -0.306 OA
BRANCH  10  11
HETATM   11  C10 UNL     1      15.638  22.857  49.696  1.00  0.00     0.240 C
HETATM   12  C7  UNL     1      14.982  21.725  50.459  1.00  0.00     0.325 C
HETATM   13  N3  UNL     1      14.266  20.907  49.506  1.00  0.00     0.001 N
HETATM   14  C8  UNL     1      15.128  20.387  48.445  1.00  0.00     0.526 C
ATOM     15  H32 UNL     1      13.768  20.151  49.976  1.00  0.00     0.285 HD
ATOM     16  H31 UNL     1      13.471  21.413  49.117  1.00  0.00     0.285 HD
HETATM   17  N4  UNL     1      15.674  21.500  47.684  1.00  0.00     0.009 N
HETATM   18  C9  UNL     1      15.176  22.769  48.261  1.00  0.00     0.418 C
ATOM     19  H42 UNL     1      16.693  21.472  47.630  1.00  0.00     0.285 HD
ATOM     20  H41 UNL     1      15.476  21.423  46.686  1.00  0.00     0.285 HD
BRANCH  12  21
HETATM   21  N2  UNL     1      14.050  22.137  51.458  1.00  0.00    -0.329 N
HETATM   22  C6  UNL     1      13.038  21.252  51.916  1.00  0.00     0.256 C
HETATM   23  O1  UNL     1      12.954  20.086  51.449  1.00  0.00    -0.271 OA
ATOM     24  H2  UNL     1      14.111  23.077  51.848  1.00  0.00     0.164 HD
BRANCH  22  25
HETATM   25  C4  UNL     1      12.025  21.619  52.951  1.00  0.00     0.208 C
HETATM   26  C5  UNL     1      11.066  20.433  53.097  1.00  0.00     0.057 C
BRANCH  25  27
HETATM   27  C3  UNL     1      11.246  22.769  52.388  1.00  0.00     0.122 C
BRANCH  27  28
HETATM   28  S1  UNL     1      11.425  24.311  53.277  1.00  0.00    -0.167 SA
BRANCH  28  29
HETATM   29  C2  UNL     1      11.595  25.712  52.168  1.00  0.00     0.069 C
HETATM   30  C1  UNL     1      12.576  25.351  51.064  1.00  0.00     0.016 C
ENDBRANCH  28  29
ENDBRANCH  27  28
ENDBRANCH  25  27
BRANCH  25  31
HETATM   31  N1  UNL     1      12.608  21.842  54.234  1.00  0.00    -0.061 N
ATOM     32  H13 UNL     1      12.094  22.571  54.729  1.00  0.00     0.275 HD
ATOM     33  H12 UNL     1      12.424  21.045  54.844  1.00  0.00     0.275 HD
ATOM     34  H11 UNL     1      13.605  22.058  54.231  1.00  0.00     0.275 HD
ENDBRANCH  25  31
ENDBRANCH  22  25
ENDBRANCH  12  21
BRANCH  14  35
HETATM   35  O2  UNL     1      16.165  19.617  48.900  1.00  0.00    -0.349 OA
ATOM     36  H2  UNL     1      16.033  18.684  48.779  1.00  0.00     0.213 HD
ENDBRANCH  14  35
BRANCH  18  37
HETATM   37  N5  UNL     1      15.625  23.823  47.419  1.00  0.00    -0.047 N
ATOM     38  H53 UNL     1      15.569  23.593  46.428  1.00  0.00     0.276 HD
ATOM     39  H52 UNL     1      14.989  24.621  47.406  1.00  0.00     0.276 HD
ATOM     40  H51 UNL     1      16.568  24.071  47.719  1.00  0.00     0.276 HD
ENDBRANCH  18  37
ENDBRANCH  10  11
ENDBRANCH   8  10
ENDBRANCH   6   8
ENDBRANCH   4   6
ENDBRANCH   1   4
BRANCH   1  41
HETATM   41  N8  UNL     1      18.550  20.756  53.774  1.00  0.00    -0.285 N
ATOM     42  H8  UNL     1      19.406  21.191  54.122  1.00  0.00     0.175 HD
BRANCH  41  43
HETATM   43  S2  UNL     1      17.042  21.001  54.507  1.00  0.00     0.225 S
HETATM   44  C16 UNL     1      16.794  20.009  55.926  1.00  0.00     0.186 C
HETATM   45  O5  UNL     1      16.839  22.459  54.818  1.00  0.00    -0.206 OA
HETATM   46  O6  UNL     1      15.967  20.644  53.496  1.00  0.00    -0.206 OA
ENDBRANCH  41  43
ENDBRANCH   1  41
TORSDOF 15
ENDMDL