MODEL 5
REMARK VINA RESULT: -8.276449963      2.453      5.484
REMARK  13 active torsions:
REMARK  status: ('A' for Active; 'I' for Inactive)
REMARK    1  A    between atoms: N1_1  and  C1_4
REMARK    2  A    between atoms: C5_14  and  C6_15
REMARK    3  A    between atoms: C6_15  and  O1_16
REMARK    4  A    between atoms: C6_15  and  N5_18
REMARK    5  A    between atoms: N5_18  and  C7_20
REMARK    6  A    between atoms: C9_26  and  C10_27
REMARK       I    between atoms: C10_27  and  N8_29
REMARK    7  A    between atoms: N8_29  and  C11_31
REMARK    8  A    between atoms: C11_31  and  C12_32
REMARK    9  A    between atoms: N11_37  and  C13_38
REMARK   10  A    between atoms: C13_38  and  C14_39
REMARK   11  A    between atoms: C14_39  and  C15_40
REMARK   12  A    between atoms: C15_40  and  C16_41
REMARK   13  A    between atoms: C16_41  and  O3_42
ROOT
HETATM    1  C7  UNL     1      15.023  23.639  47.890  1.00  0.00     0.141 A
HETATM    2  N6  UNL     1      14.746  23.680  46.572  1.00  0.00    -0.337 N
ATOM      3  H6  UNL     1      13.814  23.798  46.173  1.00  0.00     0.168 HD
HETATM    4  C8  UNL     1      15.865  23.546  45.867  1.00  0.00     0.182 A
HETATM    5  N7  UNL     1      16.861  23.417  46.733  1.00  0.00    -0.345 N
ATOM      6  H7  UNL     1      17.840  23.298  46.473  1.00  0.00     0.167 HD
HETATM    7  C9  UNL     1      16.401  23.465  48.022  1.00  0.00     0.146 A
ENDROOT
BRANCH   1   8
HETATM    8  N5  UNL     1      14.114  23.690  48.963  1.00  0.00    -0.320 N
ATOM      9  H5  UNL     1      13.423  22.940  48.953  1.00  0.00     0.169 HD
BRANCH   8  10
HETATM   10  C6  UNL     1      13.978  24.564  50.032  1.00  0.00     0.157 C
BRANCH  10  11
HETATM   11  C5  UNL     1      13.079  24.576  51.160  1.00  0.00     0.081 A
HETATM   12  C4  UNL     1      12.438  25.750  51.545  1.00  0.00     0.109 A
HETATM   13  N4  UNL     1      11.617  25.780  52.586  1.00  0.00    -0.350 N
HETATM   14  C3  UNL     1      11.403  24.638  53.280  1.00  0.00     0.124 A
ATOM     15  H4  UNL     1      11.156  26.648  52.859  1.00  0.00     0.166 HD
HETATM   16  N3  UNL     1      10.550  24.691  54.339  1.00  0.00    -0.338 N
HETATM   17  C19 UNL     1      11.993  23.427  52.968  1.00  0.00     0.102 A
HETATM   18  C2  UNL     1      10.297  23.586  55.055  1.00  0.00     0.183 A
ATOM     19  H3  UNL     1      10.102  25.573  54.588  1.00  0.00     0.168 HD
HETATM   20  N2  UNL     1      10.862  22.426  54.757  1.00  0.00    -0.338 N
HETATM   21  C1  UNL     1      11.740  22.261  53.706  1.00  0.00     0.117 A
ATOM     22  H2  UNL     1      10.638  21.615  55.333  1.00  0.00     0.168 HD
HETATM   23  C18 UNL     1      12.843  23.431  51.879  1.00  0.00     0.205 A
HETATM   24  O5  UNL     1      13.407  22.345  51.553  1.00  0.00    -0.286 OA
BRANCH  21  25
HETATM   25  N1  UNL     1      12.222  21.177  53.461  1.00  0.00    -0.385 N
ATOM     26  H12 UNL     1      12.691  20.586  54.147  1.00  0.00     0.157 HD
ATOM     27  H11 UNL     1      12.192  20.791  52.517  1.00  0.00     0.157 HD
ENDBRANCH  21  25
ENDBRANCH  10  11
BRANCH  10  28
HETATM   28  O1  UNL     1      14.817  25.570  50.024  1.00  0.00    -0.345 OA
ATOM     29  H1  UNL     1      15.547  25.448  49.429  1.00  0.00     0.219 HD
ENDBRANCH  10  28
ENDBRANCH   8  10
ENDBRANCH   1   8
BRANCH   7  30
HETATM   30  C10 UNL     1      17.252  23.355  49.185  1.00  0.00     0.272 C
HETATM   31  O2  UNL     1      16.821  23.355  50.334  1.00  0.00    -0.266 OA
HETATM   32  N8  UNL     1      18.675  23.234  49.020  1.00  0.00    -0.348 N
ATOM     33  H8  UNL     1      19.071  23.227  48.080  1.00  0.00     0.163 HD
BRANCH  32  34
HETATM   34  C11 UNL     1      19.557  23.121  50.165  1.00  0.00     0.202 C
BRANCH  34  35
HETATM   35  C12 UNL     1      19.333  21.845  50.892  1.00  0.00     0.131 A
HETATM   36  N9  UNL     1      19.697  20.618  50.459  1.00  0.00    -0.271 N
HETATM   37  N10 UNL     1      19.319  19.765  51.381  1.00  0.00    -0.225 N
ATOM     38  H9  UNL     1      20.174  20.397  49.585  1.00  0.00     0.190 HD
HETATM   39  N11 UNL     1      18.730  20.379  52.385  1.00  0.00    -0.218 N
ATOM     40  H10 UNL     1      19.463  18.756  51.327  1.00  0.00     0.210 HD
HETATM   41  N12 UNL     1      18.738  21.666  52.085  1.00  0.00    -0.269 N
ATOM     42  H12 UNL     1      18.353  22.409  52.668  1.00  0.00     0.190 HD
BRANCH  39  43
HETATM   43  C13 UNL     1      18.176  19.763  53.576  1.00  0.00     0.174 C
BRANCH  43  44
HETATM   44  C14 UNL     1      17.762  20.741  54.623  1.00  0.00     0.066 C
BRANCH  44  45
HETATM   45  C15 UNL     1      16.247  20.709  54.737  1.00  0.00     0.105 A
HETATM   46  C17 UNL     1      15.548  21.944  54.200  1.00  0.00     0.209 A
HETATM   47  O4  UNL     1      15.521  20.673  53.547  1.00  0.00    -0.373 OA
BRANCH  45  48
HETATM   48  C16 UNL     1      15.602  20.034  55.917  1.00  0.00     0.204 C
BRANCH  48  49
HETATM   49  O3  UNL     1      15.732  18.646  55.854  1.00  0.00    -0.398 OA
ATOM     50  H3  UNL     1      15.947  18.352  54.978  1.00  0.00     0.209 HD
ENDBRANCH  48  49
ENDBRANCH  45  48
ENDBRANCH  44  45
ENDBRANCH  43  44
ENDBRANCH  39  43
ENDBRANCH  34  35
ENDBRANCH  32  34
ENDBRANCH   7  30
TORSDOF 13
ENDMDL