MODEL 4
REMARK VINA RESULT: -7.728505929      1.085      2.382
REMARK  12 active torsions:
REMARK  status: ('A' for Active; 'I' for Inactive)
REMARK    1  A    between atoms: C1_4  and  C2_5
REMARK    2  A    between atoms: C2_5  and  C3_6
REMARK       I    between atoms: C3_6  and  N2_8
REMARK    3  A    between atoms: N2_8  and  C4_10
REMARK    4  A    between atoms: C4_10  and  C5_11
REMARK    5  A    between atoms: C4_10  and  N4_24
REMARK       I    between atoms: C5_11  and  N3_13
REMARK    6  A    between atoms: N3_13  and  C6_15
REMARK    7  A    between atoms: C6_15  and  C7_16
REMARK    8  A    between atoms: C6_15  and  C8_19
REMARK    9  A    between atoms: C8_19  and  C9_21
REMARK   10  A    between atoms: C10_25  and  N5_26
REMARK   11  A    between atoms: C12_32  and  O8_33
REMARK   12  A    between atoms: C13_35  and  N7_36
ROOT
HETATM    1  C4  UNL     1      14.457  22.012  50.263  1.00  0.00     0.306 C
ENDROOT
BRANCH   1   2
HETATM    2  N2  UNL     1      13.784  20.826  49.765  1.00  0.00    -0.331 N
HETATM    3  C3  UNL     1      13.848  20.444  48.397  1.00  0.00     0.224 C
HETATM    4  O1  UNL     1      14.491  21.112  47.551  1.00  0.00    -0.273 OA
ATOM      5  H2  UNL     1      13.250  20.251  50.415  1.00  0.00     0.165 HD
BRANCH   3   6
HETATM    6  C2  UNL     1      13.132  19.213  47.954  1.00  0.00     0.146 C
BRANCH   6   7
HETATM    7  C1  UNL     1      14.072  18.069  47.812  1.00  0.00     0.062 C
HETATM    8  N1  UNL     1      15.315  18.173  47.994  1.00  0.00    -0.411 N
ATOM      9  H12 UNL     1      15.676  19.092  48.249  1.00  0.00     0.155 HD
ATOM     10  H11 UNL     1      15.959  17.388  47.896  1.00  0.00     0.155 HD
ENDBRANCH   6   7
ENDBRANCH   3   6
ENDBRANCH   1   2
BRANCH   1  11
HETATM   11  C5  UNL     1      15.764  21.650  50.868  1.00  0.00     0.262 C
HETATM   12  O2  UNL     1      16.523  20.834  50.294  1.00  0.00    -0.269 OA
HETATM   13  N3  UNL     1      16.171  22.219  52.095  1.00  0.00    -0.337 N
ATOM     14  H3  UNL     1      15.553  22.883  52.560  1.00  0.00     0.164 HD
BRANCH  13  15
HETATM   15  C6  UNL     1      17.471  21.883  52.730  1.00  0.00     0.267 C
BRANCH  15  16
HETATM   16  C7  UNL     1      17.223  21.692  54.177  1.00  0.00     0.205 C
HETATM   17  O3  UNL     1      16.426  22.464  54.755  1.00  0.00    -0.646 OA
HETATM   18  O4  UNL     1      17.837  20.704  54.894  1.00  0.00    -0.646 OA
ENDBRANCH  15  16
BRANCH  15  19
HETATM   19  C8  UNL     1      18.377  23.025  52.536  1.00  0.00     0.258 C
HETATM   20  O5  UNL     1      19.136  23.372  53.501  1.00  0.00    -0.283 OA
BRANCH  19  21
HETATM   21  C9  UNL     1      18.424  23.756  51.291  1.00  0.00     0.249 C
HETATM   22  O6  UNL     1      19.362  23.622  50.476  1.00  0.00    -0.642 OA
HETATM   23  O7  UNL     1      17.356  24.641  51.019  1.00  0.00    -0.642 OA
ENDBRANCH  19  21
ENDBRANCH  15  19
ENDBRANCH  13  15
ENDBRANCH   1  11
BRANCH   1  24
HETATM   24  N4  UNL     1      13.565  22.593  51.260  1.00  0.00    -0.116 N
HETATM   25  C10 UNL     1      13.265  23.905  51.136  1.00  0.00     0.683 A
HETATM   26  N6  UNL     1      12.444  24.462  52.037  1.00  0.00    -0.188 N
HETATM   27  C11 UNL     1      11.898  23.791  53.061  1.00  0.00     0.100 A
ATOM     28  H6  UNL     1      12.221  25.452  51.938  1.00  0.00     0.184 HD
HETATM   29  C12 UNL     1      11.052  24.350  53.993  1.00  0.00     0.127 A
HETATM   30  C16 UNL     1      12.208  22.438  53.189  1.00  0.00     0.063 A
HETATM   31  C13 UNL     1      10.498  23.622  55.052  1.00  0.00     0.138 A
HETATM   32  C14 UNL     1      10.839  22.292  55.128  1.00  0.00     0.040 A
HETATM   33  C15 UNL     1      11.679  21.696  54.218  1.00  0.00     0.022 A
HETATM   34  C17 UNL     1      13.059  21.873  52.251  1.00  0.00     0.276 A
HETATM   35  O11 UNL     1      13.342  20.641  52.366  1.00  0.00    -0.266 OA
BRANCH  25  36
HETATM   36  N5  UNL     1      13.769  24.595  50.160  1.00  0.00    -0.234 N
ATOM     37  H52 UNL     1      13.471  24.450  49.195  1.00  0.00     0.174 HD
ATOM     38  H51 UNL     1      14.481  25.299  50.350  1.00  0.00     0.174 HD
ENDBRANCH  25  36
BRANCH  29  39
HETATM   39  O8  UNL     1      10.724  25.671  53.904  1.00  0.00    -0.356 OA
ATOM     40  H8  UNL     1      10.319  26.003  53.111  1.00  0.00     0.218 HD
ENDBRANCH  29  39
BRANCH  31  41
HETATM   41  N7  UNL     1       9.631  24.261  55.979  1.00  0.00    -0.113 N
HETATM   42  O9  UNL     1       8.523  23.811  56.327  1.00  0.00    -0.532 OA
HETATM   43  O10 UNL     1      10.022  25.453  56.536  1.00  0.00    -0.532 OA
ENDBRANCH  31  41
ENDBRANCH   1  24
TORSDOF 12
ENDMDL