MODEL 3
REMARK VINA RESULT: -7.487546067      1.591      2.588
REMARK  12 active torsions:
REMARK  status: ('A' for Active; 'I' for Inactive)
REMARK    1  A    between atoms: O1_2  and  C2_3
REMARK    2  A    between atoms: C2_3  and  C3_5
REMARK    3  A    between atoms: C3_5  and  C4_6
REMARK    4  A    between atoms: C3_5  and  C9_19
REMARK    5  A    between atoms: C7_15  and  C8_16
REMARK    6  A    between atoms: C11_26  and  N6_27
REMARK    7  A    between atoms: N6_27  and  N7_29
REMARK       I    between atoms: N7_29  and  C12_31
REMARK    8  A    between atoms: C12_31  and  C13_33
REMARK    9  A    between atoms: C13_33  and  N8_34
REMARK   10  A    between atoms: C13_33  and  C14_38
REMARK   11  A    between atoms: C14_38  and  C15_39
REMARK   12  A    between atoms: C15_39  and  S1_40
ROOT
HETATM    1  C9  UNL     1      17.084  21.335  51.016  1.00  0.00     0.098 A
HETATM    2  N3  UNL     1      18.060  20.507  50.614  1.00  0.00    -0.298 N
ATOM      3  H3  UNL     1      18.150  20.324  49.615  1.00  0.00     0.186 HD
HETATM    4  N4  UNL     1      18.898  19.923  51.420  1.00  0.00    -0.285 N
ATOM      5  H4  UNL     1      19.622  19.303  51.056  1.00  0.00     0.188 HD
HETATM    6  C10 UNL     1      18.793  20.153  52.756  1.00  0.00     0.163 A
HETATM    7  N5  UNL     1      19.734  19.497  53.625  1.00  0.00    -0.079 NA
HETATM    8  C11 UNL     1      17.829  20.980  53.230  1.00  0.00     0.143 A
HETATM    9  C17 UNL     1      16.936  21.601  52.354  1.00  0.00     0.228 A
HETATM   10  O8  UNL     1      16.031  22.379  52.811  1.00  0.00    -0.284 OA
ENDROOT
BRANCH   1  11
HETATM   11  C3  UNL     1      16.163  21.953  50.018  1.00  0.00     0.192 C
BRANCH  11  12
HETATM   12  C2  UNL     1      16.007  21.080  48.832  1.00  0.00     0.274 C
HETATM   13  O2  UNL     1      16.064  21.571  47.677  1.00  0.00    -0.264 OA
BRANCH  12  14
HETATM   14  O1  UNL     1      15.793  19.710  48.912  1.00  0.00    -0.326 OA
HETATM   15  C1  UNL     1      14.997  19.000  47.979  1.00  0.00     0.213 C
ENDBRANCH  12  14
ENDBRANCH  11  12
BRANCH  11  16
HETATM   16  C4  UNL     1      14.821  22.189  50.602  1.00  0.00     0.056 A
HETATM   17  N1  UNL     1      14.110  21.190  51.150  1.00  0.00    -0.310 N
HETATM   18  C5  UNL     1      12.893  21.362  51.695  1.00  0.00     0.327 A
ATOM     19  H1  UNL     1      14.513  20.254  51.152  1.00  0.00     0.170 HD
HETATM   20  O3  UNL     1      12.312  20.382  52.178  1.00  0.00    -0.247 OA
HETATM   21  N2  UNL     1      12.334  22.602  51.703  1.00  0.00    -0.275 N
HETATM   22  C6  UNL     1      13.037  23.622  51.153  1.00  0.00     0.268 A
ATOM     23  H2  UNL     1      11.412  22.759  52.111  1.00  0.00     0.173 HD
HETATM   24  O4  UNL     1      12.505  24.748  51.171  1.00  0.00    -0.267 OA
HETATM   25  C7  UNL     1      14.288  23.453  50.591  1.00  0.00     0.132 A
BRANCH  25  26
HETATM   26  C8  UNL     1      14.961  24.615  50.024  1.00  0.00     0.217 C
HETATM   27  O5  UNL     1      14.811  24.841  48.801  1.00  0.00    -0.644 OA
HETATM   28  O6  UNL     1      15.753  25.472  50.768  1.00  0.00    -0.644 OA
ENDBRANCH  25  26
ENDBRANCH  11  16
ENDBRANCH   1  11
BRANCH   8  29
HETATM   29  N6  UNL     1      17.675  21.241  54.610  1.00  0.00    -0.291 N
ATOM     30  H6  UNL     1      18.510  21.456  55.155  1.00  0.00     0.187 HD
BRANCH  29  31
HETATM   31  N7  UNL     1      16.453  21.220  55.265  1.00  0.00    -0.268 N
HETATM   32  C12 UNL     1      15.810  20.021  55.673  1.00  0.00     0.266 C
HETATM   33  O7  UNL     1      16.325  18.885  55.459  1.00  0.00    -0.269 OA
ATOM     34  H7  UNL     1      15.994  22.109  55.464  1.00  0.00     0.190 HD
BRANCH  32  35
HETATM   35  C13 UNL     1      14.508  20.069  56.370  1.00  0.00     0.277 C
BRANCH  35  36
HETATM   36  N8  UNL     1      14.134  18.755  56.788  1.00  0.00    -0.066 N
ATOM     37  H83 UNL     1      13.216  18.486  56.432  1.00  0.00     0.275 HD
ATOM     38  H82 UNL     1      14.688  18.033  56.327  1.00  0.00     0.275 HD
ATOM     39  H81 UNL     1      14.185  18.687  57.804  1.00  0.00     0.275 HD
ENDBRANCH  35  36
BRANCH  35  40
HETATM   40  C14 UNL     1      13.443  20.742  55.527  1.00  0.00     0.053 C
BRANCH  40  41
HETATM   41  C15 UNL     1      12.052  20.373  55.994  1.00  0.00     0.076 C
BRANCH  41  42
HETATM   42  S1  UNL     1      10.783  21.407  55.256  1.00  0.00    -0.173 SA
HETATM   43  C16 UNL     1       9.109  20.903  55.646  1.00  0.00     0.089 C
ENDBRANCH  41  42
ENDBRANCH  40  41
ENDBRANCH  35  40
ENDBRANCH  32  35
ENDBRANCH  29  31
ENDBRANCH   8  29
TORSDOF 12
ENDMDL