MODEL 5
REMARK VINA RESULT: -7.304513882      3.688      7.726
REMARK  17 active torsions:
REMARK  status: ('A' for Active; 'I' for Inactive)
REMARK    1  A    between atoms: O1_2  and  C2_3
REMARK    2  A    between atoms: C4_5  and  C5_6
REMARK    3  A    between atoms: C5_6  and  N1_7
REMARK    4  A    between atoms: C5_6  and  C8_12
REMARK       I    between atoms: N1_7  and  C6_9
REMARK    5  A    between atoms: C9_15  and  C10_16
REMARK    6  A    between atoms: C10_16  and  O4_17
REMARK    7  A    between atoms: C10_16  and  C11_19
REMARK       I    between atoms: C11_19  and  N2_21
REMARK    8  A    between atoms: N2_21  and  C12_23
REMARK    9  A    between atoms: C12_23  and  C13_24
REMARK   10  A    between atoms: C12_23  and  C14_27
REMARK   11  A    between atoms: C14_27  and  O9_29
REMARK   12  A    between atoms: O9_29  and  C15_30
REMARK   13  A    between atoms: C15_30  and  C16_31
REMARK   14  A    between atoms: C16_31  and  O10_32
REMARK   15  A    between atoms: C16_31  and  O11_34
REMARK   16  A    between atoms: C17_36  and  O12_37
REMARK   17  A    between atoms: C18_39  and  O13_40
ROOT
HETATM    1  C2  UNL     1      11.484  19.639  56.550  1.00  0.00     0.104 A
HETATM    2  C3  UNL     1      11.091  20.470  55.558  1.00  0.00     0.050 A
HETATM    3  C4  UNL     1      12.018  21.124  54.698  1.00  0.00    -0.009 A
HETATM    4  C9  UNL     1      13.366  20.910  54.871  1.00  0.00     0.048 A
HETATM    5  C17 UNL     1      13.728  20.049  55.905  1.00  0.00     0.115 A
HETATM    6  C18 UNL     1      12.823  19.414  56.742  1.00  0.00     0.133 A
ENDROOT
BRANCH   4   7
HETATM    7  C10 UNL     1      14.326  21.516  54.024  1.00  0.00     0.147 C
BRANCH   7   8
HETATM    8  O4  UNL     1      15.265  22.190  54.644  1.00  0.00    -0.355 OA
ATOM      9  H4  UNL     1      16.093  22.243  54.180  1.00  0.00     0.218 HD
ENDBRANCH   7   8
BRANCH   7  10
HETATM   10  C11 UNL     1      14.513  21.566  52.604  1.00  0.00     0.276 C
HETATM   11  O5  UNL     1      13.953  20.881  51.764  1.00  0.00    -0.265 OA
HETATM   12  N2  UNL     1      15.463  22.519  52.031  1.00  0.00    -0.333 N
ATOM     13  H2  UNL     1      15.974  23.131  52.667  1.00  0.00     0.164 HD
BRANCH  12  14
HETATM   14  C12 UNL     1      15.715  22.639  50.638  1.00  0.00     0.286 C
BRANCH  14  15
HETATM   15  C13 UNL     1      16.073  24.022  50.249  1.00  0.00     0.206 C
HETATM   16  O6  UNL     1      16.994  24.610  50.858  1.00  0.00    -0.646 OA
HETATM   17  O7  UNL     1      15.417  24.683  49.230  1.00  0.00    -0.646 OA
ENDBRANCH  14  15
BRANCH  14  18
HETATM   18  C14 UNL     1      16.804  21.752  50.156  1.00  0.00     0.292 C
HETATM   19  O8  UNL     1      16.990  21.682  48.914  1.00  0.00    -0.262 OA
BRANCH  18  20
HETATM   20  O9  UNL     1      17.611  21.012  50.971  1.00  0.00    -0.315 OA
BRANCH  20  21
HETATM   21  C15 UNL     1      18.779  21.457  51.597  1.00  0.00     0.239 C
BRANCH  21  22
HETATM   22  C16 UNL     1      18.618  21.718  53.064  1.00  0.00     0.278 C
BRANCH  22  23
HETATM   23  O10 UNL     1      18.028  22.965  53.317  1.00  0.00    -0.369 OA
ATOM     24  H10 UNL     1      17.848  23.095  54.240  1.00  0.00     0.212 HD
ENDBRANCH  22  23
BRANCH  22  25
HETATM   25  O11 UNL     1      17.702  20.762  53.554  1.00  0.00    -0.369 OA
ATOM     26  H11 UNL     1      16.932  21.239  53.839  1.00  0.00     0.212 HD
ENDBRANCH  22  25
ENDBRANCH  21  22
ENDBRANCH  20  21
ENDBRANCH  18  20
ENDBRANCH  14  18
ENDBRANCH  12  14
ENDBRANCH   7  10
ENDBRANCH   4   7
BRANCH   3  27
HETATM   27  C5  UNL     1      11.368  22.026  53.730  1.00  0.00     0.201 C
BRANCH  27  28
HETATM   28  N1  UNL     1      10.095  21.560  53.290  1.00  0.00    -0.345 N
HETATM   29  C6  UNL     1       9.550  21.730  51.996  1.00  0.00     0.214 C
HETATM   30  C7  UNL     1       8.209  21.204  51.637  1.00  0.00     0.117 C
HETATM   31  O2  UNL     1      10.163  22.337  51.068  1.00  0.00    -0.274 OA
ATOM     32  H1  UNL     1       9.525  21.058  53.971  1.00  0.00     0.163 HD
ENDBRANCH  27  28
BRANCH  27  33
HETATM   33  C8  UNL     1      11.107  23.371  54.454  1.00  0.00     0.224 C
HETATM   34  O3  UNL     1      11.968  24.193  54.389  1.00  0.00    -0.282 OA
HETATM   35  S1  UNL     1       9.604  23.673  55.338  1.00  0.00    -0.009 SA
ENDBRANCH  27  33
ENDBRANCH   3  27
BRANCH   5  36
HETATM   36  O12 UNL     1      15.040  19.757  56.181  1.00  0.00    -0.357 OA
ATOM     37  H12 UNL     1      15.285  19.150  56.869  1.00  0.00     0.217 HD
ENDBRANCH   5  36
BRANCH   6  38
HETATM   38  O13 UNL     1      13.185  18.566  57.759  1.00  0.00    -0.356 OA
ATOM     39  H13 UNL     1      13.890  17.953  57.590  1.00  0.00     0.218 HD
ENDBRANCH   6  38
BRANCH   1  40
HETATM   40  O1  UNL     1      10.536  19.024  57.362  1.00  0.00    -0.353 OA
HETATM   41  C1  UNL     1       9.188  18.934  56.945  1.00  0.00     0.210 C
ENDBRANCH   1  40
TORSDOF 17
ENDMDL