MODEL 3
REMARK VINA RESULT: -8.454094413      3.974      6.917
REMARK  15 active torsions:
REMARK  status: ('A' for Active; 'I' for Inactive)
REMARK    1  A    between atoms: C2_2  and  N1_3
REMARK    2  A    between atoms: C2_2  and  C13_28
REMARK       I    between atoms: N1_3  and  C3_5
REMARK    3  A    between atoms: C3_5  and  C4_7
REMARK    4  A    between atoms: C4_7  and  O2_8
REMARK    5  A    between atoms: C4_7  and  C5_10
REMARK    6  A    between atoms: C7_12  and  C8_13
REMARK    7  A    between atoms: N2_14  and  N3_16
REMARK    8  A    between atoms: C11_22  and  O3_23
REMARK    9  A    between atoms: C12_25  and  O4_26
REMARK       I    between atoms: C13_28  and  N6_30
REMARK   10  A    between atoms: C14_32  and  C15_33
REMARK   11  A    between atoms: C14_32  and  C18_44
REMARK   12  A    between atoms: C15_33  and  C16_34
REMARK   13  A    between atoms: C16_34  and  C17_35
REMARK   14  A    between atoms: C18_44  and  N11_45
REMARK   15  A    between atoms: C18_44  and  O6_49
ROOT
HETATM    1  C1  UNL     1      14.530  23.230  50.233  1.00  0.00     0.042 C
HETATM    2  C2  UNL     1      15.513  23.507  49.123  1.00  0.00     0.173 C
ENDROOT
BRANCH   2   3
HETATM    3  N1  UNL     1      16.691  22.729  49.398  1.00  0.00    -0.346 N
HETATM    4  C3  UNL     1      17.921  23.313  49.824  1.00  0.00     0.251 C
HETATM    5  O1  UNL     1      17.921  24.566  49.955  1.00  0.00    -0.270 OA
ATOM      6  H1  UNL     1      16.644  21.716  49.284  1.00  0.00     0.163 HD
BRANCH   4   7
HETATM    7  C4  UNL     1      19.117  22.497  50.094  1.00  0.00     0.245 C
BRANCH   7   8
HETATM    8  O2  UNL     1      20.294  23.235  49.982  1.00  0.00    -0.381 OA
ATOM      9  H2  UNL     1      20.556  23.359  49.077  1.00  0.00     0.211 HD
ENDBRANCH   7   8
BRANCH   7  10
HETATM   10  C5  UNL     1      19.091  21.659  51.297  1.00  0.00     0.016 A
HETATM   11  C6  UNL     1      18.164  21.966  52.305  1.00  0.00     0.026 A
HETATM   12  C7  UNL     1      18.021  21.214  53.450  1.00  0.00    -0.016 A
HETATM   13  C10 UNL     1      18.840  20.097  53.600  1.00  0.00     0.052 A
HETATM   14  C11 UNL     1      19.745  19.790  52.630  1.00  0.00     0.100 A
HETATM   15  C12 UNL     1      19.887  20.547  51.483  1.00  0.00     0.108 A
BRANCH  12  16
HETATM   16  C8  UNL     1      17.045  21.560  54.464  1.00  0.00     0.118 C
HETATM   17  N2  UNL     1      15.830  21.651  54.374  1.00  0.00    -0.309 N
ATOM     18  H2  UNL     1      15.453  21.916  55.284  1.00  0.00     0.186 HD
BRANCH  17  19
HETATM   19  N3  UNL     1      14.815  21.529  53.507  1.00  0.00    -0.276 N
HETATM   20  C9  UNL     1      13.588  21.266  53.789  1.00  0.00     0.215 C
HETATM   21  N4  UNL     1      13.213  21.082  55.131  1.00  0.00    -0.065 NA
HETATM   22  N5  UNL     1      12.647  21.151  52.752  1.00  0.00    -0.065 NA
ATOM     23  H3  UNL     1      15.040  21.656  52.520  1.00  0.00     0.189 HD
ENDBRANCH  17  19
ENDBRANCH  12  16
BRANCH  14  24
HETATM   24  O3  UNL     1      20.528  18.652  52.857  1.00  0.00    -0.358 OA
ATOM     25  H3  UNL     1      20.054  17.852  53.053  1.00  0.00     0.217 HD
ENDBRANCH  14  24
BRANCH  15  26
HETATM   26  O4  UNL     1      20.835  20.182  50.536  1.00  0.00    -0.357 OA
ATOM     27  H4  UNL     1      20.769  20.482  49.637  1.00  0.00     0.217 HD
ENDBRANCH  15  26
ENDBRANCH   7  10
ENDBRANCH   4   7
ENDBRANCH   2   3
BRANCH   2  28
HETATM   28  C13 UNL     1      14.971  23.211  47.767  1.00  0.00     0.244 C
HETATM   29  O5  UNL     1      13.725  23.347  47.540  1.00  0.00    -0.271 OA
HETATM   30  N6  UNL     1      15.806  22.779  46.736  1.00  0.00    -0.325 N
HETATM   31  C14 UNL     1      15.995  23.410  45.584  1.00  0.00     0.064 C
ATOM     32  H6  UNL     1      16.313  21.905  46.880  1.00  0.00     0.168 HD
BRANCH  31  33
HETATM   33  C15 UNL     1      16.919  22.740  44.688  1.00  0.00     0.010 C
BRANCH  33  34
HETATM   34  C16 UNL     1      16.937  22.879  43.232  1.00  0.00     0.108 C
BRANCH  34  35
HETATM   35  C17 UNL     1      16.953  24.212  42.608  1.00  0.00     0.116 A
HETATM   36  N7  UNL     1      16.016  24.907  41.954  1.00  0.00    -0.272 N
HETATM   37  N8  UNL     1      16.522  26.069  41.604  1.00  0.00    -0.227 N
ATOM     38  H7  UNL     1      15.067  24.588  41.759  1.00  0.00     0.190 HD
HETATM   39  N9  UNL     1      17.763  26.190  41.991  1.00  0.00    -0.227 N
ATOM     40  H8  UNL     1      16.009  26.787  41.093  1.00  0.00     0.210 HD
HETATM   41  N10 UNL     1      18.047  25.059  42.611  1.00  0.00    -0.272 N
ATOM     42  H9  UNL     1      18.381  26.988  41.846  1.00  0.00     0.210 HD
ATOM     43  H10 UNL     1      18.950  24.839  43.033  1.00  0.00     0.190 HD
ENDBRANCH  34  35
ENDBRANCH  33  34
ENDBRANCH  31  33
BRANCH  31  44
HETATM   44  C18 UNL     1      15.266  24.664  45.431  1.00  0.00     0.367 C
BRANCH  44  45
HETATM   45  N11 UNL     1      14.058  24.626  44.661  1.00  0.00    -0.047 N
ATOM     46 3H11 UNL     1      14.092  23.837  44.015  1.00  0.00     0.277 HD
ATOM     47 2H11 UNL     1      13.282  24.347  45.260  1.00  0.00     0.277 HD
ATOM     48 1H11 UNL     1      13.807  25.472  44.150  1.00  0.00     0.277 HD
ENDBRANCH  44  45
BRANCH  44  49
HETATM   49  O6  UNL     1      16.093  25.639  44.834  1.00  0.00    -0.365 OA
ATOM     50  H6  UNL     1      15.894  26.499  45.187  1.00  0.00     0.212 HD
ENDBRANCH  44  49
ENDBRANCH  31  44
ENDBRANCH   2  28
TORSDOF 15
ENDMDL