MODEL 3
REMARK VINA RESULT: -4.675309928      1.237      1.463
REMARK  3 active torsions:
REMARK  status: ('A' for Active; 'I' for Inactive)
REMARK    1  A    between atoms: N1_2  and  C2_4
REMARK    2  A    between atoms: C5_13  and  N5_14
REMARK    3  A    between atoms: N5_14  and  C6_16
ROOT
HETATM    1  C2  UNL     1      55.637 132.080 -90.733  1.00  0.00     0.706 A
HETATM    2  N2  UNL     1      55.103 130.998 -91.326  1.00  0.00    -0.022 N
ATOM      3  H2  UNL     1      55.555 130.597 -92.147  1.00  0.00     0.203 HD
HETATM    4  C3  UNL     1      53.994 130.448 -90.852  1.00  0.00     0.706 A
HETATM    5  N3  UNL     1      53.479 129.408 -91.421  1.00  0.00    -0.229 N
ATOM      6  H3  UNL     1      52.626 128.993 -91.047  1.00  0.00     0.177 HD
HETATM    7  C4  UNL     1      54.103 128.840 -92.572  1.00  0.00     0.165 C
HETATM    8  N4  UNL     1      53.375 130.971 -89.752  1.00  0.00    -0.021 N
ATOM      9  H4  UNL     1      52.522 130.546 -89.389  1.00  0.00     0.203 HD
HETATM   10  C5  UNL     1      53.905 132.053 -89.154  1.00  0.00     0.712 A
HETATM   11  N7  UNL     1      55.028 132.595 -89.651  1.00  0.00    -0.021 N
ATOM     12  H7  UNL     1      55.428 133.416 -89.196  1.00  0.00     0.203 HD
ENDROOT
BRANCH  10  13
HETATM   13  N5  UNL     1      53.290 132.521 -88.112  1.00  0.00    -0.180 N
ATOM     14  H5  UNL     1      53.225 133.532 -87.993  1.00  0.00     0.185 HD
BRANCH  13  15
HETATM   15  C6  UNL     1      52.705 131.677 -87.132  1.00  0.00     0.087 C
HETATM   16  C7  UNL     1      53.520 130.845 -86.239  1.00  0.00     0.089 C
HETATM   17  N6  UNL     1      51.420 131.669 -87.054  1.00  0.00    -0.389 N
ATOM     18  H62 UNL     1      50.853 132.248 -87.675  1.00  0.00     0.157 HD
ATOM     19  H61 UNL     1      51.000 131.064 -86.349  1.00  0.00     0.157 HD
ENDBRANCH  13  15
ENDBRANCH  10  13
BRANCH   1  20
HETATM   20  N1  UNL     1      56.719 132.625 -91.189  1.00  0.00    -0.229 N
HETATM   21  C1  UNL     1      57.991 131.976 -91.181  1.00  0.00     0.165 C
ATOM     22  H1  UNL     1      56.660 133.568 -91.573  1.00  0.00     0.177 HD
ENDBRANCH   1  20
TORSDOF 3
ENDMDL