MODEL 2
REMARK VINA RESULT: -4.710459852      1.728      4.695
REMARK  3 active torsions:
REMARK  status: ('A' for Active; 'I' for Inactive)
REMARK    1  A    between atoms: C2_2  and  N1_3
REMARK       I    between atoms: N1_3  and  C3_5
REMARK       I    between atoms: C3_5  and  N4_10
REMARK    2  A    between atoms: N4_10  and  C5_12
REMARK    3  A    between atoms: C7_18  and  N7_19
ROOT
HETATM    1  N1  UNL     1      55.140 130.223 -92.944  1.00  0.00    -0.225 N
ATOM      2  H1  UNL     1      55.592 130.052 -93.843  1.00  0.00     0.177 HD
HETATM    3  C3  UNL     1      55.003 131.568 -92.521  1.00  0.00     0.701 C
HETATM    4  N2  UNL     1      54.420 132.415 -93.327  1.00  0.00    -0.126 N
ATOM      5  H2  UNL     1      54.077 132.098 -94.234  1.00  0.00     0.197 HD
HETATM    6  C4  UNL     1      54.263 133.755 -92.952  1.00  0.00     0.196 C
HETATM    7  N3  UNL     1      54.150 134.852 -92.635  1.00  0.00    -0.171 NA
HETATM    8  N4  UNL     1      55.489 131.957 -91.285  1.00  0.00    -0.021 N
ATOM      9  H4  UNL     1      56.503 132.061 -91.249  1.00  0.00     0.203 HD
ENDROOT
BRANCH   1  10
HETATM   10  C2  UNL     1      54.686 129.079 -92.196  1.00  0.00     0.133 C
HETATM   11  C1  UNL     1      55.603 127.907 -92.194  1.00  0.00     0.027 C
ENDBRANCH   1  10
BRANCH   8  12
HETATM   12  C5  UNL     1      54.901 132.208 -90.191  1.00  0.00     0.712 A
HETATM   13  N5  UNL     1      55.022 133.407 -89.618  1.00  0.00    -0.186 N
HETATM   14  C6  UNL     1      54.406 133.684 -88.454  1.00  0.00     0.215 A
ATOM     15  H5  UNL     1      55.591 134.124 -90.069  1.00  0.00     0.185 HD
HETATM   16  N6  UNL     1      53.666 132.722 -87.883  1.00  0.00    -0.187 N
HETATM   17  C7  UNL     1      53.513 131.504 -88.417  1.00  0.00     0.691 A
ATOM     18  H6  UNL     1      53.198 132.929 -87.001  1.00  0.00     0.185 HD
HETATM   19  N8  UNL     1      54.149 131.283 -89.579  1.00  0.00    -0.022 N
ATOM     20  H8  UNL     1      54.056 130.366 -90.017  1.00  0.00     0.203 HD
BRANCH  17  21
HETATM   21  N7  UNL     1      52.790 130.623 -87.821  1.00  0.00    -0.234 N
ATOM     22  H72 UNL     1      52.918 129.618 -87.934  1.00  0.00     0.174 HD
ATOM     23  H71 UNL     1      52.038 130.914 -87.196  1.00  0.00     0.174 HD
ENDBRANCH  17  21
ENDBRANCH   8  12
TORSDOF 3
ENDMDL