MODEL 3
REMARK VINA RESULT: -4.682689839      1.775      2.826
REMARK  2 active torsions:
REMARK  status: ('A' for Active; 'I' for Inactive)
REMARK    1  A    between atoms: C2_9  and  C3_10
REMARK    2  A    between atoms: N6_17  and  N7_19
ROOT
HETATM    1  C3  UNL     1      55.270 130.677 -92.036  1.00  0.00     0.056 A
HETATM    2  C4  UNL     1      54.335 129.747 -92.520  1.00  0.00     0.020 A
HETATM    3  C5  UNL     1      54.600 128.401 -92.542  1.00  0.00     0.018 A
HETATM    4  C6  UNL     1      55.833 128.015 -92.063  1.00  0.00     0.090 A
HETATM    5  N5  UNL     1      56.730 128.860 -91.603  1.00  0.00    -0.350 N
ATOM      6  H5  UNL     1      57.621 128.500 -91.264  1.00  0.00     0.166 HD
HETATM    7  C7  UNL     1      56.496 130.240 -91.566  1.00  0.00     0.133 A
HETATM    8  N6  UNL     1      57.452 130.901 -91.141  1.00  0.00    -0.291 N
ATOM      9  H6  UNL     1      58.182 130.237 -90.882  1.00  0.00     0.188 HD
ENDROOT
BRANCH   1  10
HETATM   10  C2  UNL     1      54.955 132.085 -92.084  1.00  0.00     0.153 A
HETATM   11  N1  UNL     1      54.694 132.888 -91.011  1.00  0.00    -0.264 N
HETATM   12  C1  UNL     1      54.668 132.594 -89.595  1.00  0.00     0.181 C
HETATM   13  N2  UNL     1      54.393 134.124 -91.445  1.00  0.00    -0.225 N
HETATM   14  N3  UNL     1      54.454 134.123 -92.755  1.00  0.00    -0.226 N
ATOM     15  H2  UNL     1      54.157 134.923 -90.857  1.00  0.00     0.210 HD
HETATM   16  N4  UNL     1      54.790 132.898 -93.122  1.00  0.00    -0.268 N
ATOM     17  H3  UNL     1      54.276 134.915 -93.372  1.00  0.00     0.210 HD
ATOM     18  H4  UNL     1      54.910 132.611 -94.093  1.00  0.00     0.190 HD
ENDBRANCH   1  10
BRANCH   8  19
HETATM   19  N7  UNL     1      57.909 132.080 -90.891  1.00  0.00    -0.344 N
ATOM     20  H72 UNL     1      57.295 132.456 -90.168  1.00  0.00     0.176 HD
ATOM     21  H71 UNL     1      58.619 132.777 -91.116  1.00  0.00     0.176 HD
ENDBRANCH   8  19
TORSDOF 2
ENDMDL