MODEL 2
REMARK VINA RESULT: -6.685281630      1.033      1.677
REMARK  4 active torsions:
REMARK  status: ('A' for Active; 'I' for Inactive)
REMARK    1  A    between atoms: C2_2  and  C4_10
REMARK    2  A    between atoms: N1_3  and  N2_5
REMARK    3  A    between atoms: N5_13  and  O1_14
REMARK    4  A    between atoms: C7_16  and  N6_17
ROOT
HETATM    1  C4  UNL     1      55.436 131.099 -90.993  1.00  0.00     0.074 A
HETATM    2  C5  UNL     1      56.711 131.330 -91.454  1.00  0.00     0.052 A
HETATM    3  C6  UNL     1      57.411 130.433 -92.231  1.00  0.00     0.144 A
HETATM    4  N5  UNL     1      56.801 129.277 -92.545  1.00  0.00    -0.064 N
HETATM    5  C7  UNL     1      55.552 129.017 -92.110  1.00  0.00     0.702 A
HETATM    6  N7  UNL     1      54.887 129.904 -91.355  1.00  0.00    -0.188 N
ATOM      7  H7  UNL     1      53.943 129.678 -91.042  1.00  0.00     0.184 HD
ENDROOT
BRANCH   1   8
HETATM    8  C2  UNL     1      54.706 132.049 -90.176  1.00  0.00     0.049 C
HETATM    9  C1  UNL     1      54.761 133.483 -90.527  1.00  0.00     0.072 C
HETATM   10  N1  UNL     1      54.021 131.669 -89.163  1.00  0.00    -0.301 N
ATOM     11  H1  UNL     1      53.985 130.679 -88.925  1.00  0.00     0.186 HD
BRANCH  10  12
HETATM   12  N2  UNL     1      53.321 132.589 -88.382  1.00  0.00    -0.276 N
HETATM   13  C3  UNL     1      53.360 132.535 -87.099  1.00  0.00     0.215 C
HETATM   14  N3  UNL     1      54.135 131.512 -86.491  1.00  0.00    -0.065 NA
HETATM   15  N4  UNL     1      52.667 133.446 -86.265  1.00  0.00    -0.065 NA
ATOM     16  H2  UNL     1      52.770 133.317 -88.837  1.00  0.00     0.189 HD
ENDBRANCH  10  12
ENDBRANCH   1   8
BRANCH   5  17
HETATM   17  N6  UNL     1      55.036 127.877 -92.459  1.00  0.00    -0.232 N
ATOM     18  H62 UNL     1      55.494 127.253 -93.123  1.00  0.00     0.174 HD
ATOM     19  H61 UNL     1      54.143 127.628 -92.034  1.00  0.00     0.174 HD
ENDBRANCH   5  17
BRANCH   4  20
HETATM   20  O1  UNL     1      57.464 128.346 -93.321  1.00  0.00    -0.270 OA
ATOM     21  H1  UNL     1      57.145 128.153 -94.195  1.00  0.00     0.245 HD
ENDBRANCH   4  20
TORSDOF 4
ENDMDL