MODEL 4
REMARK VINA RESULT: -3.751332577      2.143      5.831
REMARK  3 active torsions:
REMARK  status: ('A' for Active; 'I' for Inactive)
REMARK    1  A    between atoms: N1_2  and  N2_4
REMARK    2  A    between atoms: N2_4  and  C3_6
REMARK    3  A    between atoms: C4_9  and  N4_10
ROOT
HETATM    1  C3  UNL     1      54.349 131.507 -90.417  1.00  0.00     0.166 A
HETATM    2  N3  UNL     1      53.543 130.523 -90.883  1.00  0.00    -0.173 N
ATOM      3  H3  UNL     1      52.578 130.479 -90.557  1.00  0.00     0.186 HD
HETATM    4  C4  UNL     1      53.974 129.603 -91.758  1.00  0.00     0.679 A
HETATM    5  N5  UNL     1      55.233 129.599 -92.230  1.00  0.00    -0.174 N
ATOM      6  H5  UNL     1      55.535 128.889 -92.897  1.00  0.00     0.186 HD
HETATM    7  C5  UNL     1      56.094 130.560 -91.802  1.00  0.00     0.152 A
HETATM    8  N6  UNL     1      57.386 130.788 -92.106  1.00  0.00    -0.336 N
ATOM      9  H6  UNL     1      57.967 130.245 -92.744  1.00  0.00     0.168 HD
HETATM   10  C6  UNL     1      57.760 131.871 -91.403  1.00  0.00     0.182 A
HETATM   11  N7  UNL     1      56.716 132.308 -90.676  1.00  0.00    -0.346 N
ATOM     12  H7  UNL     1      56.733 133.117 -90.055  1.00  0.00     0.167 HD
HETATM   13  C7  UNL     1      55.644 131.518 -90.891  1.00  0.00     0.124 A
ENDROOT
BRANCH   1  14
HETATM   14  N2  UNL     1      53.998 132.402 -89.591  1.00  0.00    -0.286 N
ATOM     15  H2  UNL     1      53.808 133.325 -89.983  1.00  0.00     0.188 HD
BRANCH  14  16
HETATM   16  N1  UNL     1      53.844 132.282 -88.241  1.00  0.00    -0.335 N
HETATM   17  C1  UNL     1      54.343 133.303 -87.353  1.00  0.00     0.170 C
HETATM   18  C2  UNL     1      53.180 131.136 -87.675  1.00  0.00     0.170 C
ENDBRANCH  14  16
ENDBRANCH   1  14
BRANCH   4  19
HETATM   19  N4  UNL     1      53.165 128.674 -92.179  1.00  0.00    -0.234 N
ATOM     20  H42 UNL     1      52.327 128.487 -91.627  1.00  0.00     0.174 HD
ATOM     21  H41 UNL     1      53.378 128.160 -93.034  1.00  0.00     0.174 HD
ENDBRANCH   4  19
TORSDOF 3
ENDMDL