MODEL 5
REMARK VINA RESULT: -4.720310595      1.171      1.254
REMARK  2 active torsions:
REMARK  status: ('A' for Active; 'I' for Inactive)
REMARK    1  A    between atoms: C2_2  and  N1_3
REMARK    2  A    between atoms: N1_3  and  C3_5
REMARK       I    between atoms: N4_11  and  C5_13
ROOT
HETATM    1  C3  UNL     1      54.138 131.935 -89.415  1.00  0.00     0.162 A
HETATM    2  N2  UNL     1      54.652 133.083 -89.842  1.00  0.00    -0.278 N
ATOM      3  H2  UNL     1      54.410 133.959 -89.378  1.00  0.00     0.189 HD
HETATM    4  N3  UNL     1      55.452 133.081 -90.838  1.00  0.00    -0.277 N
ATOM      5  H3  UNL     1      55.854 133.955 -91.177  1.00  0.00     0.189 HD
HETATM    6  C4  UNL     1      55.754 131.924 -91.430  1.00  0.00     0.169 A
HETATM    7  N4  UNL     1      56.545 131.712 -92.456  1.00  0.00    -0.310 N
ATOM      8  H4  UNL     1      57.030 132.481 -92.917  1.00  0.00     0.170 HD
HETATM    9  C5  UNL     1      56.701 130.385 -92.896  1.00  0.00     0.187 C
HETATM   10  N5  UNL     1      57.847 130.008 -93.326  1.00  0.00    -0.373 N
ATOM     11  H51 UNL     1      57.959 129.046 -93.646  1.00  0.00     0.158 HD
ATOM     12  H52 UNL     1      58.627 130.664 -93.344  1.00  0.00     0.158 HD
HETATM   13  N6  UNL     1      55.622 129.477 -92.872  1.00  0.00    -0.064 NA
HETATM   14  S1  UNL     1      54.835 130.812 -90.493  1.00  0.00    -0.015 SA
ENDROOT
BRANCH   1  15
HETATM   15  N1  UNL     1      53.333 131.612 -88.472  1.00  0.00    -0.370 N
ATOM     16  H1  UNL     1      52.822 130.739 -88.602  1.00  0.00     0.161 HD
BRANCH  15  17
HETATM   17  C2  UNL     1      53.062 132.309 -87.274  1.00  0.00     0.117 C
HETATM   18  C1  UNL     1      53.375 131.581 -86.011  1.00  0.00     0.026 C
ENDBRANCH  15  17
ENDBRANCH   1  15
TORSDOF 2
ENDMDL