MODEL 3
REMARK VINA RESULT: -3.864382946      9.801     12.087
REMARK  2 active torsions:
REMARK  status: ('A' for Active; 'I' for Inactive)
REMARK    1  A    between atoms: C2_5  and  N3_6
REMARK    2  A    between atoms: C4_15  and  C5_16
ROOT
HETATM    1  C1  UNL     1      58.284 141.036 -88.137  1.00  0.00     0.179 C
HETATM    2  N1  UNL     1      58.982 140.483 -87.014  1.00  0.00    -0.277 N
HETATM    3  N2  UNL     1      58.579 140.862 -85.800  1.00  0.00    -0.130 N
ATOM      4  H2  UNL     1      57.790 141.503 -85.719  1.00  0.00     0.206 HD
HETATM    5  C2  UNL     1      59.169 140.432 -84.701  1.00  0.00     0.692 A
HETATM    6  N4  UNL     1      60.198 139.593 -84.830  1.00  0.00    -0.174 N
ATOM      7  H4  UNL     1      60.666 139.252 -83.990  1.00  0.00     0.186 HD
HETATM    8  C3  UNL     1      60.643 139.178 -86.053  1.00  0.00     0.145 A
HETATM    9  N5  UNL     1      61.611 138.336 -86.111  1.00  0.00    -0.383 N
ATOM     10  H51 UNL     1      61.944 138.026 -87.024  1.00  0.00     0.157 HD
ATOM     11  H52 UNL     1      62.064 138.004 -85.260  1.00  0.00     0.157 HD
HETATM   12  C4  UNL     1      60.033 139.624 -87.196  1.00  0.00     0.123 A
ENDROOT
BRANCH  12  13
HETATM   13  C5  UNL     1      60.519 139.257 -88.507  1.00  0.00     0.080 A
HETATM   14  C6  UNL     1      60.429 138.040 -89.119  1.00  0.00     0.119 A
HETATM   15  N6  UNL     1      60.997 137.877 -90.352  1.00  0.00    -0.372 N
HETATM   16  C7  UNL     1      61.645 138.842 -91.006  1.00  0.00     0.104 A
ATOM     17  H6  UNL     1      60.919 136.963 -90.798  1.00  0.00     0.164 HD
HETATM   18  C8  UNL     1      61.739 140.075 -90.389  1.00  0.00     0.105 A
HETATM   19  N7  UNL     1      61.190 140.229 -89.202  1.00  0.00    -0.362 N
ATOM     20  H7  UNL     1      61.271 141.146 -88.764  1.00  0.00     0.165 HD
ENDBRANCH  12  13
BRANCH   5  21
HETATM   21  N3  UNL     1      58.773 140.806 -83.503  1.00  0.00    -0.233 N
ATOM     22  H32 UNL     1      59.019 141.731 -83.152  1.00  0.00     0.174 HD
ATOM     23  H31 UNL     1      58.219 140.197 -82.901  1.00  0.00     0.174 HD
ENDBRANCH   5  21
TORSDOF 2
ENDMDL