MODEL 3
REMARK VINA RESULT: -4.158213454      1.673      5.576
REMARK  2 active torsions:
REMARK  status: ('A' for Active; 'I' for Inactive)
REMARK    1  A    between atoms: O1_2  and  N1_3
REMARK       I    between atoms: N1_3  and  C2_5
REMARK       I    between atoms: C2_5  and  N3_9
REMARK    2  A    between atoms: C7_16  and  N4_17
ROOT
HETATM    1  N1  UNL     1      52.467 132.826 -87.733  1.00  0.00    -0.097 N
ATOM      2  H1  UNL     1      52.329 133.477 -88.506  1.00  0.00     0.213 HD
HETATM    3  C2  UNL     1      53.323 131.719 -87.941  1.00  0.00     0.697 C
HETATM    4  N2  UNL     1      54.229 131.434 -87.077  1.00  0.00    -0.233 N
ATOM      5  H21 UNL     1      54.846 130.635 -87.227  1.00  0.00     0.174 HD
ATOM      6  H22 UNL     1      54.310 132.022 -86.248  1.00  0.00     0.174 HD
HETATM    7  N3  UNL     1      53.209 130.904 -89.091  1.00  0.00    -0.175 N
ATOM      8  H3  UNL     1      52.401 130.285 -89.166  1.00  0.00     0.186 HD
HETATM    9  C3  UNL     1      54.069 130.900 -90.049  1.00  0.00     0.126 A
HETATM   10  C4  UNL     1      53.888 130.076 -91.138  1.00  0.00     0.081 A
HETATM   11  C5  UNL     1      54.820 130.090 -92.147  1.00  0.00     0.056 A
HETATM   12  C6  UNL     1      54.643 129.211 -93.327  1.00  0.00     0.077 C
HETATM   13  O2  UNL     1      55.887 130.872 -92.105  1.00  0.00    -0.284 OA
HETATM   14  C7  UNL     1      56.068 131.661 -91.068  1.00  0.00     0.223 A
HETATM   15  N5  UNL     1      55.168 131.674 -90.054  1.00  0.00    -0.308 N
ATOM     16  H5  UNL     1      55.331 132.296 -89.263  1.00  0.00     0.171 HD
ENDROOT
BRANCH  14  17
HETATM   17  N4  UNL     1      57.128 132.414 -91.062  1.00  0.00    -0.365 N
ATOM     18  H42 UNL     1      57.595 132.701 -91.922  1.00  0.00     0.159 HD
ATOM     19  H41 UNL     1      57.488 132.717 -90.157  1.00  0.00     0.159 HD
ENDBRANCH  14  17
BRANCH   1  20
HETATM   20  O1  UNL     1      51.821 133.074 -86.571  1.00  0.00    -0.272 OA
HETATM   21  C1  UNL     1      51.044 132.014 -86.177  1.00  0.00     0.238 C
ENDBRANCH   1  20
TORSDOF 2
ENDMDL