MODEL 5
REMARK VINA RESULT: -5.619429595      2.463      5.385
REMARK  4 active torsions:
REMARK  status: ('A' for Active; 'I' for Inactive)
REMARK       I    between atoms: N1_2  and  C2_4
REMARK       I    between atoms: C2_4  and  N2_6
REMARK    1  A    between atoms: N2_6  and  N3_8
REMARK    2  A    between atoms: N3_8  and  C3_10
REMARK    3  A    between atoms: C3_10  and  N4_12
REMARK    4  A    between atoms: N4_12  and  N5_14
ROOT
HETATM    1  N3  UNL     1      53.897 132.479 -88.741  1.00  0.00    -0.271 N
ATOM      2  H3  UNL     1      54.303 133.339 -89.109  1.00  0.00     0.189 HD
ENDROOT
BRANCH   1   3
HETATM    3  N2  UNL     1      53.898 131.358 -89.560  1.00  0.00    -0.249 N
HETATM    4  C2  UNL     1      54.528 131.419 -90.817  1.00  0.00     0.334 C
HETATM    5  N1  UNL     1      54.543 130.303 -91.668  1.00  0.00    -0.346 N
HETATM    6  O1  UNL     1      55.106 132.477 -91.236  1.00  0.00    -0.246 OA
HETATM    7  C1  UNL     1      55.184 130.334 -92.961  1.00  0.00     0.151 C
ATOM      8  H1  UNL     1      54.088 129.443 -91.363  1.00  0.00     0.163 HD
ATOM      9  H2  UNL     1      53.445 130.497 -89.254  1.00  0.00     0.192 HD
ENDBRANCH   1   3
BRANCH   1  10
HETATM   10  C3  UNL     1      53.369 132.506 -87.430  1.00  0.00     0.201 C
HETATM   11  S1  UNL     1      54.016 133.475 -86.268  1.00  0.00    -0.038 SA
BRANCH  10  12
HETATM   12  N4  UNL     1      52.274 131.686 -87.100  1.00  0.00    -0.295 N
ATOM     13  H4  UNL     1      51.322 131.991 -87.303  1.00  0.00     0.183 HD
BRANCH  12  14
HETATM   14  N5  UNL     1      52.505 130.453 -86.494  1.00  0.00    -0.238 NA
HETATM   15  C4  UNL     1      53.913 130.212 -86.256  1.00  0.00     0.135 C
HETATM   16  C5  UNL     1      51.723 130.295 -85.280  1.00  0.00     0.135 C
ENDBRANCH  12  14
ENDBRANCH  10  12
ENDBRANCH   1  10
TORSDOF 4
ENDMDL