MODEL 1
REMARK VINA RESULT: -6.781972311      0.000      0.000
REMARK  5 active torsions:
REMARK  status: ('A' for Active; 'I' for Inactive)
REMARK    1  A    between atoms: N1_2  and  C3_4
REMARK    2  A    between atoms: C4_7  and  N3_8
REMARK    3  A    between atoms: N3_8  and  C5_10
REMARK    4  A    between atoms: C5_10  and  N4_12
REMARK    5  A    between atoms: N4_12  and  N5_14
ROOT
HETATM    1  C3  UNL     1      54.555 131.451 -90.894  1.00  0.00     0.709 A
HETATM    2  N2  UNL     1      53.957 131.324 -89.696  1.00  0.00    -0.019 N
ATOM      3  H2  UNL     1      53.428 130.510 -89.382  1.00  0.00     0.203 HD
HETATM    4  C4  UNL     1      54.172 132.459 -88.965  1.00  0.00     0.714 A
HETATM    5  N6  UNL     1      54.899 133.269 -89.724  1.00  0.00    -0.117 N
ATOM      6  H6  UNL     1      55.225 134.199 -89.460  1.00  0.00     0.206 HD
HETATM    7  N7  UNL     1      55.130 132.666 -90.886  1.00  0.00    -0.117 N
ATOM      8  H7  UNL     1      55.666 133.066 -91.657  1.00  0.00     0.206 HD
ENDROOT
BRANCH   4   9
HETATM    9  N3  UNL     1      53.746 132.690 -87.759  1.00  0.00    -0.163 N
ATOM     10  H3  UNL     1      54.032 133.528 -87.255  1.00  0.00     0.186 HD
BRANCH   9  11
HETATM   11  C5  UNL     1      52.872 131.741 -87.163  1.00  0.00     0.204 C
HETATM   12  S1  UNL     1      53.451 130.512 -86.265  1.00  0.00    -0.039 SA
BRANCH  11  13
HETATM   13  N4  UNL     1      51.480 131.854 -87.347  1.00  0.00    -0.282 N
ATOM     14  H4  UNL     1      50.905 131.016 -87.434  1.00  0.00     0.189 HD
BRANCH  13  15
HETATM   15  N5  UNL     1      50.892 133.114 -87.408  1.00  0.00    -0.343 N
ATOM     16  H52 UNL     1      50.882 133.616 -88.296  1.00  0.00     0.176 HD
ATOM     17  H51 UNL     1      50.479 133.521 -86.568  1.00  0.00     0.176 HD
ENDBRANCH  13  15
ENDBRANCH  11  13
ENDBRANCH   9  11
ENDBRANCH   4   9
BRANCH   1  18
HETATM   18  N1  UNL     1      54.606 130.543 -91.978  1.00  0.00    -0.225 N
HETATM   19  C1  UNL     1      55.470 130.908 -93.110  1.00  0.00     0.168 C
HETATM   20  C2  UNL     1      53.856 129.323 -91.989  1.00  0.00     0.168 C
ENDBRANCH   1  18
TORSDOF 5
ENDMDL