MODEL 4
REMARK VINA RESULT: -7.695194003      3.075      5.573
REMARK  9 active torsions:
REMARK  status: ('A' for Active; 'I' for Inactive)
REMARK    1  A    between atoms: C2_2  and  O1_3
REMARK    2  A    between atoms: O1_3  and  C3_4
REMARK    3  A    between atoms: C3_4  and  C4_6
REMARK    4  A    between atoms: C4_6  and  N1_7
REMARK    5  A    between atoms: N1_7  and  C5_8
REMARK    6  A    between atoms: N1_7  and  C9_20
REMARK    7  A    between atoms: C5_8  and  C6_10
REMARK    8  A    between atoms: C6_10  and  C7_14
REMARK    9  A    between atoms: C7_14  and  C8_16
ROOT
HETATM    1  N1  UNL     1     100.380  10.035  14.921  1.00  0.00    -0.335 N
ENDROOT
BRANCH   1   2
HETATM    2  C4  UNL     1      99.806   8.822  15.470  1.00  0.00     0.174 C
BRANCH   2   3
HETATM    3  C3  UNL     1      98.440   8.461  15.201  1.00  0.00     0.298 C
HETATM    4  O2  UNL     1      97.730   8.797  14.274  1.00  0.00    -0.259 OA
BRANCH   3   5
HETATM    5  O1  UNL     1      97.811   7.589  16.138  1.00  0.00    -0.317 OA
BRANCH   5   6
HETATM    6  C2  UNL     1      98.069   7.716  17.500  1.00  0.00     0.174 C
HETATM    7  C1  UNL     1      96.912   8.485  18.117  1.00  0.00     0.034 C
ENDBRANCH   5   6
ENDBRANCH   3   5
ENDBRANCH   2   3
ENDBRANCH   1   2
BRANCH   1   8
HETATM    8  C5  UNL     1      99.732  11.235  15.279  1.00  0.00     0.133 C
HETATM    9  S1  UNL     1      99.351  12.348  14.129  1.00  0.00    -0.058 SA
BRANCH   8  10
HETATM   10  C6  UNL     1      99.401  11.645  16.651  1.00  0.00     0.120 C
HETATM   11  N2  UNL     1      98.324  11.384  17.265  1.00  0.00    -0.393 N
ATOM     12  H22 UNL     1      97.649  10.841  16.726  1.00  0.00     0.156 HD
ATOM     13  H21 UNL     1      98.095  11.669  18.217  1.00  0.00     0.156 HD
BRANCH  10  14
HETATM   14  C7  UNL     1     100.381  12.434  17.433  1.00  0.00     0.284 C
HETATM   15  O3  UNL     1     100.205  13.686  17.564  1.00  0.00    -0.281 OA
BRANCH  14  16
HETATM   16  C8  UNL     1     101.547  11.792  18.057  1.00  0.00     0.457 C
HETATM   17  F1  UNL     1     102.691  12.310  17.412  1.00  0.00    -0.163 F
HETATM   18  F2  UNL     1     101.510  10.435  17.825  1.00  0.00    -0.163 F
HETATM   19  F3  UNL     1     101.707  12.101  19.370  1.00  0.00    -0.163 F
ENDBRANCH  14  16
ENDBRANCH  10  14
ENDBRANCH   8  10
ENDBRANCH   1   8
BRANCH   1  20
HETATM   20  C9  UNL     1     101.519  10.050  14.082  1.00  0.00     0.090 C
HETATM   21  C10 UNL     1     102.755  10.658  14.690  1.00  0.00     0.026 C
HETATM   22  C11 UNL     1     103.482  11.312  13.468  1.00  0.00     0.002 C
HETATM   23  C12 UNL     1     103.417  10.346  12.332  1.00  0.00     0.000 C
HETATM   24  C13 UNL     1     103.263   8.899  12.736  1.00  0.00     0.002 C
HETATM   25  C14 UNL     1     101.996   8.691  13.589  1.00  0.00     0.026 C
ENDBRANCH   1  20
TORSDOF 9
ENDMDL