MODEL 4
REMARK VINA RESULT: -7.954258853      5.177      7.795
REMARK  4 active torsions:
REMARK  status: ('A' for Active; 'I' for Inactive)
REMARK    1  A    between atoms: O1_2  and  C2_3
REMARK    2  A    between atoms: C3_6  and  N2_7
REMARK    3  A    between atoms: C5_9  and  N3_10
REMARK       I    between atoms: N3_10  and  C6_12
REMARK    4  A    between atoms: C6_12  and  C7_14
ROOT
HETATM    1  N2  UNL     1      96.699  10.854  17.412  1.00  0.00    -0.302 N
HETATM    2  C4  UNL     1      95.571  11.736  17.651  1.00  0.00     0.155 C
HETATM    3  C5  UNL     1      94.391  10.826  17.915  1.00  0.00     0.110 C
HETATM    4  C8  UNL     1      94.892   9.427  17.966  1.00  0.00     0.131 C
HETATM    5  C9  UNL     1      96.374   9.561  17.981  1.00  0.00     0.327 C
HETATM    6  F1  UNL     1      96.835   9.422  19.266  1.00  0.00    -0.182 F
HETATM    7  F2  UNL     1      96.919   8.525  17.214  1.00  0.00    -0.182 F
ENDROOT
BRANCH   1   8
HETATM    8  C3  UNL     1      97.923  11.230  16.722  1.00  0.00     0.123 A
HETATM    9  N1  UNL     1      98.915  11.783  17.347  1.00  0.00    -0.316 N
HETATM   10  C2  UNL     1     100.017  12.113  16.690  1.00  0.00     0.188 A
ATOM     11  H1  UNL     1      98.847  11.964  18.349  1.00  0.00     0.170 HD
HETATM   12  S1  UNL     1      99.648  11.624  15.099  1.00  0.00    -0.048 SA
HETATM   13  C10 UNL     1      98.072  11.011  15.370  1.00  0.00     0.027 A
HETATM   14  C11 UNL     1      97.115  10.402  14.403  1.00  0.00     0.060 C
BRANCH  10  15
HETATM   15  O1  UNL     1     101.190  12.712  17.162  1.00  0.00    -0.335 OA
HETATM   16  C1  UNL     1     101.963  12.020  18.151  1.00  0.00     0.212 C
ENDBRANCH  10  15
ENDBRANCH   1   8
BRANCH   3  17
HETATM   17  N3  UNL     1      93.723  11.172  19.156  1.00  0.00    -0.352 N
HETATM   18  C6  UNL     1      92.415  10.718  19.474  1.00  0.00     0.251 C
HETATM   19  O2  UNL     1      91.825   9.990  18.640  1.00  0.00    -0.271 OA
ATOM     20  H3  UNL     1      94.213  11.765  19.827  1.00  0.00     0.163 HD
BRANCH  18  21
HETATM   21  C7  UNL     1      91.775  11.098  20.758  1.00  0.00     0.269 C
HETATM   22 CL1  UNL     1      92.956  11.531  22.004  1.00  0.00    -0.098 Cl
HETATM   23 CL2  UNL     1      90.670   9.844  21.322  1.00  0.00    -0.098 Cl
ENDBRANCH  18  21
ENDBRANCH   3  17
TORSDOF 4
ENDMDL