MODEL 4
REMARK VINA RESULT: -7.875364160      1.138      1.174
REMARK  7 active torsions:
REMARK  status: ('A' for Active; 'I' for Inactive)
REMARK    1  A    between atoms: O1_2  and  C2_3
REMARK       I    between atoms: C2_3  and  N1_5
REMARK    2  A    between atoms: N1_5  and  C3_7
REMARK    3  A    between atoms: C4_8  and  C5_9
REMARK    4  A    between atoms: N3_17  and  C8_18
REMARK    5  A    between atoms: C8_18  and  C9_19
REMARK    6  A    between atoms: C9_19  and  O4_20
REMARK    7  A    between atoms: O4_20  and  C10_21
ROOT
HETATM    1  C3  UNL     1      98.021  10.613  16.844  1.00  0.00     0.148 A
HETATM    2  C4  UNL     1      96.920  11.363  17.135  1.00  0.00     0.167 A
HETATM    3  N2  UNL     1      97.265  12.704  17.247  1.00  0.00    -0.296 N
HETATM    4  C6  UNL     1      96.398  13.820  17.560  1.00  0.00     0.161 C
HETATM    5  C7  UNL     1      98.586  12.762  17.018  1.00  0.00     0.330 A
HETATM    6  O3  UNL     1      99.242  13.837  17.038  1.00  0.00    -0.246 OA
HETATM    7  N3  UNL     1      99.041  11.537  16.780  1.00  0.00    -0.281 N
ENDROOT
BRANCH   7   8
HETATM    8  C8  UNL     1     100.434  11.242  16.505  1.00  0.00     0.162 C
BRANCH   8   9
HETATM    9  C9  UNL     1     100.632  11.420  15.020  1.00  0.00     0.189 C
BRANCH   9  10
HETATM   10  O4  UNL     1     101.607  10.754  14.423  1.00  0.00    -0.379 OA
BRANCH  10  11
HETATM   11  C10 UNL     1     101.559  10.013  13.334  1.00  0.00     0.057 C
HETATM   12  C11 UNL     1     100.286   9.246  13.106  1.00  0.00     0.046 C
HETATM   13  C12 UNL     1     102.051  10.563  12.022  1.00  0.00     0.038 C
HETATM   14  C13 UNL     1     103.457  10.237  12.473  1.00  0.00     0.006 C
HETATM   15  C14 UNL     1     102.814   9.104  13.286  1.00  0.00     0.038 C
ENDBRANCH  10  11
ENDBRANCH   9  10
ENDBRANCH   8   9
ENDBRANCH   7   8
BRANCH   1  16
HETATM   16  N1  UNL     1      98.293   9.252  16.695  1.00  0.00    -0.286 N
HETATM   17  C2  UNL     1      97.865   8.201  15.936  1.00  0.00     0.365 C
HETATM   18  O2  UNL     1      96.957   8.147  15.125  1.00  0.00    -0.238 OA
ATOM     19  H1  UNL     1      99.025   8.957  17.342  1.00  0.00     0.172 HD
BRANCH  17  20
HETATM   20  O1  UNL     1      98.545   6.946  16.070  1.00  0.00    -0.309 OA
HETATM   21  C1  UNL     1      99.938   6.911  16.339  1.00  0.00     0.215 C
ENDBRANCH  17  20
ENDBRANCH   1  16
BRANCH   2  22
HETATM   22  C5  UNL     1      95.540  10.888  17.284  1.00  0.00     0.436 C
HETATM   23  F1  UNL     1      94.830  11.539  18.304  1.00  0.00    -0.165 F
HETATM   24  F2  UNL     1      95.621   9.576  17.902  1.00  0.00    -0.165 F
HETATM   25  F3  UNL     1      94.850  10.605  16.161  1.00  0.00    -0.165 F
ENDBRANCH   2  22
TORSDOF 7
ENDMDL