MODEL 2
REMARK VINA RESULT: -9.005030038      1.133      1.588
REMARK  8 active torsions:
REMARK  status: ('A' for Active; 'I' for Inactive)
REMARK    1  A    between atoms: C2_2  and  C3_3
REMARK    2  A    between atoms: C3_3  and  C4_4
REMARK    3  A    between atoms: C4_4  and  C6_6
REMARK    4  A    between atoms: C6_6  and  O2_8
REMARK    5  A    between atoms: O2_8  and  C7_9
REMARK    6  A    between atoms: C11_16  and  N1_17
REMARK    7  A    between atoms: N1_17  and  C12_19
REMARK    8  A    between atoms: C12_19  and  C14_21
ROOT
HETATM    1  C7  UNL     1     100.616  10.350  17.233  1.00  0.00     0.324 C
HETATM    2  O3  UNL     1      99.624  11.000  16.441  1.00  0.00    -0.317 OA
HETATM    3  C8  UNL     1     100.405  12.115  16.111  1.00  0.00     0.218 C
HETATM    4  C9  UNL     1     100.634  12.655  17.535  1.00  0.00     0.083 C
HETATM    5  C10 UNL     1     101.250  11.356  18.103  1.00  0.00     0.257 C
HETATM    6  O4  UNL     1     102.608  11.451  17.730  1.00  0.00    -0.222 OA
HETATM    7  O5  UNL     1     102.684  11.951  16.490  1.00  0.00    -0.174 OA
HETATM    8  C11 UNL     1     101.673  11.453  15.698  1.00  0.00     0.306 C
HETATM    9  O6  UNL     1     101.533  10.108  16.183  1.00  0.00    -0.270 OA
ENDROOT
BRANCH   1  10
HETATM   10  O2  UNL     1     100.133   9.173  17.771  1.00  0.00    -0.255 OA
BRANCH  10  11
HETATM   11  C6  UNL     1      98.862   8.734  17.497  1.00  0.00     0.267 C
HETATM   12  O1  UNL     1      97.915   9.200  18.173  1.00  0.00    -0.265 OA
BRANCH  11  13
HETATM   13  C4  UNL     1      98.538   7.747  16.443  1.00  0.00     0.085 C
HETATM   14  C5  UNL     1      99.784   6.851  16.363  1.00  0.00     0.020 C
BRANCH  13  15
HETATM   15  C3  UNL     1      98.303   8.437  15.141  1.00  0.00     0.040 C
BRANCH  15  16
HETATM   16  C2  UNL     1      96.840   8.447  14.842  1.00  0.00    -0.036 C
HETATM   17  C1  UNL     1      96.187   9.579  15.033  1.00  0.00     0.007 C
ENDBRANCH  15  16
ENDBRANCH  13  15
ENDBRANCH  11  13
ENDBRANCH  10  11
ENDBRANCH   1  10
BRANCH   8  18
HETATM   18  N1  UNL     1     101.877  11.340  14.313  1.00  0.00    -0.352 N
ATOM     19  H1  UNL     1     101.233  11.786  13.659  1.00  0.00     0.159 HD
BRANCH  18  20
HETATM   20  C12 UNL     1     102.969  10.610  13.839  1.00  0.00     0.185 C
HETATM   21  C13 UNL     1     104.044  11.472  13.255  1.00  0.00     0.041 C
BRANCH  20  22
HETATM   22  C14 UNL     1     102.457   9.523  12.874  1.00  0.00     0.406 C
HETATM   23  F1  UNL     1     103.536   8.682  12.538  1.00  0.00    -0.169 F
HETATM   24  F2  UNL     1     101.434   8.799  13.418  1.00  0.00    -0.169 F
HETATM   25  F3  UNL     1     102.070  10.148  11.692  1.00  0.00    -0.169 F
ENDBRANCH  20  22
ENDBRANCH  18  20
ENDBRANCH   8  18
TORSDOF 8
ENDMDL