MODEL 4
REMARK VINA RESULT: -7.733669919      1.407      1.818
REMARK  7 active torsions:
REMARK  status: ('A' for Active; 'I' for Inactive)
REMARK    1  A    between atoms: C7_11  and  O2_12
REMARK    2  A    between atoms: O2_12  and  C8_13
REMARK    3  A    between atoms: C8_13  and  C9_15
REMARK    4  A    between atoms: C9_15  and  O4_16
REMARK    5  A    between atoms: O4_16  and  C10_17
REMARK    6  A    between atoms: C10_17  and  C11_19
REMARK    7  A    between atoms: C11_19  and  C12_22
ROOT
HETATM    1  O2  UNL     1     100.463  11.358  14.083  1.00  0.00    -0.314 OA
ENDROOT
BRANCH   1   2
HETATM    2  C7  UNL     1     101.267  10.261  14.540  1.00  0.00     0.142 C
HETATM    3  C2  UNL     1     102.567  10.816  15.040  1.00  0.00     0.064 C
HETATM    4  C1  UNL     1     102.385  11.852  16.089  1.00  0.00     0.019 C
HETATM    5  C3  UNL     1     103.313  11.339  13.867  1.00  0.00     0.055 C
HETATM    6  N1  UNL     1     103.817  12.525  13.844  1.00  0.00    -0.399 N
HETATM    7  C4  UNL     1     103.430  10.408  12.747  1.00  0.00     0.171 C
ATOM      8  H12 UNL     1     103.734  13.175  14.626  1.00  0.00     0.156 HD
ATOM      9  H11 UNL     1     104.329  12.883  13.038  1.00  0.00     0.156 HD
HETATM   10  O1  UNL     1     103.994  10.751  11.683  1.00  0.00    -0.291 OA
HETATM   11  C5  UNL     1     102.840   9.054  12.972  1.00  0.00     0.087 C
HETATM   12  C6  UNL     1     101.429   9.260  13.454  1.00  0.00     0.041 C
ENDBRANCH   1   2
BRANCH   1  13
HETATM   13  C8  UNL     1      99.126  11.413  14.485  1.00  0.00     0.283 C
HETATM   14  O3  UNL     1      98.232  11.010  13.699  1.00  0.00    -0.263 OA
BRANCH  13  15
HETATM   15  C9  UNL     1      98.725  11.932  15.809  1.00  0.00     0.289 C
BRANCH  15  16
HETATM   16  O4  UNL     1      98.039  10.978  16.566  1.00  0.00    -0.309 OA
BRANCH  16  17
HETATM   17  C10 UNL     1      96.698  11.006  16.894  1.00  0.00     0.299 C
HETATM   18  O5  UNL     1      96.145  12.101  17.102  1.00  0.00    -0.262 OA
BRANCH  17  19
HETATM   19  C11 UNL     1      95.985   9.708  16.978  1.00  0.00     0.212 C
HETATM   20 CL1  UNL     1      96.648   8.636  15.697  1.00  0.00    -0.089 Cl
HETATM   21 CL2  UNL     1      94.259   9.916  16.697  1.00  0.00    -0.089 Cl
BRANCH  19  22
HETATM   22  C12 UNL     1      96.221   9.011  18.288  1.00  0.00     0.167 C
HETATM   23 CL3  UNL     1      95.471   9.843  19.652  1.00  0.00    -0.127 Cl
ENDBRANCH  19  22
ENDBRANCH  17  19
ENDBRANCH  16  17
ENDBRANCH  15  16
ENDBRANCH  13  15
ENDBRANCH   1  13
TORSDOF 7
ENDMDL