MODEL 1
REMARK VINA RESULT: -9.438274809      0.000      0.000
REMARK  6 active torsions:
REMARK  status: ('A' for Active; 'I' for Inactive)
REMARK    1  A    between atoms: C1_2  and  C2_3
REMARK    2  A    between atoms: C3_4  and  N1_5
REMARK    3  A    between atoms: C4_11  and  C5_12
REMARK    4  A    between atoms: C5_12  and  N3_13
REMARK       I    between atoms: N3_13  and  C6_15
REMARK    5  A    between atoms: C6_15  and  C7_17
REMARK    6  A    between atoms: C10_20  and  C11_21
ROOT
HETATM    1  N3  UNL     1      94.836  10.394  17.787  1.00  0.00    -0.355 N
ATOM      2  H3  UNL     1      94.494  10.938  16.996  1.00  0.00     0.162 HD
HETATM    3  C6  UNL     1      95.729   9.329  17.589  1.00  0.00     0.222 C
HETATM    4  O5  UNL     1      96.155   8.656  18.554  1.00  0.00    -0.273 OA
ENDROOT
BRANCH   1   5
HETATM    5  C5  UNL     1      94.408  10.705  19.137  1.00  0.00     0.191 C
BRANCH   5   6
HETATM    6  C4  UNL     1      92.952  10.512  19.282  1.00  0.00     0.111 A
HETATM    7  C2  UNL     1      92.214  10.856  20.370  1.00  0.00     0.087 A
HETATM    8  C3  UNL     1      90.903  10.520  20.133  1.00  0.00     0.209 A
HETATM    9  N2  UNL     1      90.916   9.976  18.880  1.00  0.00    -0.239 N
HETATM   10  O4  UNL     1      92.137   9.991  18.417  1.00  0.00    -0.238 OA
ATOM     11  H2  UNL     1      90.100   9.616  18.385  1.00  0.00     0.196 HD
BRANCH   7  12
HETATM   12  C1  UNL     1      92.704  11.476  21.594  1.00  0.00     0.276 C
HETATM   13  O1  UNL     1      93.097  10.806  22.585  1.00  0.00    -0.301 OA
ENDBRANCH   7  12
BRANCH   8  14
HETATM   14  N1  UNL     1      89.756  10.675  20.954  1.00  0.00    -0.095 N
HETATM   15  O2  UNL     1      89.123   9.681  21.352  1.00  0.00    -0.530 OA
HETATM   16  O3  UNL     1      89.304  11.911  21.339  1.00  0.00    -0.530 OA
ENDBRANCH   8  14
ENDBRANCH   5   6
ENDBRANCH   1   5
BRANCH   3  17
HETATM   17  C7  UNL     1      96.223   8.941  16.215  1.00  0.00     0.078 C
HETATM   18  C8  UNL     1      97.445   8.128  16.283  1.00  0.00     0.015 C
HETATM   19  C9  UNL     1      98.538   8.401  15.343  1.00  0.00     0.014 C
HETATM   20  C10 UNL     1      98.255   9.428  14.283  1.00  0.00     0.093 C
HETATM   21  C12 UNL     1      97.642  10.634  15.008  1.00  0.00     0.014 C
HETATM   22  C13 UNL     1      96.265  10.176  15.403  1.00  0.00     0.015 C
BRANCH  20  23
HETATM   23  C11 UNL     1      99.571   9.905  13.705  1.00  0.00     0.391 C
HETATM   24  F1  UNL     1     100.637   9.580  14.519  1.00  0.00    -0.171 F
HETATM   25  F2  UNL     1      99.733   9.302  12.476  1.00  0.00    -0.171 F
HETATM   26  F3  UNL     1      99.526  11.261  13.518  1.00  0.00    -0.171 F
ENDBRANCH  20  23
ENDBRANCH   3  17
TORSDOF 6
ENDMDL