MODEL 2
REMARK VINA RESULT: -7.853240957      2.216      3.553
REMARK  9 active torsions:
REMARK  status: ('A' for Active; 'I' for Inactive)
REMARK    1  A    between atoms: C2_2  and  C3_3
REMARK    2  A    between atoms: C2_2  and  C12_20
REMARK    3  A    between atoms: C3_3  and  O2_5
REMARK    4  A    between atoms: O2_5  and  C4_6
REMARK    5  A    between atoms: C4_6  and  C5_7
REMARK    6  A    between atoms: C5_7  and  O4_9
REMARK    7  A    between atoms: O4_9  and  C6_10
REMARK    8  A    between atoms: C9_13  and  C10_14
REMARK    9  A    between atoms: C12_20  and  O5_23
ROOT
HETATM    1  C5  UNL     1      97.849   8.159  16.429  1.00  0.00     0.284 C
HETATM    2  O3  UNL     1      97.148   8.165  15.388  1.00  0.00    -0.263 OA
ENDROOT
BRANCH   1   3
HETATM    3  C4  UNL     1      97.280   8.132  17.798  1.00  0.00     0.290 C
BRANCH   3   4
HETATM    4  O2  UNL     1      97.185   9.409  18.359  1.00  0.00    -0.308 OA
BRANCH   4   5
HETATM    5  C3  UNL     1      96.210  10.285  17.847  1.00  0.00     0.291 C
HETATM    6  O1  UNL     1      96.583  11.399  17.404  1.00  0.00    -0.260 OA
BRANCH   5   7
HETATM    7  C2  UNL     1      94.807   9.936  17.818  1.00  0.00     0.041 C
HETATM    8  C1  UNL     1      94.181   9.880  16.656  1.00  0.00     0.028 C
BRANCH   7   9
HETATM    9  C12 UNL     1      94.113   9.652  19.094  1.00  0.00     0.083 C
HETATM   10  C13 UNL     1      94.486  10.725  20.109  1.00  0.00     0.051 C
HETATM   11  C14 UNL     1      92.639   9.619  18.834  1.00  0.00     0.051 C
BRANCH   9  12
HETATM   12  O5  UNL     1      94.591   8.435  19.569  1.00  0.00    -0.386 OA
ATOM     13  H5  UNL     1      95.395   8.240  19.101  1.00  0.00     0.211 HD
ENDBRANCH   9  12
ENDBRANCH   7   9
ENDBRANCH   5   7
ENDBRANCH   4   5
ENDBRANCH   3   4
ENDBRANCH   1   3
BRANCH   1  14
HETATM   14  O4  UNL     1      99.216   8.180  16.253  1.00  0.00    -0.304 OA
BRANCH  14  15
HETATM   15  C6  UNL     1      99.823   8.988  15.312  1.00  0.00     0.193 C
HETATM   16  C7  UNL     1     100.582   8.253  14.240  1.00  0.00     0.044 C
HETATM   17  C8  UNL     1     100.862   9.234  13.121  1.00  0.00     0.017 C
HETATM   18  C9  UNL     1     101.777  10.338  13.504  1.00  0.00     0.103 C
HETATM   19  C11 UNL     1     102.406  10.188  14.862  1.00  0.00     0.090 C
HETATM   20  S1  UNL     1     101.010  10.170  16.058  1.00  0.00    -0.136 SA
BRANCH  18  21
HETATM   21  C10 UNL     1     102.911  10.417  12.477  1.00  0.00     0.392 C
HETATM   22  F1  UNL     1     102.346  10.738  11.239  1.00  0.00    -0.171 F
HETATM   23  F2  UNL     1     103.839  11.356  12.834  1.00  0.00    -0.171 F
HETATM   24  F3  UNL     1     103.531   9.194  12.413  1.00  0.00    -0.171 F
ENDBRANCH  18  21
ENDBRANCH  14  15
ENDBRANCH   1  14
TORSDOF 9
ENDMDL