MODEL 2
REMARK VINA RESULT: -7.342737336      1.202      5.845
REMARK  6 active torsions:
REMARK  status: ('A' for Active; 'I' for Inactive)
REMARK    1  A    between atoms: N1_1  and  C1_4
REMARK    2  A    between atoms: C2_9  and  N4_10
REMARK    3  A    between atoms: C4_12  and  C5_13
REMARK    4  A    between atoms: C5_13  and  N5_14
REMARK    5  A    between atoms: C5_13  and  N6_18
REMARK    6  A    between atoms: C6_26  and  N9_27
ROOT
HETATM    1  N4  UNL     1     -15.900 -27.681  18.435  1.00  0.00    -0.230 N
HETATM    2  C3  UNL     1     -14.937 -28.170  17.618  1.00  0.00     0.150 A
HETATM    3  C4  UNL     1     -15.507 -28.661  16.463  1.00  0.00     0.102 A
HETATM    4  N7  UNL     1     -16.833 -28.451  16.620  1.00  0.00    -0.285 N
ATOM      5  H7  UNL     1     -17.557 -28.699  15.946  1.00  0.00     0.188 HD
HETATM    6  N8  UNL     1     -17.039 -27.868  17.800  1.00  0.00    -0.234 N
ATOM      7  H8  UNL     1     -17.955 -27.602  18.162  1.00  0.00     0.209 HD
ENDROOT
BRANCH   1   8
HETATM    8  C2  UNL     1     -15.714 -27.092  19.716  1.00  0.00     0.188 A
HETATM    9  N3  UNL     1     -14.517 -26.765  20.236  1.00  0.00    -0.267 N
HETATM   10  N2  UNL     1     -14.399 -26.212  21.443  1.00  0.00    -0.131 N
ATOM     11  H3  UNL     1     -13.675 -26.946  19.691  1.00  0.00     0.189 HD
HETATM   12  C1  UNL     1     -15.492 -25.973  22.164  1.00  0.00     0.692 A
ATOM     13  H2  UNL     1     -13.478 -25.974  21.811  1.00  0.00     0.205 HD
HETATM   14  N10 UNL     1     -16.713 -26.289  21.674  1.00  0.00    -0.172 N
HETATM   15  C6  UNL     1     -16.843 -26.843  20.463  1.00  0.00     0.162 A
ATOM     16  H10 UNL     1     -17.544 -26.102  22.234  1.00  0.00     0.186 HD
BRANCH  12  17
HETATM   17  N1  UNL     1     -15.361 -25.436  23.338  1.00  0.00    -0.233 N
ATOM     18  H12 UNL     1     -15.075 -25.994  24.143  1.00  0.00     0.174 HD
ATOM     19  H11 UNL     1     -15.548 -24.439  23.446  1.00  0.00     0.174 HD
ENDBRANCH  12  17
BRANCH  15  20
HETATM   20  N9  UNL     1     -17.997 -27.145  19.991  1.00  0.00    -0.382 N
ATOM     21  H92 UNL     1     -18.180 -27.121  18.988  1.00  0.00     0.157 HD
ATOM     22  H91 UNL     1     -18.748 -27.414  20.626  1.00  0.00     0.157 HD
ENDBRANCH  15  20
ENDBRANCH   1   8
BRANCH   3  23
HETATM   23  C5  UNL     1     -14.844 -29.289  15.288  1.00  0.00     0.430 C
BRANCH  23  24
HETATM   24  N5  UNL     1     -15.268 -30.690  15.145  1.00  0.00    -0.045 N
ATOM     25  H53 UNL     1     -15.981 -30.943  15.830  1.00  0.00     0.277 HD
ATOM     26  H52 UNL     1     -15.814 -30.837  14.296  1.00  0.00     0.277 HD
ATOM     27  H51 UNL     1     -14.461 -31.313  15.190  1.00  0.00     0.277 HD
ENDBRANCH  23  24
BRANCH  23  28
HETATM   28  N6  UNL     1     -13.411 -29.277  15.401  1.00  0.00    -0.045 N
ATOM     29  H63 UNL     1     -13.114 -28.872  16.289  1.00  0.00     0.277 HD
ATOM     30  H62 UNL     1     -13.043 -30.220  15.521  1.00  0.00     0.277 HD
ATOM     31  H61 UNL     1     -12.966 -28.803  14.614  1.00  0.00     0.277 HD
ENDBRANCH  23  28
ENDBRANCH   3  23
TORSDOF 6
ENDMDL