MODEL 5
REMARK VINA RESULT: -7.394823106      5.864      7.158
REMARK  5 active torsions:
REMARK  status: ('A' for Active; 'I' for Inactive)
REMARK    1  A    between atoms: N1_1  and  C1_4
REMARK    2  A    between atoms: C2_9  and  N4_10
REMARK    3  A    between atoms: N4_10  and  N5_12
REMARK    4  A    between atoms: N5_12  and  C3_14
REMARK    5  A    between atoms: N9_24  and  N10_25
ROOT
HETATM    1  N4  UNL     1     -15.285 -26.189  23.482  1.00  0.00    -0.127 N
ATOM      2  H4  UNL     1     -14.480 -25.783  23.957  1.00  0.00     0.206 HD
ENDROOT
BRANCH   1   3
HETATM    3  C2  UNL     1     -15.889 -27.146  24.093  1.00  0.00     0.747 A
HETATM    4  N3  UNL     1     -17.028 -27.089  24.803  1.00  0.00    -0.114 N
HETATM    5  N2  UNL     1     -17.245 -28.320  25.232  1.00  0.00    -0.116 N
ATOM      6  H3  UNL     1     -17.606 -26.266  24.974  1.00  0.00     0.206 HD
HETATM    7  C1  UNL     1     -16.294 -29.168  24.830  1.00  0.00     0.727 A
ATOM      8  H2  UNL     1     -18.045 -28.592  25.803  1.00  0.00     0.206 HD
HETATM    9  N9  UNL     1     -15.431 -28.435  24.110  1.00  0.00     0.087 N
BRANCH   7  10
HETATM   10  N1  UNL     1     -16.186 -30.445  25.063  1.00  0.00    -0.231 N
ATOM     11  H12 UNL     1     -16.935 -31.047  25.404  1.00  0.00     0.174 HD
ATOM     12  H11 UNL     1     -15.371 -31.049  24.953  1.00  0.00     0.174 HD
ENDBRANCH   7  10
BRANCH   9  13
HETATM   13  N10 UNL     1     -14.280 -28.916  23.496  1.00  0.00    -0.309 N
ATOM     14 2H10 UNL     1     -13.473 -29.337  23.958  1.00  0.00     0.178 HD
ATOM     15 1H10 UNL     1     -14.096 -28.909  22.493  1.00  0.00     0.178 HD
ENDBRANCH   9  13
ENDBRANCH   1   3
BRANCH   1  16
HETATM   16  N5  UNL     1     -15.608 -25.655  22.257  1.00  0.00    -0.270 N
ATOM     17  H5  UNL     1     -15.431 -24.661  22.114  1.00  0.00     0.189 HD
BRANCH  16  18
HETATM   18  C3  UNL     1     -16.171 -26.387  21.174  1.00  0.00     0.141 A
HETATM   19  C4  UNL     1     -15.385 -27.167  20.350  1.00  0.00     0.127 A
HETATM   20  C5  UNL     1     -15.928 -27.868  19.304  1.00  0.00     0.264 A
HETATM   21  O1  UNL     1     -15.235 -28.593  18.531  1.00  0.00    -0.267 OA
HETATM   22  N6  UNL     1     -17.246 -27.794  19.076  1.00  0.00    -0.252 N
HETATM   23  N7  UNL     1     -17.995 -27.032  19.884  1.00  0.00    -0.238 N
ATOM     24  H6  UNL     1     -17.671 -28.307  18.303  1.00  0.00     0.191 HD
HETATM   25  N8  UNL     1     -17.482 -26.353  20.894  1.00  0.00    -0.270 N
ATOM     26  H7  UNL     1     -18.999 -26.974  19.712  1.00  0.00     0.208 HD
ATOM     27  H8  UNL     1     -18.100 -25.788  21.476  1.00  0.00     0.190 HD
ENDBRANCH  16  18
ENDBRANCH   1  16
TORSDOF 5
ENDMDL