MODEL 1
REMARK VINA RESULT: -8.237433584      0.000      0.000
REMARK  4 active torsions:
REMARK  status: ('A' for Active; 'I' for Inactive)
REMARK    1  A    between atoms: N1_1  and  C1_4
REMARK    2  A    between atoms: C2_7  and  C3_8
REMARK    3  A    between atoms: C3_8  and  C4_14
REMARK    4  A    between atoms: N3_9  and  N4_11
ROOT
HETATM    1  C3  UNL     1     -16.222 -27.786  18.002  1.00  0.00     0.106 C
HETATM    2  N3  UNL     1     -17.431 -27.325  17.710  1.00  0.00    -0.303 N
ATOM      3  H3  UNL     1     -17.825 -26.675  18.392  1.00  0.00     0.186 HD
ENDROOT
BRANCH   1   4
HETATM    4  C2  UNL     1     -15.675 -27.276  19.245  1.00  0.00     0.109 A
HETATM    5  N2  UNL     1     -14.301 -27.113  19.281  1.00  0.00    -0.188 N
HETATM    6  C1  UNL     1     -13.628 -26.765  20.379  1.00  0.00     0.679 A
ATOM      7  H2  UNL     1     -13.774 -27.266  18.421  1.00  0.00     0.184 HD
HETATM    8  N9  UNL     1     -14.336 -26.567  21.502  1.00  0.00    -0.155 N
HETATM    9  C7  UNL     1     -15.665 -26.707  21.538  1.00  0.00     0.286 A
ATOM     10  H9  UNL     1     -13.844 -26.302  22.355  1.00  0.00     0.187 HD
HETATM   11  C6  UNL     1     -16.386 -27.071  20.382  1.00  0.00     0.144 A
HETATM   12  O1  UNL     1     -16.315 -26.518  22.601  1.00  0.00    -0.266 OA
HETATM   13  N8  UNL     1     -17.805 -27.082  20.491  1.00  0.00    -0.094 NA
BRANCH   6  14
HETATM   14  N1  UNL     1     -12.329 -26.621  20.370  1.00  0.00    -0.234 N
ATOM     15  H12 UNL     1     -11.779 -26.879  19.550  1.00  0.00     0.174 HD
ATOM     16  H11 UNL     1     -11.827 -26.248  21.176  1.00  0.00     0.174 HD
ENDBRANCH   6  14
ENDBRANCH   1   4
BRANCH   1  17
HETATM   17  C4  UNL     1     -15.612 -28.686  17.055  1.00  0.00     0.096 A
HETATM   18  C5  UNL     1     -14.762 -28.387  16.015  1.00  0.00     0.142 A
HETATM   19  N5  UNL     1     -14.280 -29.540  15.454  1.00  0.00    -0.295 N
HETATM   20  N6  UNL     1     -14.829 -30.510  16.143  1.00  0.00    -0.243 N
ATOM     21  H5  UNL     1     -13.635 -29.625  14.669  1.00  0.00     0.187 HD
HETATM   22  N7  UNL     1     -15.604 -30.051  17.074  1.00  0.00    -0.283 N
ATOM     23  H6  UNL     1     -14.667 -31.502  15.967  1.00  0.00     0.208 HD
ATOM     24  H7  UNL     1     -16.132 -30.628  17.729  1.00  0.00     0.188 HD
ENDBRANCH   1  17
BRANCH   2  25
HETATM   25  N4  UNL     1     -18.209 -27.585  16.655  1.00  0.00    -0.345 N
ATOM     26  H42 UNL     1     -18.993 -28.204  16.860  1.00  0.00     0.176 HD
ATOM     27  H41 UNL     1     -18.128 -27.258  15.693  1.00  0.00     0.176 HD
ENDBRANCH   2  25
TORSDOF 4
ENDMDL