MODEL 2
REMARK VINA RESULT: -6.914191405      4.884      6.153
REMARK  4 active torsions:
REMARK  status: ('A' for Active; 'I' for Inactive)
REMARK       I    between atoms: N1_2  and  C2_3
REMARK    1  A    between atoms: N1_2  and  C3_11
REMARK       I    between atoms: C2_3  and  N3_5
REMARK    2  A    between atoms: N3_5  and  N4_6
REMARK    3  A    between atoms: N4_6  and  N5_8
REMARK    4  A    between atoms: C5_15  and  C6_16
ROOT
HETATM    1  C3  UNL     1     -13.676 -28.048  19.254  1.00  0.00     0.127 A
HETATM    2  C4  UNL     1     -13.111 -29.217  18.786  1.00  0.00     0.137 A
HETATM    3  N6  UNL     1     -13.358 -29.586  17.518  1.00  0.00    -0.355 N
ATOM      4  H6  UNL     1     -12.939 -30.451  17.177  1.00  0.00     0.165 HD
HETATM    5  C5  UNL     1     -14.135 -28.870  16.667  1.00  0.00     0.139 A
HETATM    6  C7  UNL     1     -14.686 -27.712  17.154  1.00  0.00     0.150 A
HETATM    7  N8  UNL     1     -15.536 -26.858  16.388  1.00  0.00    -0.080 NA
HETATM    8  N9  UNL     1     -14.442 -27.326  18.442  1.00  0.00    -0.328 N
ATOM      9  H9  UNL     1     -14.858 -26.462  18.788  1.00  0.00     0.168 HD
ENDROOT
BRANCH   1  10
HETATM   10  N1  UNL     1     -13.395 -27.705  20.598  1.00  0.00    -0.297 N
HETATM   11  C1  UNL     1     -12.625 -28.574  21.466  1.00  0.00     0.161 C
HETATM   12  C2  UNL     1     -13.875 -26.441  21.118  1.00  0.00     0.294 C
HETATM   13  N2  UNL     1     -12.817 -25.493  21.329  1.00  0.00    -0.047 NA
HETATM   14  N3  UNL     1     -15.021 -26.221  21.346  1.00  0.00    -0.276 NA
BRANCH  14  15
HETATM   15  N4  UNL     1     -16.253 -25.946  21.603  1.00  0.00    -0.179 N
ATOM     16  H4  UNL     1     -16.446 -25.464  22.481  1.00  0.00     0.223 HD
BRANCH  15  17
HETATM   17  N5  UNL     1     -17.365 -26.252  20.780  1.00  0.00    -0.320 N
ATOM     18  H52 UNL     1     -17.160 -26.788  19.937  1.00  0.00     0.179 HD
ATOM     19  H51 UNL     1     -18.334 -25.986  20.957  1.00  0.00     0.179 HD
ENDBRANCH  15  17
ENDBRANCH  14  15
ENDBRANCH   1  10
BRANCH   5  20
HETATM   20  C6  UNL     1     -14.372 -29.285  15.297  1.00  0.00     0.284 C
HETATM   21  N7  UNL     1     -15.625 -29.820  14.902  1.00  0.00    -0.056 NA
HETATM   22  O1  UNL     1     -13.476 -29.178  14.440  1.00  0.00    -0.269 OA
ENDBRANCH   5  20
TORSDOF 4
ENDMDL