MODEL 3
REMARK VINA RESULT: -7.365151382      1.610      4.868
REMARK  6 active torsions:
REMARK  status: ('A' for Active; 'I' for Inactive)
REMARK    1  A    between atoms: C1_4  and  N2_5
REMARK    2  A    between atoms: C1_4  and  C2_10
REMARK    3  A    between atoms: N2_5  and  N3_7
REMARK    4  A    between atoms: C3_11  and  C4_12
REMARK    5  A    between atoms: C6_21  and  N7_22
REMARK    6  A    between atoms: N8_24  and  N9_26
ROOT
HETATM    1  C2  UNL     1     -15.422 -27.888  18.678  1.00  0.00     0.076 A
HETATM    2  C3  UNL     1     -16.554 -27.541  18.015  1.00  0.00     0.129 A
HETATM    3  N5  UNL     1     -17.602 -26.865  18.660  1.00  0.00    -0.292 N
ATOM      4  H5  UNL     1     -18.432 -26.622  18.120  1.00  0.00     0.187 HD
HETATM    5  N6  UNL     1     -17.560 -26.535  19.917  1.00  0.00    -0.264 N
ATOM      6  H6  UNL     1     -18.336 -26.043  20.360  1.00  0.00     0.190 HD
HETATM    7  C5  UNL     1     -16.456 -26.866  20.616  1.00  0.00     0.289 A
HETATM    8  O2  UNL     1     -16.353 -26.575  21.855  1.00  0.00    -0.264 OA
HETATM    9  C6  UNL     1     -15.400 -27.522  20.049  1.00  0.00     0.135 A
ENDROOT
BRANCH   1  10
HETATM   10  C1  UNL     1     -14.243 -28.427  18.075  1.00  0.00     0.128 C
HETATM   11  N1  UNL     1     -13.355 -27.485  17.705  1.00  0.00    -0.384 N
ATOM     12  H12 UNL     1     -12.514 -27.870  17.275  1.00  0.00     0.157 HD
ATOM     13  H11 UNL     1     -13.627 -26.537  17.962  1.00  0.00     0.157 HD
BRANCH  10  14
HETATM   14  N2  UNL     1     -13.870 -29.727  17.723  1.00  0.00    -0.292 N
ATOM     15  H2  UNL     1     -12.937 -30.085  17.927  1.00  0.00     0.188 HD
BRANCH  14  16
HETATM   16  N3  UNL     1     -14.846 -30.534  17.068  1.00  0.00    -0.344 N
ATOM     17  H32 UNL     1     -15.385 -30.160  16.286  1.00  0.00     0.176 HD
ATOM     18  H31 UNL     1     -14.977 -31.484  17.414  1.00  0.00     0.176 HD
ENDBRANCH  14  16
ENDBRANCH  10  14
ENDBRANCH   1  10
BRANCH   2  19
HETATM   19  C4  UNL     1     -16.852 -27.969  16.674  1.00  0.00     0.283 C
HETATM   20  N4  UNL     1     -18.246 -28.077  16.311  1.00  0.00    -0.056 NA
HETATM   21  O1  UNL     1     -16.041 -28.249  15.816  1.00  0.00    -0.269 OA
ENDBRANCH   2  19
BRANCH   9  22
HETATM   22  N7  UNL     1     -14.266 -27.849  20.823  1.00  0.00    -0.281 N
HETATM   23  N8  UNL     1     -13.469 -26.977  21.294  1.00  0.00    -0.249 N
ATOM     24  H8  UNL     1     -13.662 -25.995  21.101  1.00  0.00     0.207 HD
ATOM     25  H7  UNL     1     -14.077 -28.833  21.013  1.00  0.00     0.188 HD
BRANCH  23  26
HETATM   26  N9  UNL     1     -12.358 -27.284  22.051  1.00  0.00    -0.331 N
ATOM     27  H92 UNL     1     -11.776 -28.057  21.728  1.00  0.00     0.178 HD
ATOM     28  H91 UNL     1     -12.095 -26.785  22.901  1.00  0.00     0.178 HD
ENDBRANCH  23  26
ENDBRANCH   9  22
TORSDOF 6
ENDMDL