MODEL 5
REMARK VINA RESULT: -7.043063495      1.972      5.174
REMARK  6 active torsions:
REMARK  status: ('A' for Active; 'I' for Inactive)
REMARK    1  A    between atoms: C2_3  and  N2_4
REMARK    2  A    between atoms: N2_4  and  N3_5
REMARK    3  A    between atoms: N2_4  and  C3_8
REMARK    4  A    between atoms: C6_17  and  N7_18
REMARK    5  A    between atoms: C7_23  and  N9_24
REMARK    6  A    between atoms: N9_24  and  N10_26
ROOT
HETATM    1  N1  UNL     1     -15.322 -24.903  24.210  1.00  0.00    -0.191 NA
HETATM    2  C1  UNL     1     -14.865 -25.189  23.202  1.00  0.00     0.107 C
HETATM    3  C2  UNL     1     -14.302 -25.572  21.942  1.00  0.00     0.211 C
ENDROOT
BRANCH   3   4
HETATM    4  N2  UNL     1     -14.429 -26.943  21.550  1.00  0.00    -0.246 N
BRANCH   4   5
HETATM    5  N3  UNL     1     -14.737 -27.915  22.476  1.00  0.00    -0.337 N
ATOM      6  H32 UNL     1     -14.859 -27.662  23.456  1.00  0.00     0.177 HD
ATOM      7  H31 UNL     1     -14.930 -28.872  22.183  1.00  0.00     0.177 HD
ENDBRANCH   4   5
BRANCH   4   8
HETATM    8  C3  UNL     1     -14.116 -27.312  20.217  1.00  0.00     0.145 A
HETATM    9  N4  UNL     1     -12.788 -27.532  19.942  1.00  0.00    -0.336 N
HETATM   10  C4  UNL     1     -12.331 -27.823  18.735  1.00  0.00     0.183 A
ATOM     11  H4  UNL     1     -12.119 -27.468  20.709  1.00  0.00     0.168 HD
HETATM   12  N5  UNL     1     -13.204 -27.907  17.727  1.00  0.00    -0.337 N
HETATM   13  C5  UNL     1     -14.520 -27.700  17.948  1.00  0.00     0.139 A
ATOM     14  H5  UNL     1     -12.875 -28.130  16.787  1.00  0.00     0.168 HD
HETATM   15  N6  UNL     1     -15.407 -27.797  16.944  1.00  0.00    -0.176 N
HETATM   16  C8  UNL     1     -15.020 -27.392  19.224  1.00  0.00     0.100 A
HETATM   17  C6  UNL     1     -16.725 -27.612  17.133  1.00  0.00     0.679 A
ATOM     18  H6  UNL     1     -15.069 -28.018  16.008  1.00  0.00     0.186 HD
HETATM   19  N8  UNL     1     -17.211 -27.320  18.347  1.00  0.00    -0.174 N
HETATM   20  C7  UNL     1     -16.371 -27.206  19.409  1.00  0.00     0.153 A
ATOM     21  H8  UNL     1     -18.214 -27.184  18.474  1.00  0.00     0.186 HD
BRANCH  17  22
HETATM   22  N7  UNL     1     -17.551 -27.716  16.122  1.00  0.00    -0.234 N
ATOM     23  H72 UNL     1     -17.336 -27.232  15.251  1.00  0.00     0.174 HD
ATOM     24  H71 UNL     1     -18.398 -28.277  16.212  1.00  0.00     0.174 HD
ENDBRANCH  17  22
BRANCH  20  25
HETATM   25  N9  UNL     1     -16.846 -26.959  20.575  1.00  0.00    -0.291 N
ATOM     26  H9  UNL     1     -16.474 -27.428  21.401  1.00  0.00     0.188 HD
BRANCH  25  27
HETATM   27  N10 UNL     1     -17.879 -26.035  20.686  1.00  0.00    -0.344 N
ATOM     28 2H10 UNL     1     -18.190 -25.520  19.863  1.00  0.00     0.176 HD
ATOM     29 1H10 UNL     1     -18.307 -25.894  21.602  1.00  0.00     0.176 HD
ENDBRANCH  25  27
ENDBRANCH  20  25
ENDBRANCH   4   8
ENDBRANCH   3   4
TORSDOF 6
ENDMDL