MODEL 5
REMARK VINA RESULT: -7.570583338      3.745      5.439
REMARK  5 active torsions:
REMARK  status: ('A' for Active; 'I' for Inactive)
REMARK    1  A    between atoms: N1_1  and  C1_4
REMARK    2  A    between atoms: C3_7  and  N3_8
REMARK    3  A    between atoms: N3_8  and  N4_10
REMARK    4  A    between atoms: N8_21  and  C6_22
REMARK    5  A    between atoms: C6_22  and  C7_23
ROOT
HETATM    1  C1  UNL     1     -16.846 -26.938  19.643  1.00  0.00     0.086 A
HETATM    2  C2  UNL     1     -15.704 -26.731  20.377  1.00  0.00     0.120 A
HETATM    3  N2  UNL     1     -15.797 -26.227  21.697  1.00  0.00    -0.096 NA
HETATM    4  C3  UNL     1     -14.441 -27.004  19.854  1.00  0.00     0.148 A
HETATM    5  N5  UNL     1     -14.309 -27.475  18.626  1.00  0.00    -0.323 N
ATOM      6  H5  UNL     1     -13.386 -27.676  18.243  1.00  0.00     0.169 HD
HETATM    7  C4  UNL     1     -15.421 -27.686  17.888  1.00  0.00     0.156 A
HETATM    8  C5  UNL     1     -16.689 -27.433  18.355  1.00  0.00     0.123 A
HETATM    9  N6  UNL     1     -17.521 -27.758  17.360  1.00  0.00    -0.280 N
ATOM     10  H6  UNL     1     -18.539 -27.687  17.385  1.00  0.00     0.188 HD
HETATM   11  N7  UNL     1     -16.800 -28.186  16.338  1.00  0.00    -0.238 N
ATOM     12  H7  UNL     1     -17.186 -28.499  15.448  1.00  0.00     0.208 HD
HETATM   13  N8  UNL     1     -15.519 -28.155  16.626  1.00  0.00    -0.250 N
ENDROOT
BRANCH   4  14
HETATM   14  N3  UNL     1     -13.299 -26.770  20.658  1.00  0.00    -0.290 N
ATOM     15  H3  UNL     1     -12.837 -27.559  21.109  1.00  0.00     0.188 HD
BRANCH  14  16
HETATM   16  N4  UNL     1     -12.792 -25.483  20.848  1.00  0.00    -0.344 N
ATOM     17  H42 UNL     1     -11.802 -25.321  20.663  1.00  0.00     0.176 HD
ATOM     18  H41 UNL     1     -13.389 -24.717  21.162  1.00  0.00     0.176 HD
ENDBRANCH  14  16
ENDBRANCH   4  14
BRANCH   1  19
HETATM   19  N1  UNL     1     -18.004 -26.698  20.096  1.00  0.00    -0.396 N
ATOM     20  H12 UNL     1     -18.789 -26.575  19.457  1.00  0.00     0.156 HD
ATOM     21  H11 UNL     1     -18.201 -26.619  21.094  1.00  0.00     0.156 HD
ENDBRANCH   1  19
BRANCH  13  22
HETATM   22  C6  UNL     1     -14.392 -28.547  15.768  1.00  0.00     0.265 C
BRANCH  22  23
HETATM   23  C7  UNL     1     -14.764 -29.615  14.837  1.00  0.00     0.193 C
HETATM   24  O1  UNL     1     -15.722 -30.374  15.081  1.00  0.00    -0.647 OA
HETATM   25  O2  UNL     1     -14.043 -29.786  13.674  1.00  0.00    -0.647 OA
ENDBRANCH  22  23
ENDBRANCH  13  22
TORSDOF 5
ENDMDL