MODEL 1
REMARK VINA RESULT: -7.152249039      0.000      0.000
REMARK  7 active torsions:
REMARK  status: ('A' for Active; 'I' for Inactive)
REMARK    1  A    between atoms: N1_1  and  N2_4
REMARK    2  A    between atoms: N2_4  and  N3_5
REMARK    3  A    between atoms: N3_5  and  C1_7
REMARK    4  A    between atoms: C1_7  and  N4_8
REMARK    5  A    between atoms: C4_15  and  N7_16
REMARK    6  A    between atoms: N9_24  and  N10_25
REMARK    7  A    between atoms: N10_25  and  N11_26
ROOT
HETATM    1  N4  UNL     1     -15.162 -28.115  18.789  1.00  0.00    -0.239 N
HETATM    2  C2  UNL     1     -14.442 -27.351  19.759  1.00  0.00     0.143 A
HETATM    3  N5  UNL     1     -13.106 -27.209  19.695  1.00  0.00    -0.337 N
ATOM      4  H5  UNL     1     -12.597 -27.658  18.933  1.00  0.00     0.168 HD
HETATM    5  C3  UNL     1     -12.422 -26.495  20.601  1.00  0.00     0.183 A
HETATM    6  N6  UNL     1     -13.055 -25.880  21.630  1.00  0.00    -0.338 N
ATOM      7  H6  UNL     1     -12.524 -25.340  22.313  1.00  0.00     0.168 HD
HETATM    8  C4  UNL     1     -14.407 -25.992  21.741  1.00  0.00     0.119 A
HETATM    9  C5  UNL     1     -15.105 -26.728  20.806  1.00  0.00     0.122 A
HETATM   10  C6  UNL     1     -16.552 -26.900  20.849  1.00  0.00     0.276 C
HETATM   11  O1  UNL     1     -17.201 -26.350  21.786  1.00  0.00    -0.266 OA
HETATM   12  N8  UNL     1     -17.182 -27.674  19.845  1.00  0.00    -0.249 N
ATOM     13  H8  UNL     1     -18.157 -27.940  19.983  1.00  0.00     0.187 HD
HETATM   14  N9  UNL     1     -16.544 -28.090  18.680  1.00  0.00    -0.017 NA
ENDROOT
BRANCH   1  15
HETATM   15  C1  UNL     1     -14.372 -28.937  17.896  1.00  0.00     0.303 C
BRANCH  15  16
HETATM   16  N3  UNL     1     -15.171 -29.965  17.268  1.00  0.00    -0.233 N
ATOM     17  H3  UNL     1     -15.638 -30.688  17.814  1.00  0.00     0.199 HD
BRANCH  16  18
HETATM   18  N2  UNL     1     -15.261 -29.924  16.025  1.00  0.00    -0.247 NA
BRANCH  18  19
HETATM   19  N1  UNL     1     -15.225 -30.142  14.795  1.00  0.00    -0.261 N
ATOM     20  H12 UNL     1     -14.416 -30.755  14.895  1.00  0.00     0.193 HD
ATOM     21  H11 UNL     1     -15.382 -30.176  13.787  1.00  0.00     0.193 HD
ENDBRANCH  18  19
ENDBRANCH  16  18
ENDBRANCH  15  16
ENDBRANCH   1  15
BRANCH  14  22
HETATM   22  N10 UNL     1     -16.990 -27.264  17.645  1.00  0.00    -0.014 NA
BRANCH  22  23
HETATM   23  N11 UNL     1     -17.886 -27.917  16.788  1.00  0.00    -0.330 N
ATOM     24 2H11 UNL     1     -17.682 -28.818  16.355  1.00  0.00     0.173 HD
ATOM     25 1H11 UNL     1     -18.750 -27.392  16.656  1.00  0.00     0.173 HD
ENDBRANCH  22  23
ENDBRANCH  14  22
BRANCH   8  26
HETATM   26  N7  UNL     1     -15.040 -25.423  22.705  1.00  0.00    -0.385 N
ATOM     27  H72 UNL     1     -14.616 -24.631  23.188  1.00  0.00     0.157 HD
ATOM     28  H71 UNL     1     -15.962 -25.751  22.993  1.00  0.00     0.157 HD
ENDBRANCH   8  26
TORSDOF 7
ENDMDL