MODEL 3
REMARK VINA RESULT: -7.375102947      3.164      6.753
REMARK  5 active torsions:
REMARK  status: ('A' for Active; 'I' for Inactive)
REMARK    1  A    between atoms: N1_1  and  C1_4
REMARK    2  A    between atoms: C2_7  and  N3_8
REMARK    3  A    between atoms: C3_11  and  C4_12
REMARK       I    between atoms: C4_12  and  N5_14
REMARK    4  A    between atoms: N5_14  and  N6_16
REMARK    5  A    between atoms: C5_19  and  N7_20
ROOT
HETATM    1  N3  UNL     1     -15.676 -26.749  21.579  1.00  0.00    -0.017 N
HETATM    2  N4  UNL     1     -16.070 -27.565  22.536  1.00  0.00    -0.256 N
ATOM      3  H4  UNL     1     -16.394 -28.519  22.378  1.00  0.00     0.190 HD
HETATM    4  C3  UNL     1     -15.993 -26.984  23.747  1.00  0.00     0.165 A
HETATM    5  C5  UNL     1     -15.521 -25.728  23.507  1.00  0.00     0.150 A
HETATM    6  N8  UNL     1     -15.339 -25.624  22.169  1.00  0.00    -0.247 N
ATOM      7  H8  UNL     1     -14.992 -24.794  21.688  1.00  0.00     0.191 HD
ENDROOT
BRANCH   1   8
HETATM    8  C2  UNL     1     -15.624 -27.031  20.168  1.00  0.00     0.734 A
HETATM    9  N2  UNL     1     -16.728 -26.988  19.397  1.00  0.00    -0.019 N
HETATM   10  C1  UNL     1     -16.695 -27.250  18.079  1.00  0.00     0.691 A
ATOM     11  H2  UNL     1     -17.620 -26.747  19.829  1.00  0.00     0.203 HD
HETATM   12  N10 UNL     1     -15.527 -27.571  17.487  1.00  0.00    -0.187 N
HETATM   13  C6  UNL     1     -14.422 -27.617  18.248  1.00  0.00     0.215 A
ATOM     14  H10 UNL     1     -15.484 -27.773  16.488  1.00  0.00     0.185 HD
HETATM   15  N9  UNL     1     -14.467 -27.353  19.561  1.00  0.00    -0.184 N
ATOM     16  H9  UNL     1     -13.608 -27.398  20.110  1.00  0.00     0.185 HD
BRANCH  10  17
HETATM   17  N1  UNL     1     -17.767 -27.205  17.337  1.00  0.00    -0.234 N
ATOM     18  H12 UNL     1     -18.504 -26.550  17.598  1.00  0.00     0.174 HD
ATOM     19  H11 UNL     1     -17.882 -27.800  16.517  1.00  0.00     0.174 HD
ENDBRANCH  10  17
ENDBRANCH   1   8
BRANCH   4  20
HETATM   20  C4  UNL     1     -16.367 -27.659  24.988  1.00  0.00     0.291 C
HETATM   21  O1  UNL     1     -16.013 -27.146  26.093  1.00  0.00    -0.264 OA
HETATM   22  N5  UNL     1     -17.101 -28.854  25.069  1.00  0.00    -0.271 N
ATOM     23  H5  UNL     1     -17.411 -29.310  24.212  1.00  0.00     0.189 HD
BRANCH  22  24
HETATM   24  N6  UNL     1     -17.412 -29.424  26.299  1.00  0.00    -0.342 N
ATOM     25  H62 UNL     1     -17.097 -30.376  26.487  1.00  0.00     0.176 HD
ATOM     26  H61 UNL     1     -17.941 -28.907  27.000  1.00  0.00     0.176 HD
ENDBRANCH  22  24
ENDBRANCH   4  20
BRANCH   5  27
HETATM   27  N7  UNL     1     -15.287 -24.812  24.369  1.00  0.00    -0.382 N
ATOM     28  H72 UNL     1     -14.820 -23.923  24.186  1.00  0.00     0.157 HD
ATOM     29  H71 UNL     1     -15.525 -24.825  25.360  1.00  0.00     0.157 HD
ENDBRANCH   5  27
TORSDOF 5
ENDMDL