MODEL 5
REMARK VINA RESULT: -7.040551236      1.718      2.042
REMARK  5 active torsions:
REMARK  status: ('A' for Active; 'I' for Inactive)
REMARK    1  A    between atoms: N1_1  and  C1_4
REMARK    2  A    between atoms: C2_7  and  N3_8
REMARK    3  A    between atoms: N3_8  and  N4_10
REMARK    4  A    between atoms: N7_18  and  C4_19
REMARK    5  A    between atoms: C4_19  and  C5_20
ROOT
HETATM    1  C1  UNL     1     -12.963 -28.100  18.079  1.00  0.00     0.679 A
HETATM    2  N2  UNL     1     -13.663 -28.942  17.293  1.00  0.00    -0.173 N
ATOM      3  H2  UNL     1     -13.192 -29.481  16.566  1.00  0.00     0.186 HD
HETATM    4  C2  UNL     1     -14.969 -29.062  17.477  1.00  0.00     0.167 A
HETATM    5  C3  UNL     1     -15.588 -28.318  18.476  1.00  0.00     0.141 A
HETATM    6  N5  UNL     1     -16.855 -28.235  18.880  1.00  0.00    -0.279 N
ATOM      7  H5  UNL     1     -17.641 -28.752  18.484  1.00  0.00     0.189 HD
HETATM    8  N6  UNL     1     -16.923 -27.383  19.865  1.00  0.00    -0.238 N
ATOM      9  H6  UNL     1     -17.776 -27.128  20.363  1.00  0.00     0.208 HD
HETATM   10  N7  UNL     1     -15.733 -26.905  20.118  1.00  0.00    -0.251 N
HETATM   11  C6  UNL     1     -14.874 -27.458  19.280  1.00  0.00     0.171 A
HETATM   12  N9  UNL     1     -13.540 -27.371  19.049  1.00  0.00    -0.173 N
ATOM     13  H9  UNL     1     -12.968 -26.747  19.619  1.00  0.00     0.186 HD
ENDROOT
BRANCH   4  14
HETATM   14  N3  UNL     1     -15.659 -29.862  16.738  1.00  0.00    -0.290 N
ATOM     15  H3  UNL     1     -16.595 -30.126  17.047  1.00  0.00     0.188 HD
BRANCH  14  16
HETATM   16  N4  UNL     1     -15.183 -30.383  15.535  1.00  0.00    -0.344 N
ATOM     17  H42 UNL     1     -14.195 -30.245  15.320  1.00  0.00     0.176 HD
ATOM     18  H41 UNL     1     -15.776 -30.887  14.876  1.00  0.00     0.176 HD
ENDBRANCH  14  16
ENDBRANCH   4  14
BRANCH   1  19
HETATM   19  N1  UNL     1     -11.697 -28.008  17.872  1.00  0.00    -0.234 N
ATOM     20  H12 UNL     1     -11.123 -27.423  18.481  1.00  0.00     0.174 HD
ATOM     21  H11 UNL     1     -11.307 -28.534  17.090  1.00  0.00     0.174 HD
ENDBRANCH   1  19
BRANCH  10  22
HETATM   22  C4  UNL     1     -15.336 -25.924  21.141  1.00  0.00     0.251 C
BRANCH  22  23
HETATM   23  C5  UNL     1     -15.747 -26.485  22.444  1.00  0.00     0.251 C
HETATM   24  N8  UNL     1     -15.773 -25.671  23.596  1.00  0.00    -0.061 NA
HETATM   25  O1  UNL     1     -16.070 -27.684  22.519  1.00  0.00    -0.275 OA
ENDBRANCH  22  23
ENDBRANCH  10  22
TORSDOF 5
ENDMDL