MODEL 2
REMARK VINA RESULT: -7.976349860      0.551      1.016
REMARK  6 active torsions:
REMARK  status: ('A' for Active; 'I' for Inactive)
REMARK    1  A    between atoms: N1_1  and  C1_4
REMARK    2  A    between atoms: C3_8  and  C4_9
REMARK    3  A    between atoms: C4_9  and  S1_10
REMARK    4  A    between atoms: S1_10  and  C5_11
REMARK    5  A    between atoms: C6_20  and  C7_21
REMARK       I    between atoms: C7_21  and  N7_23
REMARK    6  A    between atoms: N7_23  and  N8_25
ROOT
HETATM    1  C1  UNL     1     -16.570 -26.832  19.891  1.00  0.00     0.115 A
HETATM    2  C2  UNL     1     -15.493 -26.573  20.687  1.00  0.00     0.136 A
HETATM    3  N2  UNL     1     -14.309 -26.944  20.244  1.00  0.00    -0.363 N
ATOM      4  H2  UNL     1     -13.514 -26.742  20.850  1.00  0.00     0.165 HD
HETATM    5  C3  UNL     1     -14.034 -27.555  19.089  1.00  0.00     0.051 A
HETATM    6  C6  UNL     1     -15.139 -27.830  18.257  1.00  0.00     0.127 A
HETATM    7  N9  UNL     1     -16.342 -27.431  18.742  1.00  0.00    -0.336 N
ATOM      8  H9  UNL     1     -17.155 -27.614  18.154  1.00  0.00     0.168 HD
ENDROOT
BRANCH   5   9
HETATM    9  C4  UNL     1     -12.701 -28.059  18.764  1.00  0.00     0.142 C
BRANCH   9  10
HETATM   10  S1  UNL     1     -11.517 -27.824  20.143  1.00  0.00    -0.085 SA
BRANCH  10  11
HETATM   11  C5  UNL     1     -10.719 -26.256  19.855  1.00  0.00     0.176 A
HETATM   12  N3  UNL     1      -9.777 -25.986  19.002  1.00  0.00    -0.263 N
HETATM   13  N4  UNL     1      -9.441 -24.705  19.078  1.00  0.00    -0.226 N
ATOM     14  H3  UNL     1      -9.356 -26.662  18.366  1.00  0.00     0.190 HD
HETATM   15  N5  UNL     1     -10.176 -24.135  20.007  1.00  0.00    -0.226 N
ATOM     16  H4  UNL     1      -8.732 -24.240  18.512  1.00  0.00     0.210 HD
HETATM   17  N6  UNL     1     -10.981 -25.093  20.505  1.00  0.00    -0.263 N
ATOM     18  H5  UNL     1     -10.143 -23.157  20.295  1.00  0.00     0.210 HD
ATOM     19  H6  UNL     1     -11.671 -24.966  21.245  1.00  0.00     0.190 HD
ENDBRANCH  10  11
ENDBRANCH   9  10
ENDBRANCH   5   9
BRANCH   6  20
HETATM   20  C7  UNL     1     -14.977 -28.475  16.991  1.00  0.00     0.288 C
HETATM   21  O1  UNL     1     -14.717 -27.825  15.913  1.00  0.00    -0.264 OA
HETATM   22  N7  UNL     1     -15.104 -29.842  16.758  1.00  0.00    -0.271 N
ATOM     23  H7  UNL     1     -15.323 -30.449  17.548  1.00  0.00     0.189 HD
BRANCH  22  24
HETATM   24  N8  UNL     1     -14.946 -30.424  15.500  1.00  0.00    -0.342 N
ATOM     25  H82 UNL     1     -15.585 -30.125  14.764  1.00  0.00     0.176 HD
ATOM     26  H81 UNL     1     -14.233 -31.122  15.290  1.00  0.00     0.176 HD
ENDBRANCH  22  24
ENDBRANCH   6  20
BRANCH   1  27
HETATM   27  N1  UNL     1     -17.789 -26.454  20.272  1.00  0.00    -0.384 N
ATOM     28  H12 UNL     1     -18.088 -26.469  21.247  1.00  0.00     0.157 HD
ATOM     29  H11 UNL     1     -18.474 -26.158  19.577  1.00  0.00     0.157 HD
ENDBRANCH   1  27
TORSDOF 6
ENDMDL