MODEL 5
REMARK VINA RESULT: -7.413748183      3.016      7.002
REMARK  6 active torsions:
REMARK  status: ('A' for Active; 'I' for Inactive)
REMARK    1  A    between atoms: N2_3  and  C2_5
REMARK    2  A    between atoms: C4_7  and  N3_8
REMARK    3  A    between atoms: C5_13  and  S1_14
REMARK    4  A    between atoms: S1_14  and  C6_15
REMARK    5  A    between atoms: C6_15  and  C7_16
REMARK    6  A    between atoms: C7_16  and  O1_17
ROOT
HETATM    1  N1  UNL     1     -14.008 -29.433  13.891  1.00  0.00    -0.172 NA
HETATM    2  C1  UNL     1     -13.621 -29.089  14.946  1.00  0.00     0.183 C
HETATM    3  N2  UNL     1     -13.145 -28.667  16.189  1.00  0.00    -0.279 N
ATOM      4  H2  UNL     1     -12.165 -28.818  16.428  1.00  0.00     0.179 HD
ENDROOT
BRANCH   3   5
HETATM    5  C2  UNL     1     -14.005 -28.028  17.133  1.00  0.00     0.119 A
HETATM    6  C3  UNL     1     -15.350 -27.945  16.834  1.00  0.00     0.097 A
HETATM    7  C4  UNL     1     -16.204 -27.326  17.741  1.00  0.00     0.104 A
HETATM    8  N4  UNL     1     -15.678 -26.832  18.875  1.00  0.00    -0.323 N
HETATM    9  C5  UNL     1     -14.366 -26.912  19.165  1.00  0.00     0.147 A
ATOM     10  H4  UNL     1     -16.298 -26.376  19.544  1.00  0.00     0.169 HD
HETATM   11  N6  UNL     1     -13.541 -27.512  18.285  1.00  0.00    -0.322 N
ATOM     12  H6  UNL     1     -12.545 -27.577  18.497  1.00  0.00     0.169 HD
BRANCH   7  13
HETATM   13  N3  UNL     1     -17.461 -27.255  17.451  1.00  0.00    -0.385 N
ATOM     14  H32 UNL     1     -18.149 -27.939  17.764  1.00  0.00     0.157 HD
ATOM     15  H31 UNL     1     -17.783 -26.474  16.878  1.00  0.00     0.157 HD
ENDBRANCH   7  13
BRANCH   9  16
HETATM   16  S1  UNL     1     -13.676 -26.252  20.675  1.00  0.00    -0.090 SA
BRANCH  16  17
HETATM   17  C6  UNL     1     -14.353 -27.170  22.090  1.00  0.00     0.140 C
BRANCH  17  18
HETATM   18  C7  UNL     1     -15.529 -26.328  22.602  1.00  0.00     0.229 C
HETATM   19  C8  UNL     1     -15.888 -26.768  23.975  1.00  0.00     0.269 C
HETATM   20  O2  UNL     1     -16.172 -27.842  24.565  1.00  0.00    -0.269 OA
HETATM   21  N5  UNL     1     -15.787 -25.424  24.419  1.00  0.00    -0.291 N
HETATM   22  C9  UNL     1     -15.097 -25.050  23.211  1.00  0.00     0.269 C
ATOM     23  H5  UNL     1     -16.084 -24.924  25.257  1.00  0.00     0.172 HD
HETATM   24  O3  UNL     1     -14.437 -24.039  22.910  1.00  0.00    -0.269 OA
BRANCH  18  25
HETATM   25  O1  UNL     1     -16.565 -26.245  21.705  1.00  0.00    -0.371 OA
ATOM     26  H1  UNL     1     -16.385 -25.657  20.981  1.00  0.00     0.211 HD
ENDBRANCH  18  25
ENDBRANCH  17  18
ENDBRANCH  16  17
ENDBRANCH   9  16
ENDBRANCH   3   5
TORSDOF 6
ENDMDL