MODEL 4
REMARK VINA RESULT: -7.303501692      2.868      3.543
REMARK  5 active torsions:
REMARK  status: ('A' for Active; 'I' for Inactive)
REMARK    1  A    between atoms: C2_3  and  N2_4
REMARK    2  A    between atoms: C3_9  and  N4_10
REMARK    3  A    between atoms: C5_16  and  S1_17
REMARK    4  A    between atoms: S1_17  and  C6_18
REMARK    5  A    between atoms: C6_18  and  C7_19
ROOT
HETATM    1  C1  UNL     1     -14.788 -27.878  16.580  1.00  0.00     0.177 C
HETATM    2  N1  UNL     1     -15.336 -27.332  17.805  1.00  0.00    -0.169 N
HETATM    3  C2  UNL     1     -16.675 -27.196  17.847  1.00  0.00     0.681 A
HETATM    4  N3  UNL     1     -17.239 -26.671  18.984  1.00  0.00    -0.175 N
ATOM      5  H3  UNL     1     -18.251 -26.558  19.043  1.00  0.00     0.186 HD
HETATM    6  C3  UNL     1     -16.472 -26.311  20.005  1.00  0.00     0.145 A
HETATM    7  C4  UNL     1     -15.091 -26.452  19.957  1.00  0.00     0.125 A
HETATM    8  N5  UNL     1     -14.303 -26.109  20.962  1.00  0.00    -0.330 N
ATOM      9  H5  UNL     1     -14.741 -25.718  21.797  1.00  0.00     0.168 HD
HETATM   10  C5  UNL     1     -12.941 -26.241  20.962  1.00  0.00     0.160 A
HETATM   11  N7  UNL     1     -12.430 -26.758  19.841  1.00  0.00    -0.278 N
ATOM     12  H7  UNL     1     -11.420 -26.883  19.783  1.00  0.00     0.189 HD
HETATM   13  N8  UNL     1     -13.177 -27.123  18.787  1.00  0.00    -0.281 N
ATOM     14  H8  UNL     1     -12.724 -27.510  17.959  1.00  0.00     0.188 HD
HETATM   15  C8  UNL     1     -14.522 -26.984  18.808  1.00  0.00     0.168 A
ENDROOT
BRANCH  10  16
HETATM   16  S1  UNL     1     -12.064 -25.655  22.373  1.00  0.00    -0.084 SA
BRANCH  16  17
HETATM   17  C6  UNL     1     -12.451 -24.028  22.948  1.00  0.00     0.181 C
BRANCH  17  18
HETATM   18  C7  UNL     1     -11.660 -22.979  22.203  1.00  0.00     0.240 C
HETATM   19  N6  UNL     1     -11.318 -21.787  22.855  1.00  0.00    -0.061 NA
HETATM   20  O1  UNL     1     -11.310 -23.189  20.997  1.00  0.00    -0.276 OA
ENDBRANCH  17  18
ENDBRANCH  16  17
ENDBRANCH  10  16
BRANCH   6  21
HETATM   21  N4  UNL     1     -17.027 -25.822  21.058  1.00  0.00    -0.383 N
ATOM     22  H42 UNL     1     -17.919 -25.334  20.979  1.00  0.00     0.157 HD
ATOM     23  H41 UNL     1     -16.560 -25.933  21.957  1.00  0.00     0.157 HD
ENDBRANCH   6  21
BRANCH   3  24
HETATM   24  N2  UNL     1     -17.434 -27.532  16.874  1.00  0.00    -0.234 N
ATOM     25  H22 UNL     1     -18.136 -26.871  16.542  1.00  0.00     0.174 HD
ATOM     26  H21 UNL     1     -17.364 -28.437  16.409  1.00  0.00     0.174 HD
ENDBRANCH   3  24
TORSDOF 5
ENDMDL