MODEL 3
REMARK VINA RESULT: -7.657325170      1.525      1.826
REMARK  5 active torsions:
REMARK  status: ('A' for Active; 'I' for Inactive)
REMARK    1  A    between atoms: N6_16  and  C6_17
REMARK    2  A    between atoms: C6_17  and  S1_18
REMARK    3  A    between atoms: S1_18  and  C7_19
REMARK    4  A    between atoms: C7_19  and  C8_20
REMARK       I    between atoms: C8_20  and  N7_22
REMARK    5  A    between atoms: N7_22  and  N8_24
ROOT
HETATM    1  N1  UNL     1     -17.563 -27.264  17.282  1.00  0.00    -0.383 N
ATOM      2  H11 UNL     1     -18.333 -27.031  17.908  1.00  0.00     0.157 HD
ATOM      3  H12 UNL     1     -17.800 -27.510  16.320  1.00  0.00     0.157 HD
HETATM    4  C1  UNL     1     -16.363 -27.224  17.748  1.00  0.00     0.131 A
HETATM    5  N2  UNL     1     -15.352 -27.530  16.925  1.00  0.00    -0.337 N
ATOM      6  H2  UNL     1     -15.564 -27.780  15.959  1.00  0.00     0.168 HD
HETATM    7  C2  UNL     1     -14.061 -27.522  17.327  1.00  0.00     0.183 A
HETATM    8  N3  UNL     1     -13.777 -27.194  18.599  1.00  0.00    -0.336 N
ATOM      9  H3  UNL     1     -12.803 -27.189  18.899  1.00  0.00     0.168 HD
HETATM   10  C3  UNL     1     -14.727 -26.874  19.491  1.00  0.00     0.142 A
HETATM   11  C4  UNL     1     -16.043 -26.893  19.045  1.00  0.00     0.123 A
HETATM   12  N4  UNL     1     -16.795 -26.538  20.088  1.00  0.00    -0.324 N
ATOM     13  H4  UNL     1     -17.811 -26.452  20.093  1.00  0.00     0.169 HD
HETATM   14  C5  UNL     1     -15.970 -26.309  21.141  1.00  0.00     0.197 A
HETATM   15  N5  UNL     1     -16.351 -25.911  22.447  1.00  0.00    -0.063 NA
HETATM   16  N6  UNL     1     -14.676 -26.517  20.780  1.00  0.00    -0.296 N
ENDROOT
BRANCH  16  17
HETATM   17  C6  UNL     1     -13.525 -26.384  21.676  1.00  0.00     0.207 C
BRANCH  17  18
HETATM   18  S1  UNL     1     -13.386 -27.833  22.716  1.00  0.00    -0.139 SA
BRANCH  18  19
HETATM   19  C7  UNL     1     -13.494 -27.398  24.438  1.00  0.00     0.180 C
BRANCH  19  20
HETATM   20  C8  UNL     1     -14.727 -27.848  25.113  1.00  0.00     0.244 C
HETATM   21  O1  UNL     1     -14.732 -27.862  26.365  1.00  0.00    -0.271 OA
HETATM   22  N7  UNL     1     -15.905 -28.266  24.437  1.00  0.00    -0.276 N
ATOM     23  H7  UNL     1     -15.919 -28.261  23.417  1.00  0.00     0.189 HD
BRANCH  22  24
HETATM   24  N8  UNL     1     -17.041 -28.683  25.130  1.00  0.00    -0.343 N
ATOM     25  H82 UNL     1     -17.073 -29.647  25.462  1.00  0.00     0.176 HD
ATOM     26  H81 UNL     1     -17.824 -28.054  25.306  1.00  0.00     0.176 HD
ENDBRANCH  22  24
ENDBRANCH  19  20
ENDBRANCH  18  19
ENDBRANCH  17  18
ENDBRANCH  16  17
TORSDOF 5
ENDMDL