MODEL 2
REMARK VINA RESULT: -7.623292950      1.836      3.094
REMARK  5 active torsions:
REMARK  status: ('A' for Active; 'I' for Inactive)
REMARK    1  A    between atoms: C3_6  and  N2_7
REMARK    2  A    between atoms: C5_11  and  C6_12
REMARK       I    between atoms: C6_12  and  N4_14
REMARK    3  A    between atoms: N4_14  and  C7_16
REMARK    4  A    between atoms: C7_16  and  C8_17
REMARK    5  A    between atoms: C8_17  and  O2_18
ROOT
HETATM    1  N2  UNL     1     -15.483 -27.098  19.116  1.00  0.00    -0.225 N
HETATM    2  N3  UNL     1     -16.754 -26.738  19.150  1.00  0.00    -0.301 N
ATOM      3  H3  UNL     1     -17.396 -26.837  18.362  1.00  0.00     0.186 HD
HETATM    4  C4  UNL     1     -17.101 -26.227  20.340  1.00  0.00     0.128 A
HETATM    5  C5  UNL     1     -15.979 -26.260  21.128  1.00  0.00     0.091 A
HETATM    6  C9  UNL     1     -14.991 -26.806  20.340  1.00  0.00     0.157 A
HETATM    7  N5  UNL     1     -13.652 -27.040  20.719  1.00  0.00    -0.080 NA
ENDROOT
BRANCH   1   8
HETATM    8  C3  UNL     1     -14.766 -27.677  18.021  1.00  0.00     0.133 A
HETATM    9  C2  UNL     1     -15.341 -28.654  17.217  1.00  0.00     0.098 A
HETATM   10  C1  UNL     1     -14.629 -29.195  16.168  1.00  0.00     0.103 A
HETATM   11  N1  UNL     1     -15.133 -30.100  15.404  1.00  0.00    -0.385 N
HETATM   12  N7  UNL     1     -13.371 -28.805  15.889  1.00  0.00    -0.339 N
ATOM     13  H12 UNL     1     -16.085 -30.395  15.616  1.00  0.00     0.157 HD
ATOM     14  H11 UNL     1     -14.606 -30.501  14.628  1.00  0.00     0.157 HD
HETATM   15  C10 UNL     1     -12.823 -27.859  16.673  1.00  0.00     0.183 A
ATOM     16  H7  UNL     1     -12.852 -29.212  15.111  1.00  0.00     0.168 HD
HETATM   17  N6  UNL     1     -13.509 -27.321  17.703  1.00  0.00    -0.337 N
ATOM     18  H6  UNL     1     -13.050 -26.607  18.270  1.00  0.00     0.168 HD
ENDBRANCH   1   8
BRANCH   5  19
HETATM   19  C6  UNL     1     -15.839 -25.809  22.528  1.00  0.00     0.256 C
HETATM   20  O1  UNL     1     -16.493 -26.385  23.419  1.00  0.00    -0.267 OA
HETATM   21  N4  UNL     1     -14.980 -24.752  22.837  1.00  0.00    -0.355 N
ATOM     22  H4  UNL     1     -14.460 -24.314  22.076  1.00  0.00     0.162 HD
BRANCH  21  23
HETATM   23  C7  UNL     1     -14.791 -24.249  24.168  1.00  0.00     0.148 C
BRANCH  23  24
HETATM   24  C8  UNL     1     -14.134 -22.899  24.179  1.00  0.00     0.183 C
BRANCH  24  25
HETATM   25  O2  UNL     1     -14.462 -22.163  23.039  1.00  0.00    -0.399 OA
ATOM     26  H2  UNL     1     -15.395 -21.991  22.994  1.00  0.00     0.209 HD
ENDBRANCH  24  25
ENDBRANCH  23  24
ENDBRANCH  21  23
ENDBRANCH   5  19
TORSDOF 5
ENDMDL