MODEL 3
REMARK VINA RESULT: -7.712234553      0.848      1.141
REMARK  7 active torsions:
REMARK  status: ('A' for Active; 'I' for Inactive)
REMARK    1  A    between atoms: C1_4  and  N2_5
REMARK    2  A    between atoms: C1_4  and  S1_10
REMARK    3  A    between atoms: N2_5  and  N3_7
REMARK    4  A    between atoms: S1_10  and  C2_11
REMARK    5  A    between atoms: C2_11  and  C3_12
REMARK    6  A    between atoms: C3_12  and  N4_13
REMARK    7  A    between atoms: C6_23  and  N8_24
ROOT
HETATM    1  N4  UNL     1     -15.734 -26.371  20.857  1.00  0.00    -0.259 N
HETATM    2  N5  UNL     1     -17.041 -26.293  20.812  1.00  0.00    -0.238 N
ATOM      3  H5  UNL     1     -17.628 -25.998  21.591  1.00  0.00     0.208 HD
HETATM    4  N6  UNL     1     -17.502 -26.650  19.618  1.00  0.00    -0.278 N
ATOM      5  H6  UNL     1     -18.483 -26.672  19.337  1.00  0.00     0.189 HD
HETATM    6  C4  UNL     1     -16.454 -26.976  18.845  1.00  0.00     0.164 A
HETATM    7  C5  UNL     1     -16.353 -27.409  17.539  1.00  0.00     0.291 A
HETATM    8  O1  UNL     1     -17.332 -27.588  16.779  1.00  0.00    -0.265 OA
HETATM    9  N7  UNL     1     -15.114 -27.644  17.087  1.00  0.00    -0.154 N
ATOM     10  H7  UNL     1     -14.996 -27.965  16.126  1.00  0.00     0.187 HD
HETATM   11  C6  UNL     1     -14.023 -27.472  17.849  1.00  0.00     0.680 A
HETATM   12  N9  UNL     1     -14.116 -27.046  19.135  1.00  0.00    -0.173 N
ATOM     13  H9  UNL     1     -13.278 -26.918  19.702  1.00  0.00     0.186 HD
HETATM   14  C7  UNL     1     -15.335 -26.794  19.646  1.00  0.00     0.172 A
ENDROOT
BRANCH   1  15
HETATM   15  C3  UNL     1     -14.852 -26.059  21.996  1.00  0.00     0.163 C
BRANCH  15  16
HETATM   16  C2  UNL     1     -15.609 -26.485  23.222  1.00  0.00     0.104 C
BRANCH  16  17
HETATM   17  S1  UNL     1     -14.728 -27.803  24.076  1.00  0.00    -0.091 SA
BRANCH  17  18
HETATM   18  C1  UNL     1     -15.796 -28.629  25.216  1.00  0.00     0.152 C
HETATM   19  N1  UNL     1     -17.031 -28.814  24.972  1.00  0.00    -0.379 N
ATOM     20  H12 UNL     1     -17.647 -29.290  25.630  1.00  0.00     0.158 HD
ATOM     21  H11 UNL     1     -17.417 -28.491  24.085  1.00  0.00     0.158 HD
BRANCH  18  22
HETATM   22  N2  UNL     1     -15.257 -29.078  26.451  1.00  0.00    -0.287 N
ATOM     23  H2  UNL     1     -14.384 -28.676  26.789  1.00  0.00     0.188 HD
BRANCH  22  24
HETATM   24  N3  UNL     1     -15.890 -30.050  27.206  1.00  0.00    -0.343 N
ATOM     25  H32 UNL     1     -16.890 -29.954  27.375  1.00  0.00     0.176 HD
ATOM     26  H31 UNL     1     -15.379 -30.846  27.588  1.00  0.00     0.176 HD
ENDBRANCH  22  24
ENDBRANCH  18  22
ENDBRANCH  17  18
ENDBRANCH  16  17
ENDBRANCH  15  16
ENDBRANCH   1  15
BRANCH  11  27
HETATM   27  N8  UNL     1     -12.823 -27.699  17.409  1.00  0.00    -0.234 N
ATOM     28  H82 UNL     1     -12.756 -28.260  16.559  1.00  0.00     0.174 HD
ATOM     29  H81 UNL     1     -11.990 -27.344  17.880  1.00  0.00     0.174 HD
ENDBRANCH  11  27
TORSDOF 7
ENDMDL