MODEL 4
REMARK VINA RESULT: -8.529133008      3.220      4.309
REMARK  6 active torsions:
REMARK  status: ('A' for Active; 'I' for Inactive)
REMARK    1  A    between atoms: C2_5  and  C3_6
REMARK       I    between atoms: C3_6  and  N2_8
REMARK    2  A    between atoms: N2_8  and  N3_10
REMARK    3  A    between atoms: C6_15  and  C7_16
REMARK    4  A    between atoms: C7_16  and  S1_17
REMARK    5  A    between atoms: S1_17  and  C8_18
REMARK    6  A    between atoms: N8_27  and  N9_28
ROOT
HETATM    1  N1  UNL     1     -17.242 -27.040  18.356  1.00  0.00    -0.383 N
ATOM      2  H11 UNL     1     -17.964 -26.494  18.825  1.00  0.00     0.157 HD
ATOM      3  H12 UNL     1     -17.408 -27.532  17.478  1.00  0.00     0.157 HD
HETATM    4  C1  UNL     1     -16.053 -27.136  18.839  1.00  0.00     0.136 A
HETATM    5  C2  UNL     1     -15.083 -27.872  18.207  1.00  0.00     0.079 A
HETATM    6  C4  UNL     1     -13.825 -27.922  18.836  1.00  0.00     0.023 A
HETATM    7  C5  UNL     1     -13.618 -27.255  20.018  1.00  0.00     0.029 A
HETATM    8  C6  UNL     1     -14.619 -26.535  20.607  1.00  0.00     0.045 A
HETATM    9  N8  UNL     1     -15.835 -26.488  19.997  1.00  0.00    -0.249 N
ENDROOT
BRANCH   8  10
HETATM   10  C7  UNL     1     -14.448 -25.810  21.871  1.00  0.00     0.141 C
BRANCH  10  11
HETATM   11  S1  UNL     1     -12.765 -25.552  22.396  1.00  0.00    -0.085 SA
BRANCH  11  12
HETATM   12  C8  UNL     1     -11.786 -24.606  21.270  1.00  0.00     0.176 A
HETATM   13  N4  UNL     1     -11.828 -23.312  20.902  1.00  0.00    -0.263 N
HETATM   14  N5  UNL     1     -10.874 -23.077  20.033  1.00  0.00    -0.226 N
ATOM     15  H4  UNL     1     -12.497 -22.623  21.245  1.00  0.00     0.190 HD
HETATM   16  N6  UNL     1     -10.193 -24.201  19.816  1.00  0.00    -0.226 N
ATOM     17  H5  UNL     1     -10.684 -22.176  19.593  1.00  0.00     0.210 HD
HETATM   18  N7  UNL     1     -10.755 -25.119  20.570  1.00  0.00    -0.263 N
ATOM     19  H6  UNL     1      -9.397 -24.324  19.191  1.00  0.00     0.210 HD
ATOM     20  H7  UNL     1     -10.450 -26.092  20.619  1.00  0.00     0.190 HD
ENDBRANCH  11  12
ENDBRANCH  10  11
ENDBRANCH   8  10
BRANCH   9  21
HETATM   21  N9  UNL     1     -16.831 -25.746  20.627  1.00  0.00    -0.337 N
ATOM     22  H92 UNL     1     -17.273 -25.007  20.080  1.00  0.00     0.177 HD
ATOM     23  H91 UNL     1     -17.110 -25.924  21.591  1.00  0.00     0.177 HD
ENDBRANCH   9  21
BRANCH   5  24
HETATM   24  C3  UNL     1     -15.252 -28.553  16.957  1.00  0.00     0.273 C
HETATM   25  O1  UNL     1     -15.926 -27.922  16.049  1.00  0.00    -0.266 OA
HETATM   26  N2  UNL     1     -14.800 -29.809  16.558  1.00  0.00    -0.272 N
ATOM     27  H2  UNL     1     -14.262 -30.367  17.222  1.00  0.00     0.189 HD
BRANCH  26  28
HETATM   28  N3  UNL     1     -15.056 -30.347  15.264  1.00  0.00    -0.342 N
ATOM     29  H32 UNL     1     -14.775 -29.789  14.457  1.00  0.00     0.176 HD
ATOM     30  H31 UNL     1     -15.501 -31.253  15.120  1.00  0.00     0.176 HD
ENDBRANCH  26  28
ENDBRANCH   5  24
TORSDOF 6
ENDMDL