MODEL 3
REMARK VINA RESULT: -8.078460974      1.410      5.019
REMARK  7 active torsions:
REMARK  status: ('A' for Active; 'I' for Inactive)
REMARK    1  A    between atoms: N1_1  and  N2_4
REMARK    2  A    between atoms: N3_6  and  C1_8
REMARK    3  A    between atoms: C1_8  and  C2_9
REMARK    4  A    between atoms: C2_9  and  N4_10
REMARK    5  A    between atoms: C5_18  and  N8_19
REMARK    6  A    between atoms: C6_24  and  C7_25
REMARK       I    between atoms: C7_25  and  N10_27
REMARK    7  A    between atoms: N10_27  and  N11_29
ROOT
HETATM    1  N4  UNL     1     -15.240 -27.149  18.808  1.00  0.00    -0.314 N
HETATM    2  C3  UNL     1     -16.558 -26.963  18.470  1.00  0.00     0.197 A
HETATM    3  N5  UNL     1     -17.153 -27.191  17.187  1.00  0.00    -0.063 NA
HETATM    4  N6  UNL     1     -17.245 -26.516  19.501  1.00  0.00    -0.314 N
ATOM      5  H6  UNL     1     -18.242 -26.301  19.507  1.00  0.00     0.170 HD
HETATM    6  C4  UNL     1     -16.403 -26.392  20.547  1.00  0.00     0.153 A
HETATM    7  N7  UNL     1     -16.584 -25.960  21.806  1.00  0.00    -0.174 N
ATOM      8  H7  UNL     1     -17.507 -25.669  22.130  1.00  0.00     0.186 HD
HETATM    9  C5  UNL     1     -15.527 -25.920  22.623  1.00  0.00     0.678 A
HETATM   10  N9  UNL     1     -14.316 -26.287  22.242  1.00  0.00    -0.184 N
ATOM     11  H9  UNL     1     -13.546 -26.234  22.909  1.00  0.00     0.184 HD
HETATM   12  C6  UNL     1     -14.070 -26.738  20.967  1.00  0.00     0.149 A
HETATM   13  C8  UNL     1     -15.133 -26.796  20.094  1.00  0.00     0.115 A
ENDROOT
BRANCH   1  14
HETATM   14  C2  UNL     1     -14.240 -27.601  17.892  1.00  0.00     0.153 C
BRANCH  14  15
HETATM   15  C1  UNL     1     -14.106 -29.108  17.797  1.00  0.00     0.161 C
BRANCH  15  16
HETATM   16  N3  UNL     1     -15.125 -29.746  17.021  1.00  0.00    -0.321 N
HETATM   17  N2  UNL     1     -14.910 -30.078  15.836  1.00  0.00    -0.254 N
ATOM     18  H2  UNL     1     -14.461 -30.990  15.915  1.00  0.00     0.207 HD
ATOM     19  H3  UNL     1     -16.037 -29.931  17.438  1.00  0.00     0.181 HD
BRANCH  17  20
HETATM   20  N1  UNL     1     -14.959 -29.873  14.610  1.00  0.00    -0.331 N
ATOM     21  H12 UNL     1     -15.688 -29.163  14.549  1.00  0.00     0.178 HD
ATOM     22  H11 UNL     1     -14.650 -30.047  13.653  1.00  0.00     0.178 HD
ENDBRANCH  17  20
ENDBRANCH  15  16
ENDBRANCH  14  15
ENDBRANCH   1  14
BRANCH  12  23
HETATM   23  C7  UNL     1     -12.711 -27.060  20.601  1.00  0.00     0.289 C
HETATM   24  O1  UNL     1     -12.279 -28.213  20.648  1.00  0.00    -0.264 OA
HETATM   25  N10 UNL     1     -11.850 -26.011  20.178  1.00  0.00    -0.271 N
ATOM     26  H10 UNL     1     -12.191 -25.050  20.134  1.00  0.00     0.189 HD
BRANCH  25  27
HETATM   27  N11 UNL     1     -10.537 -26.307  19.825  1.00  0.00    -0.342 N
ATOM     28 2H11 UNL     1     -10.344 -26.704  18.906  1.00  0.00     0.176 HD
ATOM     29 1H11 UNL     1      -9.787 -26.123  20.491  1.00  0.00     0.176 HD
ENDBRANCH  25  27
ENDBRANCH  12  23
BRANCH   9  30
HETATM   30  N8  UNL     1     -15.717 -25.501  23.833  1.00  0.00    -0.234 N
ATOM     31  H82 UNL     1     -16.620 -25.105  24.093  1.00  0.00     0.174 HD
ATOM     32  H81 UNL     1     -14.943 -25.586  24.491  1.00  0.00     0.174 HD
ENDBRANCH   9  30
TORSDOF 7
ENDMDL