MODEL 4
REMARK VINA RESULT: -7.894361275      1.156      1.805
REMARK  6 active torsions:
REMARK  status: ('A' for Active; 'I' for Inactive)
REMARK    1  A    between atoms: N2_3  and  C2_4
REMARK    2  A    between atoms: N2_3  and  C5_17
REMARK    3  A    between atoms: C2_4  and  S1_5
REMARK    4  A    between atoms: S1_5  and  C3_6
REMARK    5  A    between atoms: C4_9  and  N4_10
REMARK    6  A    between atoms: C6_20  and  N8_21
ROOT
HETATM    1  N1  UNL     1     -17.830 -26.658  20.259  1.00  0.00    -0.171 NA
HETATM    2  C1  UNL     1     -16.653 -26.676  20.283  1.00  0.00     0.204 C
HETATM    3  N2  UNL     1     -15.239 -26.724  20.269  1.00  0.00    -0.084 N
ENDROOT
BRANCH   3   4
HETATM    4  C2  UNL     1     -14.470 -26.179  21.321  1.00  0.00     0.180 C
BRANCH   4   5
HETATM    5  S1  UNL     1     -14.188 -27.211  22.751  1.00  0.00    -0.045 SA
BRANCH   5   6
HETATM    6  C3  UNL     1     -15.506 -27.193  23.940  1.00  0.00     0.179 A
HETATM    7  N3  UNL     1     -15.878 -28.249  24.733  1.00  0.00    -0.168 N
HETATM    8  C4  UNL     1     -16.912 -27.898  25.506  1.00  0.00     0.692 A
ATOM      9  H3  UNL     1     -15.433 -29.166  24.732  1.00  0.00     0.186 HD
HETATM   10  N5  UNL     1     -17.173 -26.622  25.185  1.00  0.00    -0.130 N
HETATM   11  N6  UNL     1     -16.341 -26.194  24.252  1.00  0.00    -0.265 N
ATOM     12  H5  UNL     1     -17.912 -26.059  25.605  1.00  0.00     0.205 HD
ATOM     13  H6  UNL     1     -16.336 -25.261  23.840  1.00  0.00     0.189 HD
BRANCH   8  14
HETATM   14  N4  UNL     1     -17.551 -28.596  26.382  1.00  0.00    -0.233 N
ATOM     15  H42 UNL     1     -18.233 -29.325  26.176  1.00  0.00     0.174 HD
ATOM     16  H41 UNL     1     -17.503 -28.557  27.400  1.00  0.00     0.174 HD
ENDBRANCH   8  14
ENDBRANCH   5   6
ENDBRANCH   4   5
ENDBRANCH   3   4
BRANCH   3  17
HETATM   17  C5  UNL     1     -14.625 -27.351  19.134  1.00  0.00     0.716 A
HETATM   18  N7  UNL     1     -13.303 -27.108  18.891  1.00  0.00    -0.021 N
HETATM   19  C6  UNL     1     -12.654 -27.664  17.858  1.00  0.00     0.694 A
ATOM     20  H7  UNL     1     -12.793 -26.483  19.515  1.00  0.00     0.203 HD
HETATM   21  N9  UNL     1     -13.291 -28.497  17.007  1.00  0.00    -0.141 N
HETATM   22  C7  UNL     1     -14.584 -28.742  17.233  1.00  0.00     0.352 A
ATOM     23  H9  UNL     1     -12.803 -28.923  16.220  1.00  0.00     0.189 HD
HETATM   24  O1  UNL     1     -15.207 -29.517  16.454  1.00  0.00    -0.246 OA
HETATM   25  N10 UNL     1     -15.241 -28.167  18.296  1.00  0.00    -0.139 N
ATOM     26  H10 UNL     1     -16.230 -28.375  18.441  1.00  0.00     0.189 HD
BRANCH  19  27
HETATM   27  N8  UNL     1     -11.406 -27.430  17.632  1.00  0.00    -0.234 N
ATOM     28  H82 UNL     1     -10.804 -28.234  17.454  1.00  0.00     0.174 HD
ATOM     29  H81 UNL     1     -11.029 -26.482  17.629  1.00  0.00     0.174 HD
ENDBRANCH  19  27
ENDBRANCH   3  17
TORSDOF 6
ENDMDL