MODEL 1
REMARK VINA RESULT: -7.820367892      0.000      0.000
REMARK  5 active torsions:
REMARK  status: ('A' for Active; 'I' for Inactive)
REMARK       I    between atoms: N1_1  and  C1_4
REMARK       I    between atoms: C1_4  and  N3_6
REMARK    1  A    between atoms: N3_6  and  N4_8
REMARK       I    between atoms: N4_8  and  C2_10
REMARK    2  A    between atoms: C2_10  and  C3_12
REMARK    3  A    between atoms: C3_12  and  S1_13
REMARK    4  A    between atoms: S1_13  and  C4_14
REMARK    5  A    between atoms: C4_14  and  C5_15
ROOT
HETATM    1  S1  UNL     1     -15.235 -26.536  21.452  1.00  0.00    -0.153 SA
ENDROOT
BRANCH   1   2
HETATM    2  C3  UNL     1     -14.946 -25.230  22.660  1.00  0.00     0.178 C
BRANCH   2   3
HETATM    3  C2  UNL     1     -15.402 -25.700  23.985  1.00  0.00     0.245 C
HETATM    4  N4  UNL     1     -16.694 -26.259  24.156  1.00  0.00    -0.267 N
ATOM      5  H4  UNL     1     -17.329 -26.344  23.362  1.00  0.00     0.190 HD
HETATM    6  O1  UNL     1     -14.616 -25.592  24.958  1.00  0.00    -0.271 OA
BRANCH   4   7
HETATM    7  N3  UNL     1     -17.089 -26.696  25.434  1.00  0.00    -0.271 N
HETATM    8  C1  UNL     1     -17.132 -28.085  25.718  1.00  0.00     0.200 C
HETATM    9  N1  UNL     1     -17.857 -28.548  26.658  1.00  0.00    -0.372 N
HETATM   10  N2  UNL     1     -16.352 -28.983  24.940  1.00  0.00    -0.062 NA
ATOM     11  H12 UNL     1     -17.888 -29.547  26.863  1.00  0.00     0.158 HD
ATOM     12  H11 UNL     1     -18.417 -27.903  27.217  1.00  0.00     0.158 HD
ATOM     13  H3  UNL     1     -17.342 -26.017  26.152  1.00  0.00     0.189 HD
ENDBRANCH   4   7
ENDBRANCH   2   3
ENDBRANCH   1   2
BRANCH   1  14
HETATM   14  C4  UNL     1     -16.524 -26.039  20.305  1.00  0.00     0.140 C
BRANCH  14  15
HETATM   15  C5  UNL     1     -16.374 -26.780  19.044  1.00  0.00     0.080 A
HETATM   16  N5  UNL     1     -17.341 -26.894  18.120  1.00  0.00    -0.283 N
HETATM   17  N6  UNL     1     -17.270 -27.526  16.990  1.00  0.00    -0.240 N
ATOM     18  H5  UNL     1     -18.226 -26.433  18.330  1.00  0.00     0.189 HD
HETATM   19  N7  UNL     1     -16.261 -28.180  16.508  1.00  0.00    -0.265 N
ATOM     20  H6  UNL     1     -18.110 -27.506  16.412  1.00  0.00     0.208 HD
HETATM   21  C6  UNL     1     -15.057 -28.350  17.075  1.00  0.00     0.159 A
ATOM     22  H7  UNL     1     -16.398 -28.614  15.595  1.00  0.00     0.190 HD
HETATM   23  N8  UNL     1     -14.082 -29.016  16.546  1.00  0.00    -0.379 N
HETATM   24  S2  UNL     1     -14.920 -27.591  18.598  1.00  0.00    -0.038 SA
ATOM     25  H82 UNL     1     -14.164 -29.470  15.636  1.00  0.00     0.158 HD
ATOM     26  H81 UNL     1     -13.167 -29.146  16.978  1.00  0.00     0.158 HD
ENDBRANCH  14  15
ENDBRANCH   1  14
TORSDOF 5
ENDMDL