MODEL 5
REMARK VINA RESULT: -8.272163688      2.915      4.015
REMARK  6 active torsions:
REMARK  status: ('A' for Active; 'I' for Inactive)
REMARK    1  A    between atoms: C2_2  and  N1_3
REMARK    2  A    between atoms: C2_2  and  C13_15
REMARK    3  A    between atoms: N1_3  and  C3_5
REMARK    4  A    between atoms: C21_25  and  N3_26
REMARK       I    between atoms: N3_26  and  C22_28
REMARK    5  A    between atoms: C22_28  and  C23_30
REMARK    6  A    between atoms: C26_33  and  C27_34
ROOT
HETATM    1  C13 UNL     1       6.041   3.397 -26.447  1.00  0.00    -0.014 A
HETATM    2  C14 UNL     1       6.594   4.644 -26.474  1.00  0.00     0.097 A
HETATM    3  N2  UNL     1       7.484   4.921 -27.464  1.00  0.00    -0.374 N
ATOM      4  H2  UNL     1       7.906   5.849 -27.500  1.00  0.00     0.164 HD
HETATM    5  C15 UNL     1       7.834   3.997 -28.415  1.00  0.00     0.097 A
HETATM    6  C16 UNL     1       7.289   2.743 -28.403  1.00  0.00    -0.013 A
HETATM    7  C17 UNL     1       6.366   2.461 -27.380  1.00  0.00    -0.039 A
HETATM    8  C18 UNL     1       5.755   1.111 -27.496  1.00  0.00     0.040 C
HETATM    9  C19 UNL     1       5.352   0.998 -28.986  1.00  0.00     0.007 C
HETATM   10  C20 UNL     1       6.503   0.951 -29.916  1.00  0.00     0.030 C
HETATM   11  C21 UNL     1       7.682   1.721 -29.383  1.00  0.00     0.120 C
ENDROOT
BRANCH   1  12
HETATM   12  C2  UNL     1       5.133   2.997 -25.302  1.00  0.00     0.108 C
HETATM   13  C1  UNL     1       3.765   3.602 -25.435  1.00  0.00     0.037 C
BRANCH  12  14
HETATM   14  N1  UNL     1       5.744   3.321 -24.096  1.00  0.00    -0.409 N
ATOM     15  H1  UNL     1       5.541   4.265 -23.769  1.00  0.00     0.154 HD
BRANCH  14  16
HETATM   16  C3  UNL     1       6.561   2.611 -23.273  1.00  0.00     0.085 C
HETATM   17  C4  UNL     1       5.840   1.401 -22.641  1.00  0.00     0.009 C
HETATM   18  C5  UNL     1       5.756   0.235 -23.587  1.00  0.00     0.011 C
HETATM   19  C9  UNL     1       6.598   1.058 -21.386  1.00  0.00     0.011 C
HETATM   20  C6  UNL     1       7.151  -0.235 -23.883  1.00  0.00    -0.013 C
HETATM   21  C7  UNL     1       7.916  -0.563 -22.619  1.00  0.00     0.009 C
HETATM   22  C12 UNL     1       7.853   0.900 -24.622  1.00  0.00     0.011 C
HETATM   23  C8  UNL     1       8.012   0.689 -21.771  1.00  0.00    -0.013 C
HETATM   24  C10 UNL     1       8.703   1.762 -22.539  1.00  0.00     0.011 C
HETATM   25  C11 UNL     1       7.859   2.144 -23.787  1.00  0.00     0.009 C
ENDBRANCH  14  16
ENDBRANCH  12  14
ENDBRANCH   1  12
BRANCH  11  26
HETATM   26  N3  UNL     1       8.428   2.285 -30.494  1.00  0.00    -0.348 N
HETATM   27  C22 UNL     1       9.828   2.036 -30.597  1.00  0.00     0.252 C
HETATM   28  O1  UNL     1      10.411   1.344 -29.747  1.00  0.00    -0.268 OA
ATOM     29  H3  UNL     1       7.954   2.854 -31.196  1.00  0.00     0.163 HD
BRANCH  27  30
HETATM   30  C23 UNL     1      10.580   2.606 -31.713  1.00  0.00     0.032 A
HETATM   31  C24 UNL     1      11.558   3.569 -31.447  1.00  0.00     0.018 A
HETATM   32  C25 UNL     1      12.299   4.133 -32.458  1.00  0.00     0.017 A
HETATM   33  C26 UNL     1      12.113   3.771 -33.791  1.00  0.00     0.048 A
HETATM   34  C28 UNL     1      11.152   2.823 -34.053  1.00  0.00     0.017 A
HETATM   35  C29 UNL     1      10.394   2.249 -33.027  1.00  0.00     0.018 A
BRANCH  33  36
HETATM   36  C27 UNL     1      12.936   4.397 -34.854  1.00  0.00     0.417 C
HETATM   37  F1  UNL     1      14.206   4.718 -34.460  1.00  0.00    -0.166 F
HETATM   38  F2  UNL     1      13.014   3.537 -35.931  1.00  0.00    -0.166 F
HETATM   39  F3  UNL     1      12.332   5.552 -35.339  1.00  0.00    -0.166 F
ENDBRANCH  33  36
ENDBRANCH  27  30
ENDBRANCH  11  26
TORSDOF 6
ENDMDL