MODEL 2
REMARK VINA RESULT: -7.259623838      4.308      7.935
REMARK  8 active torsions:
REMARK  status: ('A' for Active; 'I' for Inactive)
REMARK    1  A    between atoms: C2_2  and  C4_4
REMARK    2  A    between atoms: C4_4  and  C5_6
REMARK    3  A    between atoms: C5_6  and  C6_7
REMARK    4  A    between atoms: C6_7  and  C7_8
REMARK    5  A    between atoms: C7_8  and  C9_10
REMARK    6  A    between atoms: C10_11  and  O2_12
REMARK    7  A    between atoms: C21_24  and  O3_25
REMARK    8  A    between atoms: C22_27  and  C24_29
ROOT
HETATM    1  C9  UNL     1       5.693   2.026 -25.540  1.00  0.00     0.026 C
HETATM    2  C10 UNL     1       6.955   1.194 -25.431  1.00  0.00     0.123 C
HETATM    3  C11 UNL     1       7.704   1.399 -26.723  1.00  0.00     0.038 C
HETATM    4  C12 UNL     1       6.949   2.477 -27.518  1.00  0.00     0.001 C
HETATM    5  C13 UNL     1       7.178   2.299 -28.976  1.00  0.00    -0.005 C
HETATM    6  C14 UNL     1       7.944   1.043 -29.234  1.00  0.00     0.006 C
HETATM    7  C15 UNL     1       8.384   1.101 -30.713  1.00  0.00     0.007 C
HETATM    8  C16 UNL     1       7.208   0.965 -31.611  1.00  0.00     0.013 C
HETATM    9  C17 UNL     1       6.176   2.007 -31.283  1.00  0.00    -0.035 C
HETATM   10  C18 UNL     1       4.759   1.630 -31.731  1.00  0.00     0.016 C
HETATM   11  C19 UNL     1       6.467   3.300 -32.002  1.00  0.00     0.012 C
HETATM   12  C20 UNL     1       7.747   3.458 -32.689  1.00  0.00     0.034 C
HETATM   13  C21 UNL     1       8.363   2.278 -33.351  1.00  0.00     0.135 C
HETATM   14  C22 UNL     1       7.656   0.975 -33.031  1.00  0.00     0.084 C
HETATM   15  C23 UNL     1       6.481   0.956 -34.039  1.00  0.00     0.027 C
HETATM   16  C25 UNL     1       5.946   2.218 -29.797  1.00  0.00    -0.002 C
HETATM   17  C26 UNL     1       5.042   1.216 -29.174  1.00  0.00     0.006 C
HETATM   18  C27 UNL     1       5.139   1.011 -27.702  1.00  0.00     0.010 C
HETATM   19  C28 UNL     1       5.585   2.310 -26.985  1.00  0.00    -0.034 C
HETATM   20  C29 UNL     1       4.515   3.282 -27.344  1.00  0.00     0.016 C
ENDROOT
BRANCH   1  21
HETATM   21  C7  UNL     1       5.767   3.058 -24.532  1.00  0.00    -0.011 C
HETATM   22  C8  UNL     1       4.614   3.731 -23.935  1.00  0.00     0.010 C
BRANCH  21  23
HETATM   23  C6  UNL     1       6.648   2.529 -23.410  1.00  0.00     0.012 C
BRANCH  23  24
HETATM   24  C5  UNL     1       7.677   3.451 -22.901  1.00  0.00     0.079 C
BRANCH  24  25
HETATM   25  C4  UNL     1       8.727   3.873 -23.835  1.00  0.00     0.130 C
HETATM   26  O1  UNL     1       8.620   4.968 -24.359  1.00  0.00    -0.298 OA
BRANCH  25  27
HETATM   27  C2  UNL     1       9.916   3.056 -24.188  1.00  0.00     0.047 C
HETATM   28  C1  UNL     1      10.875   2.886 -23.046  1.00  0.00     0.017 C
HETATM   29  C3  UNL     1      10.628   3.636 -25.369  1.00  0.00     0.017 C
ENDBRANCH  25  27
ENDBRANCH  24  25
ENDBRANCH  23  24
ENDBRANCH  21  23
ENDBRANCH   1  21
BRANCH   2  30
HETATM   30  O2  UNL     1       6.744  -0.114 -25.098  1.00  0.00    -0.395 OA
ATOM     31  H2  UNL     1       7.281  -0.735 -25.577  1.00  0.00     0.210 HD
ENDBRANCH   2  30
BRANCH  14  32
HETATM   32  C24 UNL     1       8.436  -0.231 -33.405  1.00  0.00     0.397 C
HETATM   33  F1  UNL     1       9.408  -0.699 -32.609  1.00  0.00    -0.170 F
HETATM   34  F2  UNL     1       7.495  -1.239 -33.734  1.00  0.00    -0.170 F
HETATM   35  F3  UNL     1       9.085  -0.078 -34.651  1.00  0.00    -0.170 F
ENDBRANCH  14  32
BRANCH  13  36
HETATM   36  O3  UNL     1       9.716   2.282 -33.051  1.00  0.00    -0.394 OA
ATOM     37  H3  UNL     1      10.167   2.742 -33.749  1.00  0.00     0.210 HD
ENDBRANCH  13  36
TORSDOF 8
ENDMDL