MODEL 3
REMARK VINA RESULT: -6.789441492      3.572      7.923
REMARK  7 active torsions:
REMARK  status: ('A' for Active; 'I' for Inactive)
REMARK    1  A    between atoms: C3_3  and  N1_4
REMARK    2  A    between atoms: N1_4  and  C4_5
REMARK    3  A    between atoms: N1_4  and  C10_14
REMARK    4  A    between atoms: C4_5  and  C5_6
REMARK       I    between atoms: C5_6  and  N2_8
REMARK    5  A    between atoms: N2_8  and  C6_10
REMARK    6  A    between atoms: C14_18  and  C16_20
REMARK    7  A    between atoms: C22_30  and  C23_31
ROOT
HETATM    1  N1  UNL     1       9.773   4.229 -28.226  1.00  0.00    -0.323 N
ENDROOT
BRANCH   1   2
HETATM    2  C3  UNL     1       8.957   3.307 -27.506  1.00  0.00     0.048 A
HETATM    3  C2  UNL     1       9.181   2.987 -26.179  1.00  0.00    -0.006 A
HETATM    4  C1  UNL     1      10.304   3.568 -25.378  1.00  0.00     0.053 C
HETATM    5  C26 UNL     1       8.378   2.092 -25.481  1.00  0.00     0.070 A
HETATM    6  C21 UNL     1       7.332   1.515 -26.151  1.00  0.00     0.083 A
HETATM    7  N4  UNL     1       8.387   1.624 -24.211  1.00  0.00    -0.343 N
HETATM    8  C20 UNL     1       7.094   1.822 -27.476  1.00  0.00     0.065 A
HETATM    9  N3  UNL     1       6.727   0.698 -25.245  1.00  0.00    -0.342 N
HETATM   10  C19 UNL     1       7.898   2.704 -28.132  1.00  0.00     0.057 A
HETATM   11 CL2  UNL     1       5.726   1.035 -28.268  1.00  0.00    -0.082 Cl
HETATM   12  C22 UNL     1       7.355   0.756 -24.074  1.00  0.00     0.086 A
ATOM     13  H3  UNL     1       5.908   0.123 -25.438  1.00  0.00     0.167 HD
ATOM     14  H4  UNL     1       9.054   1.879 -23.483  1.00  0.00     0.167 HD
BRANCH  12  15
HETATM   15  C23 UNL     1       6.976  -0.005 -22.838  1.00  0.00     0.053 A
HETATM   16  C24 UNL     1       6.946   0.846 -21.533  1.00  0.00     0.013 A
HETATM   17  C25 UNL     1       8.072  -0.081 -21.792  1.00  0.00     0.013 A
ENDBRANCH  12  15
ENDBRANCH   1   2
BRANCH   1  18
HETATM   18  C4  UNL     1       9.752   5.570 -27.706  1.00  0.00     0.171 C
BRANCH  18  19
HETATM   19  C5  UNL     1      10.734   6.532 -28.076  1.00  0.00     0.257 C
HETATM   20  O1  UNL     1      10.510   7.572 -28.724  1.00  0.00    -0.267 OA
HETATM   21  N2  UNL     1      12.120   6.357 -27.711  1.00  0.00    -0.348 N
ATOM     22  H2  UNL     1      12.377   5.527 -27.176  1.00  0.00     0.163 HD
BRANCH  21  23
HETATM   23  C6  UNL     1      13.152   7.281 -28.057  1.00  0.00     0.022 C
HETATM   24  C7  UNL     1      12.860   8.708 -27.648  1.00  0.00     0.037 C
HETATM   25  C8  UNL     1      14.446   6.885 -27.339  1.00  0.00     0.037 C
HETATM   26  C9  UNL     1      13.479   7.253 -29.524  1.00  0.00     0.037 C
ENDBRANCH  21  23
ENDBRANCH  18  19
ENDBRANCH   1  18
BRANCH   1  27
HETATM   27  C10 UNL     1      10.552   3.980 -29.372  1.00  0.00     0.004 C
HETATM   28  C11 UNL     1      11.693   2.976 -29.118  1.00  0.00     0.054 C
HETATM   29  C12 UNL     1      12.515   3.282 -30.371  1.00  0.00     0.007 C
HETATM   30  C13 UNL     1      11.659   4.038 -31.320  1.00  0.00     0.017 C
HETATM   31  C14 UNL     1      10.214   3.788 -30.736  1.00  0.00     0.016 C
HETATM   32  C15 UNL     1       9.447   5.012 -31.273  1.00  0.00     0.023 C
BRANCH  31  33
HETATM   33  C16 UNL     1       9.731   2.630 -31.438  1.00  0.00     0.042 C
HETATM   34  C17 UNL     1       8.349   2.803 -32.009  1.00  0.00     0.033 C
HETATM   35  C18 UNL     1      10.555   2.375 -32.728  1.00  0.00     0.033 C
HETATM   36 CL1  UNL     1       9.768   1.072 -30.625  1.00  0.00    -0.119 Cl
ENDBRANCH  31  33
ENDBRANCH   1  27
TORSDOF 7
ENDMDL