MODEL 1
REMARK VINA RESULT: -6.635145835      0.000      0.000
REMARK  11 active torsions:
REMARK  status: ('A' for Active; 'I' for Inactive)
REMARK    1  A    between atoms: C2_2  and  C3_3
REMARK    2  A    between atoms: C3_3  and  C4_4
REMARK    3  A    between atoms: C7_7  and  S1_8
REMARK    4  A    between atoms: S1_8  and  C8_9
REMARK    5  A    between atoms: C8_9  and  N2_18
REMARK    6  A    between atoms: N1_10  and  C9_12
REMARK    7  A    between atoms: N2_18  and  C15_20
REMARK    8  A    between atoms: C15_20  and  C16_21
REMARK    9  A    between atoms: N3_29  and  C21_30
REMARK   10  A    between atoms: C21_30  and  N4_32
REMARK   11  A    between atoms: N4_32  and  C22_34
ROOT
HETATM    1  C4  UNL     1       8.752   2.372 -30.030  1.00  0.00     0.036 C
HETATM    2  C5  UNL     1       7.849   2.642 -31.235  1.00  0.00     0.039 C
HETATM    3  C6  UNL     1       7.964   1.345 -29.179  1.00  0.00     0.046 C
HETATM    4  C7  UNL     1       6.592   1.872 -29.130  1.00  0.00     0.060 C
HETATM    5  C17 UNL     1       6.545   3.282 -28.722  1.00  0.00     0.046 C
HETATM    6  C18 UNL     1       7.770   4.120 -28.657  1.00  0.00     0.029 C
HETATM    7  C19 UNL     1       7.441   5.466 -29.225  1.00  0.00     0.038 C
HETATM    8  C20 UNL     1       7.973   4.305 -27.135  1.00  0.00     0.038 C
HETATM    9  N3  UNL     1       9.006   3.528 -29.220  1.00  0.00    -0.340 N
ENDROOT
BRANCH   4  10
HETATM   10  S1  UNL     1       5.400   0.895 -28.171  1.00  0.00    -0.089 SA
BRANCH  10  11
HETATM   11  C8  UNL     1       5.606   1.279 -26.412  1.00  0.00     0.141 C
HETATM   12  N1  UNL     1       6.559   0.805 -25.816  1.00  0.00    -0.337 N
ATOM     13  H1  UNL     1       7.113   0.222 -26.445  1.00  0.00     0.168 HD
BRANCH  12  14
HETATM   14  C9  UNL     1       7.125   0.812 -24.548  1.00  0.00     0.034 A
HETATM   15  C10 UNL     1       6.801  -0.197 -23.659  1.00  0.00     0.029 A
HETATM   16  C11 UNL     1       7.333  -0.251 -22.395  1.00  0.00     0.002 A
HETATM   17  C12 UNL     1       8.207   0.721 -22.005  1.00  0.00     0.000 A
HETATM   18  C13 UNL     1       8.567   1.754 -22.858  1.00  0.00     0.002 A
HETATM   19  C14 UNL     1       7.995   1.756 -24.127  1.00  0.00     0.029 A
ENDBRANCH  12  14
BRANCH  11  20
HETATM   20  N2  UNL     1       4.561   1.999 -25.827  1.00  0.00    -0.362 N
ATOM     21  H2  UNL     1       3.691   1.503 -25.638  1.00  0.00     0.161 HD
BRANCH  20  22
HETATM   22  C15 UNL     1       4.631   3.403 -25.472  1.00  0.00     0.239 C
BRANCH  22  23
HETATM   23  C16 UNL     1       4.807   3.673 -24.026  1.00  0.00     0.403 C
HETATM   24  F1  UNL     1       5.976   4.271 -23.679  1.00  0.00    -0.169 F
HETATM   25  F2  UNL     1       4.687   2.524 -23.277  1.00  0.00    -0.169 F
HETATM   26  F3  UNL     1       3.759   4.516 -23.630  1.00  0.00    -0.169 F
ENDBRANCH  22  23
ENDBRANCH  20  22
ENDBRANCH  11  20
ENDBRANCH  10  11
ENDBRANCH   4  10
BRANCH   1  27
HETATM   27  C3  UNL     1       9.863   1.594 -30.662  1.00  0.00     0.057 C
BRANCH  27  28
HETATM   28  C2  UNL     1       9.997   1.751 -32.118  1.00  0.00    -0.034 C
HETATM   29  C1  UNL     1      10.150   0.716 -32.934  1.00  0.00     0.007 C
ENDBRANCH  27  28
ENDBRANCH   1  27
BRANCH   9  30
HETATM   30  C21 UNL     1      10.249   3.963 -28.742  1.00  0.00     0.171 C
HETATM   31  S2  UNL     1      11.092   5.028 -29.845  1.00  0.00    -0.041 SA
BRANCH  30  32
HETATM   32  N4  UNL     1      11.130   3.713 -27.702  1.00  0.00    -0.363 N
ATOM     33  H4  UNL     1      11.473   2.755 -27.785  1.00  0.00     0.162 HD
BRANCH  32  34
HETATM   34  C22 UNL     1      11.716   4.306 -26.577  1.00  0.00     0.075 C
HETATM   35  C23 UNL     1      13.239   4.027 -26.584  1.00  0.00     0.032 C
HETATM   36  C24 UNL     1      11.233   3.576 -25.303  1.00  0.00     0.032 C
ENDBRANCH  32  34
ENDBRANCH  30  32
ENDBRANCH   9  30
TORSDOF 11
ENDMDL