MODEL 5
REMARK VINA RESULT: -7.969827654      6.142     10.103
REMARK  5 active torsions:
REMARK  status: ('A' for Active; 'I' for Inactive)
REMARK    1  A    between atoms: C4_4  and  N1_5
REMARK       I    between atoms: N1_5  and  C5_7
REMARK    2  A    between atoms: C5_7  and  C6_9
REMARK    3  A    between atoms: C8_11  and  C9_12
REMARK    4  A    between atoms: C16_26  and  C17_27
REMARK    5  A    between atoms: C16_26  and  C23_34
ROOT
HETATM    1  C1  UNL     1       6.582   5.521 -25.667  1.00  0.00     0.011 C
HETATM    2  C2  UNL     1       6.611   4.716 -24.414  1.00  0.00     0.001 C
HETATM    3  C3  UNL     1       5.172   4.719 -23.877  1.00  0.00     0.057 C
HETATM    4  C4  UNL     1       4.318   4.048 -24.902  1.00  0.00    -0.010 C
HETATM    5  C14 UNL     1       4.705   2.649 -25.172  1.00  0.00     0.053 C
HETATM    6  C15 UNL     1       6.146   2.566 -25.685  1.00  0.00     0.021 C
HETATM    7  C16 UNL     1       7.092   3.246 -24.710  1.00  0.00    -0.001 C
ENDROOT
BRANCH   4   8
HETATM    8  N1  UNL     1       2.926   4.296 -24.820  1.00  0.00    -0.330 N
HETATM    9  C5  UNL     1       2.236   5.493 -25.116  1.00  0.00     0.256 C
HETATM   10  O1  UNL     1       2.852   6.547 -25.416  1.00  0.00    -0.267 OA
ATOM     11  H1  UNL     1       2.351   3.514 -24.508  1.00  0.00     0.168 HD
BRANCH   9  12
HETATM   12  C6  UNL     1       0.763   5.563 -25.105  1.00  0.00     0.047 A
HETATM   13  C7  UNL     1       0.214   6.019 -23.917  1.00  0.00     0.034 A
HETATM   14  C8  UNL     1      -1.158   5.963 -23.754  1.00  0.00     0.051 A
HETATM   15  C10 UNL     1      -1.937   5.461 -24.776  1.00  0.00     0.048 A
HETATM   16  C11 UNL     1      -1.370   5.015 -25.957  1.00  0.00     0.061 A
HETATM   17  N2  UNL     1      -1.841   4.483 -27.100  1.00  0.00    -0.300 N
HETATM   18  C13 UNL     1       0.035   5.061 -26.146  1.00  0.00     0.025 A
HETATM   19  N3  UNL     1      -0.850   4.213 -27.946  1.00  0.00    -0.311 N
ATOM     20  H2  UNL     1      -2.827   4.309 -27.292  1.00  0.00     0.187 HD
HETATM   21  C12 UNL     1       0.315   4.551 -27.401  1.00  0.00     0.121 A
ATOM     22  H3  UNL     1      -0.967   3.808 -28.875  1.00  0.00     0.186 HD
BRANCH  14  23
HETATM   23  C9  UNL     1      -1.817   6.415 -22.514  1.00  0.00     0.417 C
HETATM   24  F1  UNL     1      -1.872   5.287 -21.679  1.00  0.00    -0.166 F
HETATM   25  F2  UNL     1      -1.127   7.456 -21.955  1.00  0.00    -0.166 F
HETATM   26  F3  UNL     1      -3.142   6.751 -22.761  1.00  0.00    -0.166 F
ENDBRANCH  14  23
ENDBRANCH   9  12
ENDBRANCH   4   8
BRANCH   7  27
HETATM   27  C17 UNL     1       7.094   2.571 -23.399  1.00  0.00     0.068 C
HETATM   28  N4  UNL     1       6.958   1.254 -23.095  1.00  0.00    -0.393 N
HETATM   29  C18 UNL     1       6.725   1.085 -21.610  1.00  0.00     0.122 C
HETATM   30  C22 UNL     1       7.689   0.133 -23.467  1.00  0.00     0.122 C
HETATM   31  C19 UNL     1       7.900   0.445 -20.946  1.00  0.00     0.020 C
HETATM   32  C20 UNL     1       7.839  -1.039 -21.294  1.00  0.00     0.003 C
HETATM   33  C21 UNL     1       7.224  -1.124 -22.659  1.00  0.00     0.020 C
ENDBRANCH   7  27
BRANCH   7  34
HETATM   34  C23 UNL     1       8.397   3.487 -25.358  1.00  0.00    -0.001 C
HETATM   35  C24 UNL     1       8.902   2.620 -26.438  1.00  0.00     0.006 C
HETATM   36  C25 UNL     1       9.779   3.533 -27.333  1.00  0.00     0.000 C
HETATM   37  C26 UNL     1      10.931   4.024 -26.467  1.00  0.00     0.000 C
HETATM   38  C27 UNL     1      10.887   3.525 -25.054  1.00  0.00     0.000 C
HETATM   39  C28 UNL     1       9.545   3.748 -24.377  1.00  0.00     0.006 C
ENDBRANCH   7  34
TORSDOF 5
ENDMDL