MODEL 4
REMARK VINA RESULT: -7.430480039      5.159     11.043
REMARK  8 active torsions:
REMARK  status: ('A' for Active; 'I' for Inactive)
REMARK    1  A    between atoms: C2_2  and  O1_5
REMARK    2  A    between atoms: O1_5  and  C5_6
REMARK       I    between atoms: C5_6  and  N1_8
REMARK    3  A    between atoms: N1_8  and  C6_10
REMARK    4  A    between atoms: C9_13  and  C10_14
REMARK    5  A    between atoms: C10_14  and  C11_15
REMARK    6  A    between atoms: C11_15  and  N2_16
REMARK    7  A    between atoms: C14_19  and  C15_20
REMARK    8  A    between atoms: C23_30  and  C24_31
ROOT
HETATM    1  N2  UNL     1      10.136   2.555 -31.641  1.00  0.00     0.088 N
HETATM    2  C12 UNL     1       8.709   2.182 -31.725  1.00  0.00     0.273 C
HETATM    3  C13 UNL     1       8.651   0.687 -32.051  1.00  0.00     0.039 C
HETATM    4  C14 UNL     1       9.071   0.592 -33.510  1.00  0.00     0.024 C
HETATM    5  C25 UNL     1      10.503   1.132 -33.528  1.00  0.00     0.039 C
HETATM    6  C26 UNL     1      10.562   2.554 -33.051  1.00  0.00     0.273 C
ENDROOT
BRANCH   1   7
HETATM    7  C11 UNL     1      10.251   3.890 -31.078  1.00  0.00     0.272 C
BRANCH   7   8
HETATM    8  C10 UNL     1      11.099   3.859 -29.858  1.00  0.00     0.034 C
BRANCH   8   9
HETATM    9  C9  UNL     1      10.279   3.890 -28.575  1.00  0.00    -0.013 C
HETATM   10  C8  UNL     1      11.164   4.368 -27.475  1.00  0.00     0.007 C
HETATM   11  C7  UNL     1      10.852   3.730 -26.142  1.00  0.00     0.026 C
HETATM   12  C6  UNL     1       9.366   3.482 -25.975  1.00  0.00     0.086 C
HETATM   13  C28 UNL     1       8.873   2.533 -27.016  1.00  0.00     0.026 C
HETATM   14  C27 UNL     1       9.639   2.557 -28.302  1.00  0.00     0.007 C
BRANCH  12  15
HETATM   15  N1  UNL     1       9.183   2.855 -24.679  1.00  0.00    -0.332 N
HETATM   16  C5  UNL     1       7.931   2.876 -24.018  1.00  0.00     0.361 C
HETATM   17  O2  UNL     1       6.968   3.455 -24.572  1.00  0.00    -0.238 OA
ATOM     18  H1  UNL     1       9.974   2.389 -24.234  1.00  0.00     0.165 HD
BRANCH  16  19
HETATM   19  O1  UNL     1       7.797   2.263 -22.782  1.00  0.00    -0.294 OA
BRANCH  19  20
HETATM   20  C2  UNL     1       7.183   1.006 -22.627  1.00  0.00     0.061 C
HETATM   21  C1  UNL     1       7.740   0.358 -21.366  1.00  0.00     0.046 C
HETATM   22  C3  UNL     1       5.690   1.128 -22.400  1.00  0.00     0.046 C
HETATM   23  C4  UNL     1       7.403   0.090 -23.805  1.00  0.00     0.046 C
ENDBRANCH  19  20
ENDBRANCH  16  19
ENDBRANCH  12  15
ENDBRANCH   8   9
ENDBRANCH   7   8
ENDBRANCH   1   7
BRANCH   4  24
HETATM   24  C15 UNL     1       9.140  -0.817 -33.966  1.00  0.00    -0.030 A
HETATM   25  C16 UNL     1      10.251  -1.654 -34.065  1.00  0.00     0.096 A
HETATM   26  N3  UNL     1       9.862  -2.850 -34.537  1.00  0.00    -0.368 N
HETATM   27  C17 UNL     1       8.535  -2.850 -34.757  1.00  0.00     0.025 A
ATOM     28  H3  UNL     1      10.482  -3.642 -34.704  1.00  0.00     0.165 HD
HETATM   29  C18 UNL     1       8.076  -1.582 -34.403  1.00  0.00    -0.027 A
HETATM   30  C23 UNL     1       7.784  -4.030 -35.279  1.00  0.00     0.101 C
HETATM   31  C19 UNL     1       6.695  -1.101 -34.452  1.00  0.00     0.041 C
HETATM   32  C20 UNL     1       6.064  -1.157 -35.815  1.00  0.00     0.005 C
HETATM   33  C21 UNL     1       6.344  -2.466 -36.500  1.00  0.00     0.001 C
HETATM   34  C22 UNL     1       6.353  -3.612 -35.544  1.00  0.00     0.016 C
BRANCH  30  35
HETATM   35  C24 UNL     1       7.815  -5.161 -34.301  1.00  0.00     0.363 C
HETATM   36  F1  UNL     1       8.230  -4.779 -33.061  1.00  0.00    -0.214 F
HETATM   37  F2  UNL     1       6.550  -5.750 -34.289  1.00  0.00    -0.214 F
ENDBRANCH  30  35
ENDBRANCH   4  24
TORSDOF 8
ENDMDL