MODEL 4
REMARK VINA RESULT: -6.593918127      4.726      8.009
REMARK  7 active torsions:
REMARK  status: ('A' for Active; 'I' for Inactive)
REMARK    1  A    between atoms: C16_17  and  C17_18
REMARK    2  A    between atoms: C16_17  and  C23_28
REMARK    3  A    between atoms: C17_18  and  C18_19
REMARK    4  A    between atoms: C18_19  and  C19_20
REMARK    5  A    between atoms: C19_20  and  O2_21
REMARK    6  A    between atoms: C19_20  and  C20_23
REMARK    7  A    between atoms: C20_23  and  C22_26
ROOT
HETATM    1  C1  UNL     1      12.807   3.934 -25.375  1.00  0.00     0.023 C
HETATM    2  C2  UNL     1      12.382   3.889 -26.618  1.00  0.00    -0.016 C
HETATM    3  C3  UNL     1      13.321   3.754 -27.766  1.00  0.00     0.155 C
HETATM    4  O1  UNL     1      14.570   3.887 -27.747  1.00  0.00    -0.293 OA
HETATM    5  C4  UNL     1      12.502   3.418 -28.995  1.00  0.00     0.093 C
HETATM    6  C5  UNL     1      11.305   2.847 -28.327  1.00  0.00     0.030 C
HETATM    7  C6  UNL     1      10.124   2.561 -29.101  1.00  0.00    -0.082 C
HETATM    8  C7  UNL     1      10.236   1.750 -30.335  1.00  0.00     0.043 C
HETATM    9  C8  UNL     1       8.940   3.001 -28.740  1.00  0.00    -0.018 C
HETATM   10  C9  UNL     1       8.755   3.800 -27.547  1.00  0.00     0.022 C
HETATM   11  C10 UNL     1       9.882   3.481 -26.545  1.00  0.00     0.003 C
HETATM   12  C11 UNL     1       9.427   4.185 -25.334  1.00  0.00     0.012 C
HETATM   13  C12 UNL     1       7.942   4.316 -25.439  1.00  0.00     0.003 C
HETATM   14  C13 UNL     1       7.528   3.680 -26.765  1.00  0.00    -0.032 C
HETATM   15  C14 UNL     1       6.453   4.537 -27.451  1.00  0.00     0.016 C
HETATM   16  C15 UNL     1       7.036   2.333 -26.398  1.00  0.00     0.026 C
HETATM   17  C16 UNL     1       6.582   2.357 -24.956  1.00  0.00     0.027 C
HETATM   18  C24 UNL     1       7.136   3.631 -24.383  1.00  0.00    -0.030 C
HETATM   19  C25 UNL     1       7.819   3.499 -23.064  1.00  0.00     0.016 C
HETATM   20  C26 UNL     1       5.981   4.615 -24.082  1.00  0.00     0.016 C
HETATM   21  C27 UNL     1      11.079   3.943 -27.256  1.00  0.00     0.035 C
ENDROOT
BRANCH  17  22
HETATM   22  C17 UNL     1       5.072   2.372 -24.878  1.00  0.00     0.018 C
BRANCH  22  23
HETATM   23  C18 UNL     1       4.369   1.818 -26.070  1.00  0.00     0.034 C
BRANCH  23  24
HETATM   24  C19 UNL     1       3.278   2.837 -26.449  1.00  0.00     0.142 C
BRANCH  24  25
HETATM   25  O2  UNL     1       2.732   3.393 -25.318  1.00  0.00    -0.394 OA
ATOM     26  H2  UNL     1       1.876   3.019 -25.147  1.00  0.00     0.210 HD
ENDBRANCH  24  25
BRANCH  24  27
HETATM   27  C20 UNL     1       2.192   2.097 -27.234  1.00  0.00     0.068 C
HETATM   28  C21 UNL     1       1.466   3.104 -28.107  1.00  0.00     0.036 C
HETATM   29 CL1  UNL     1       3.000   0.858 -28.222  1.00  0.00    -0.116 Cl
BRANCH  27  30
HETATM   30  C22 UNL     1       1.217   1.475 -26.298  1.00  0.00     0.114 C
HETATM   31  S1  UNL     1      -0.091   0.680 -27.301  1.00  0.00    -0.096 SA
ENDBRANCH  27  30
ENDBRANCH  24  27
ENDBRANCH  23  24
ENDBRANCH  22  23
ENDBRANCH  17  22
BRANCH  17  32
HETATM   32  C23 UNL     1       7.064   1.114 -24.296  1.00  0.00     0.362 C
HETATM   33  F1  UNL     1       7.803   0.304 -25.139  1.00  0.00    -0.214 F
HETATM   34  F2  UNL     1       6.094   0.391 -23.624  1.00  0.00    -0.214 F
ENDBRANCH  17  32
TORSDOF 7
ENDMDL