MODEL 1
REMARK VINA RESULT: -7.241072280      0.000      0.000
REMARK  7 active torsions:
REMARK  status: ('A' for Active; 'I' for Inactive)
REMARK    1  A    between atoms: C2_2  and  C5_5
REMARK    2  A    between atoms: C5_5  and  C6_6
REMARK    3  A    between atoms: C5_5  and  N2_11
REMARK    4  A    between atoms: C6_6  and  N1_7
REMARK       I    between atoms: N2_11  and  C7_13
REMARK    5  A    between atoms: C7_13  and  C8_15
REMARK    6  A    between atoms: C19_26  and  O2_27
REMARK    7  A    between atoms: O2_27  and  C20_28
ROOT
HETATM    1  C8  UNL     1       8.271   5.125 -29.358  1.00  0.00     0.086 C
HETATM    2  C9  UNL     1       7.584   6.435 -29.144  1.00  0.00     0.015 C
HETATM    3  C10 UNL     1       7.851   7.089 -27.831  1.00  0.00     0.002 C
HETATM    4  C11 UNL     1       8.172   6.227 -26.677  1.00  0.00     0.010 C
HETATM    5  C12 UNL     1       7.886   4.751 -26.939  1.00  0.00    -0.032 C
HETATM    6  C13 UNL     1       6.415   4.691 -27.336  1.00  0.00     0.016 C
HETATM    7  C14 UNL     1       8.095   3.905 -25.747  1.00  0.00     0.003 C
HETATM    8  C15 UNL     1       8.974   4.410 -24.669  1.00  0.00     0.010 C
HETATM    9  C16 UNL     1       9.406   3.339 -23.710  1.00  0.00     0.039 C
HETATM   10  C17 UNL     1       8.533   2.139 -23.686  1.00  0.00    -0.049 A
HETATM   11  C18 UNL     1       8.209   1.507 -22.496  1.00  0.00     0.044 A
HETATM   12  C19 UNL     1       7.403   0.396 -22.554  1.00  0.00     0.078 A
HETATM   13  C21 UNL     1       6.912  -0.099 -23.769  1.00  0.00     0.037 A
HETATM   14  C22 UNL     1       7.263   0.567 -24.926  1.00  0.00     0.011 A
HETATM   15  C23 UNL     1       8.066   1.676 -24.900  1.00  0.00    -0.047 A
HETATM   16  C24 UNL     1       8.498   2.470 -26.068  1.00  0.00     0.024 C
HETATM   17  C25 UNL     1       7.945   2.086 -27.379  1.00  0.00     0.010 C
HETATM   18  C26 UNL     1       8.638   2.892 -28.446  1.00  0.00     0.011 C
HETATM   19  C27 UNL     1       8.715   4.381 -28.149  1.00  0.00    -0.024 C
HETATM   20  C28 UNL     1      10.179   4.701 -27.958  1.00  0.00     0.017 C
ENDROOT
BRANCH   1  21
HETATM   21  C7  UNL     1       9.309   5.210 -30.419  1.00  0.00     0.223 C
HETATM   22  N2  UNL     1       9.720   4.073 -31.184  1.00  0.00    -0.354 N
ATOM     23  H2  UNL     1       9.287   3.168 -31.001  1.00  0.00     0.162 HD
HETATM   24  O1  UNL     1       9.888   6.303 -30.702  1.00  0.00    -0.273 OA
BRANCH  22  25
HETATM   25  C5  UNL     1      10.733   4.174 -32.208  1.00  0.00     0.117 C
BRANCH  25  26
HETATM   26  C2  UNL     1      10.557   3.260 -33.369  1.00  0.00    -0.029 C
HETATM   27  C1  UNL     1      11.604   3.358 -34.423  1.00  0.00     0.016 C
HETATM   28  C3  UNL     1       9.208   3.428 -34.047  1.00  0.00     0.016 C
HETATM   29  C4  UNL     1      10.560   1.830 -32.819  1.00  0.00     0.016 C
ENDBRANCH  25  26
BRANCH  25  30
HETATM   30  C6  UNL     1      12.041   3.755 -31.500  1.00  0.00     0.255 C
BRANCH  30  31
HETATM   31  N1  UNL     1      12.768   4.989 -31.227  1.00  0.00    -0.077 N
ATOM     32  H13 UNL     1      12.383   5.802 -31.708  1.00  0.00     0.274 HD
ATOM     33  H12 UNL     1      12.637   5.335 -30.276  1.00  0.00     0.274 HD
ATOM     34  H11 UNL     1      13.743   4.802 -31.462  1.00  0.00     0.274 HD
ENDBRANCH  30  31
ENDBRANCH  25  30
ENDBRANCH  22  25
ENDBRANCH   1  21
BRANCH  12  35
HETATM   35  O2  UNL     1       7.077  -0.241 -21.351  1.00  0.00    -0.255 OA
BRANCH  35  36
HETATM   36  C20 UNL     1       8.025  -1.201 -20.879  1.00  0.00     0.530 C
HETATM   37  F1  UNL     1       8.988  -1.462 -21.857  1.00  0.00    -0.144 F
HETATM   38  F2  UNL     1       7.434  -2.398 -20.565  1.00  0.00    -0.144 F
HETATM   39  F3  UNL     1       8.692  -0.729 -19.768  1.00  0.00    -0.144 F
ENDBRANCH  35  36
ENDBRANCH  12  35
TORSDOF 7
ENDMDL