MODEL 4
REMARK VINA RESULT: -7.085076489      3.103      5.208
REMARK  8 active torsions:
REMARK  status: ('A' for Active; 'I' for Inactive)
REMARK    1  A    between atoms: O1_2  and  C2_3
REMARK    2  A    between atoms: C2_3  and  C3_5
REMARK    3  A    between atoms: C7_11  and  C8_12
REMARK    4  A    between atoms: C11_18  and  C12_19
REMARK    5  A    between atoms: C11_18  and  C17_24
REMARK    6  A    between atoms: C12_19  and  C13_20
REMARK    7  A    between atoms: C13_20  and  C14_21
REMARK    8  A    between atoms: C23_30  and  N2_31
REMARK       I    between atoms: N2_31  and  C24_33
ROOT
HETATM    1  C3  UNL     1       7.315   3.225 -23.983  1.00  0.00     0.196 C
HETATM    2  N1  UNL     1       8.655   2.947 -23.453  1.00  0.00    -0.375 N
ATOM      3  H1  UNL     1       8.926   2.666 -22.510  1.00  0.00     0.160 HD
HETATM    4  C4  UNL     1       9.479   3.171 -24.591  1.00  0.00     0.036 A
HETATM    5  C5  UNL     1      10.808   3.614 -24.635  1.00  0.00     0.030 A
HETATM    6  C6  UNL     1      11.402   3.754 -25.873  1.00  0.00     0.018 A
HETATM    7  C7  UNL     1      10.734   3.474 -27.038  1.00  0.00     0.048 A
HETATM    8  C9  UNL     1       9.407   3.035 -26.911  1.00  0.00     0.026 A
HETATM    9  C10 UNL     1       8.768   2.878 -25.736  1.00  0.00    -0.019 A
HETATM   10  C11 UNL     1       7.409   2.411 -25.253  1.00  0.00     0.026 C
ENDROOT
BRANCH  10  11
HETATM   11  C12 UNL     1       7.750   1.002 -24.812  1.00  0.00     0.018 C
BRANCH  11  12
HETATM   12  C13 UNL     1       6.912   0.318 -23.824  1.00  0.00     0.006 C
BRANCH  12  13
HETATM   13  C14 UNL     1       7.924  -0.242 -22.776  1.00  0.00    -0.014 A
HETATM   14  C15 UNL     1       7.822   0.377 -21.405  1.00  0.00     0.005 A
HETATM   15  C16 UNL     1       7.458  -1.095 -21.685  1.00  0.00     0.005 A
ENDBRANCH  12  13
ENDBRANCH  11  12
ENDBRANCH  10  11
BRANCH  10  16
HETATM   16  C17 UNL     1       6.312   2.554 -26.215  1.00  0.00    -0.023 C
HETATM   17  C18 UNL     1       4.978   1.979 -25.713  1.00  0.00     0.015 C
HETATM   18  C19 UNL     1       3.956   1.825 -26.787  1.00  0.00    -0.011 C
HETATM   19  C20 UNL     1       3.565   3.258 -27.194  1.00  0.00     0.009 C
HETATM   20  C26 UNL     1       4.382   1.069 -28.003  1.00  0.00     0.035 C
HETATM   21  C21 UNL     1       4.808   3.871 -27.715  1.00  0.00    -0.011 C
HETATM   22  C22 UNL     1       5.307   3.150 -28.941  1.00  0.00     0.035 C
HETATM   23  C28 UNL     1       5.967   3.910 -26.726  1.00  0.00     0.015 C
HETATM   24  C23 UNL     1       5.616   1.720 -28.520  1.00  0.00     0.034 C
HETATM   25  C27 UNL     1       6.666   1.687 -27.442  1.00  0.00     0.041 C
BRANCH  24  26
HETATM   26  N2  UNL     1       6.121   1.006 -29.655  1.00  0.00    -0.352 N
HETATM   27  C24 UNL     1       7.277   1.347 -30.387  1.00  0.00     0.214 C
HETATM   28  C25 UNL     1       7.674   0.489 -31.569  1.00  0.00     0.117 C
HETATM   29  O3  UNL     1       8.022   2.314 -30.145  1.00  0.00    -0.274 OA
ATOM     30  H2  UNL     1       5.601   0.183 -29.959  1.00  0.00     0.163 HD
ENDBRANCH  24  26
ENDBRANCH  10  16
BRANCH   1  31
HETATM   31  C2  UNL     1       7.309   4.675 -24.082  1.00  0.00     0.282 C
HETATM   32  O2  UNL     1       8.282   5.383 -24.403  1.00  0.00    -0.263 OA
BRANCH  31  33
HETATM   33  O1  UNL     1       6.138   5.356 -23.792  1.00  0.00    -0.325 OA
HETATM   34  C1  UNL     1       5.877   6.702 -24.028  1.00  0.00     0.213 C
ENDBRANCH  31  33
ENDBRANCH   1  31
BRANCH   7  35
HETATM   35  C8  UNL     1      11.349   3.615 -28.376  1.00  0.00     0.417 C
HETATM   36  F1  UNL     1      12.704   3.775 -28.320  1.00  0.00    -0.166 F
HETATM   37  F2  UNL     1      10.732   4.635 -29.104  1.00  0.00    -0.166 F
HETATM   38  F3  UNL     1      11.111   2.447 -29.111  1.00  0.00    -0.166 F
ENDBRANCH   7  35
TORSDOF 8
ENDMDL