MODEL 1
REMARK VINA RESULT: -8.674953219      0.000      0.000
REMARK  7 active torsions:
REMARK  status: ('A' for Active; 'I' for Inactive)
REMARK    1  A    between atoms: C9_9  and  O1_10
REMARK    2  A    between atoms: O1_10  and  C10_11
REMARK    3  A    between atoms: C10_11  and  C11_12
REMARK    4  A    between atoms: C11_12  and  C12_13
REMARK    5  A    between atoms: C13_14  and  C14_15
REMARK    6  A    between atoms: C24_29  and  C25_30
REMARK    7  A    between atoms: C29_37  and  O2_38
ROOT
HETATM    1  C12 UNL     1       9.172   3.102 -25.973  1.00  0.00     0.002 A
HETATM    2  C13 UNL     1       9.176   2.572 -24.707  1.00  0.00     0.043 A
HETATM    3  N1  UNL     1      10.371   2.982 -24.144  1.00  0.00    -0.303 N
ATOM      4  H1  UNL     1      10.664   2.740 -23.198  1.00  0.00     0.186 HD
HETATM    5  N2  UNL     1      11.068   3.702 -24.946  1.00  0.00    -0.296 N
ATOM      6  H2  UNL     1      11.980   4.113 -24.745  1.00  0.00     0.187 HD
HETATM    7  C24 UNL     1      10.376   3.819 -26.111  1.00  0.00     0.140 A
ENDROOT
BRANCH   1   8
HETATM    8  C11 UNL     1       8.218   2.967 -27.059  1.00  0.00     0.070 C
BRANCH   8   9
HETATM    9  C10 UNL     1       8.381   1.766 -27.960  1.00  0.00     0.180 C
BRANCH   9  10
HETATM   10  O1  UNL     1       7.267   1.281 -28.541  1.00  0.00    -0.350 OA
BRANCH  10  11
HETATM   11  C9  UNL     1       6.632   1.330 -29.717  1.00  0.00     0.076 A
HETATM   12  C4  UNL     1       5.246   1.513 -29.842  1.00  0.00    -0.008 A
HETATM   13  C2  UNL     1       4.543   1.619 -28.573  1.00  0.00     0.009 C
HETATM   14  C5  UNL     1       4.668   1.558 -31.121  1.00  0.00    -0.048 A
HETATM   15  C1  UNL     1       4.062   3.034 -28.293  1.00  0.00     0.023 C
HETATM   16  C3  UNL     1       5.213   1.128 -27.330  1.00  0.00     0.023 C
HETATM   17  C29 UNL     1       3.297   0.702 -28.683  1.00  0.00     0.130 C
HETATM   18  C28 UNL     1       2.183   1.290 -29.454  1.00  0.00     0.033 C
HETATM   19  C27 UNL     1       2.346   0.790 -30.901  1.00  0.00     0.007 C
HETATM   20  C26 UNL     1       3.270   1.775 -31.548  1.00  0.00     0.039 C
HETATM   21  C6  UNL     1       5.461   1.419 -32.237  1.00  0.00     0.008 A
HETATM   22  C7  UNL     1       6.818   1.236 -32.160  1.00  0.00     0.003 A
HETATM   23  C8  UNL     1       7.366   1.197 -30.901  1.00  0.00     0.037 A
BRANCH  17  24
HETATM   24  O2  UNL     1       3.718  -0.536 -29.099  1.00  0.00    -0.394 OA
ATOM     25  H2  UNL     1       3.485  -1.167 -28.428  1.00  0.00     0.210 HD
ENDBRANCH  17  24
ENDBRANCH  10  11
ENDBRANCH   9  10
ENDBRANCH   8   9
ENDBRANCH   1   8
BRANCH   2  26
HETATM   26  C14 UNL     1       8.122   1.827 -24.005  1.00  0.00     0.005 C
HETATM   27  C15 UNL     1       6.990   2.695 -23.492  1.00  0.00     0.020 C
HETATM   28  C16 UNL     1       5.999   1.872 -22.741  1.00  0.00    -0.013 C
HETATM   29  C17 UNL     1       6.628   1.513 -21.414  1.00  0.00     0.009 C
HETATM   30  C21 UNL     1       5.550   0.623 -23.416  1.00  0.00     0.009 C
HETATM   31  C18 UNL     1       7.881   0.749 -21.722  1.00  0.00    -0.013 C
HETATM   32  C19 UNL     1       7.482  -0.592 -22.352  1.00  0.00     0.009 C
HETATM   33  C23 UNL     1       8.813   1.389 -22.677  1.00  0.00     0.020 C
HETATM   34  C20 UNL     1       6.802  -0.235 -23.634  1.00  0.00    -0.013 C
HETATM   35  C22 UNL     1       7.667   0.550 -24.598  1.00  0.00     0.020 C
ENDBRANCH   2  26
BRANCH   7  36
HETATM   36  C25 UNL     1      10.851   4.616 -27.261  1.00  0.00     0.434 C
HETATM   37  F1  UNL     1      12.145   5.079 -26.984  1.00  0.00    -0.165 F
HETATM   38  F2  UNL     1      10.104   5.781 -27.435  1.00  0.00    -0.165 F
HETATM   39  F3  UNL     1      10.940   3.979 -28.448  1.00  0.00    -0.165 F
ENDBRANCH   7  36
TORSDOF 7
ENDMDL