MODEL 4
REMARK VINA RESULT: -7.037157836      3.056      4.566
REMARK  16 active torsions:
REMARK  status: ('A' for Active; 'I' for Inactive)
REMARK    1  A    between atoms: C2_2  and  C3_3
REMARK    2  A    between atoms: C3_3  and  C4_4
REMARK    3  A    between atoms: C4_4  and  C5_5
REMARK    4  A    between atoms: C5_5  and  C6_6
REMARK    5  A    between atoms: C6_6  and  C7_7
REMARK    6  A    between atoms: C7_7  and  C8_8
REMARK    7  A    between atoms: C8_8  and  O1_9
REMARK    8  A    between atoms: O1_9  and  C9_10
REMARK    9  A    between atoms: C22_25  and  C23_26
REMARK   10  A    between atoms: C23_26  and  C24_27
REMARK   11  A    between atoms: C24_27  and  N2_28
REMARK   12  A    between atoms: C24_27  and  C29_36
REMARK       I    between atoms: N2_28  and  C25_30
REMARK   13  A    between atoms: C25_30  and  C26_32
REMARK   14  A    between atoms: C26_32  and  N3_33
REMARK   15  A    between atoms: C29_36  and  O5_38
REMARK   16  A    between atoms: O5_38  and  C30_39
ROOT
HETATM    1  C9  UNL     1      10.481  16.837  11.297  1.00  0.00     0.129 C
HETATM    2  C10 UNL     1       9.691  15.554  10.898  1.00  0.00     0.032 C
HETATM    3  C11 UNL     1       8.435  15.884  10.193  1.00  0.00     0.004 C
HETATM    4  C12 UNL     1       7.174  15.412  10.848  1.00  0.00     0.020 C
HETATM    5  C13 UNL     1       7.250  14.083  11.512  1.00  0.00     0.125 C
HETATM    6  N1  UNL     1       5.947  13.500  11.783  1.00  0.00    -0.356 N
HETATM    7  C14 UNL     1       5.162  13.117  10.618  1.00  0.00     0.152 C
HETATM    8  C15 UNL     1       5.417  13.290  13.085  1.00  0.00     0.219 C
HETATM    9  O2  UNL     1       4.783  12.211  13.288  1.00  0.00    -0.273 OA
HETATM   10  C16 UNL     1       5.536  14.217  14.225  1.00  0.00     0.103 C
HETATM   11  C17 UNL     1       6.785  14.088  15.009  1.00  0.00     0.009 C
HETATM   12  C18 UNL     1       6.574  14.349  16.507  1.00  0.00     0.000 C
HETATM   13  C19 UNL     1       7.875  14.236  17.256  1.00  0.00     0.000 C
HETATM   14  C20 UNL     1       8.627  15.517  17.068  1.00  0.00     0.001 C
HETATM   15  C21 UNL     1       9.985  15.550  17.687  1.00  0.00     0.014 C
HETATM   16  C22 UNL     1      10.843  16.426  16.774  1.00  0.00     0.080 C
HETATM   17  C32 UNL     1      11.055  15.720  15.460  1.00  0.00     0.223 C
HETATM   18  O6  UNL     1      10.897  14.469  15.480  1.00  0.00    -0.273 OA
HETATM   19  N4  UNL     1      11.404  16.335  14.258  1.00  0.00    -0.334 N
ATOM     20  H4  UNL     1      12.133  15.878  13.711  1.00  0.00     0.165 HD
HETATM   21  C33 UNL     1      10.853  17.541  13.706  1.00  0.00     0.229 C
HETATM   22  O7  UNL     1      11.768  18.436  13.269  1.00  0.00    -0.366 OA
HETATM   23  C34 UNL     1      11.309  19.718  13.066  1.00  0.00     0.170 C
HETATM   24  C35 UNL     1       9.996  19.812  12.355  1.00  0.00     0.027 C
HETATM   25  C36 UNL     1       9.124  18.613  12.490  1.00  0.00     0.013 C
HETATM   26  C37 UNL     1       9.861  17.299  12.598  1.00  0.00     0.063 C
ENDROOT
BRANCH  16  27
HETATM   27  C23 UNL     1      12.155  16.799  17.388  1.00  0.00     0.049 C
BRANCH  27  28
HETATM   28  C24 UNL     1      12.272  18.277  17.588  1.00  0.00     0.185 C
BRANCH  28  29
HETATM   29  N2  UNL     1      12.725  18.903  16.322  1.00  0.00    -0.346 N
HETATM   30  C25 UNL     1      13.866  19.706  16.299  1.00  0.00     0.246 C
HETATM   31  O3  UNL     1      14.516  19.904  17.349  1.00  0.00    -0.272 OA
ATOM     32  H2  UNL     1      12.199  18.744  15.462  1.00  0.00     0.163 HD
BRANCH  30  33
HETATM   33  C26 UNL     1      14.303  20.322  15.027  1.00  0.00     0.373 C
BRANCH  33  34
HETATM   34  N3  UNL     1      14.675  21.714  15.186  1.00  0.00     0.088 N
HETATM   35  C27 UNL     1      13.498  22.504  14.812  1.00  0.00     0.310 C
HETATM   36  C28 UNL     1      15.798  22.040  14.302  1.00  0.00     0.310 C
ENDBRANCH  33  34
ENDBRANCH  30  33
ENDBRANCH  28  29
BRANCH  28  37
HETATM   37  C29 UNL     1      11.058  18.960  18.071  1.00  0.00     0.281 C
HETATM   38  O4  UNL     1      10.675  18.652  19.260  1.00  0.00    -0.263 OA
BRANCH  37  39
HETATM   39  O5  UNL     1      10.288  19.871  17.423  1.00  0.00    -0.320 OA
BRANCH  39  40
HETATM   40  C30 UNL     1       9.310  19.593  16.449  1.00  0.00     0.174 C
HETATM   41  C31 UNL     1       8.964  20.910  15.788  1.00  0.00     0.034 C
ENDBRANCH  39  40
ENDBRANCH  37  39
ENDBRANCH  28  37
ENDBRANCH  27  28
ENDBRANCH  16  27
BRANCH   1  42
HETATM   42  O1  UNL     1      11.781  16.615  11.381  1.00  0.00    -0.385 OA
BRANCH  42  43
HETATM   43  C8  UNL     1      12.531  15.647  10.918  1.00  0.00     0.168 C
BRANCH  43  44
HETATM   44  C7  UNL     1      14.007  15.567  11.142  1.00  0.00     0.026 C
BRANCH  44  45
HETATM   45  C6  UNL     1      14.877  15.154  10.034  1.00  0.00     0.002 C
BRANCH  45  46
HETATM   46  C5  UNL     1      16.291  14.895  10.586  1.00  0.00     0.000 C
BRANCH  46  47
HETATM   47  C4  UNL     1      17.344  14.867   9.528  1.00  0.00     0.000 C
BRANCH  47  48
HETATM   48  C3  UNL     1      18.006  16.246   9.464  1.00  0.00    -0.000 C
BRANCH  48  49
HETATM   49  C2  UNL     1      18.208  16.694   8.035  1.00  0.00    -0.005 C
HETATM   50  C1  UNL     1      16.892  16.805   7.302  1.00  0.00     0.005 C
ENDBRANCH  48  49
ENDBRANCH  47  48
ENDBRANCH  46  47
ENDBRANCH  45  46
ENDBRANCH  44  45
ENDBRANCH  43  44
ENDBRANCH  42  43
ENDBRANCH   1  42
TORSDOF 16
ENDMDL