MODEL 4
REMARK VINA RESULT: -8.812738986      1.698      2.593
REMARK  16 active torsions:
REMARK  status: ('A' for Active; 'I' for Inactive)
REMARK    1  A    between atoms: N1_9  and  C9_10
REMARK    2  A    between atoms: C9_10  and  C10_11
REMARK    3  A    between atoms: C10_11  and  C11_12
REMARK    4  A    between atoms: C11_12  and  N2_13
REMARK    5  A    between atoms: C11_12  and  C18_23
REMARK       I    between atoms: N2_13  and  C12_15
REMARK    6  A    between atoms: C12_15  and  O2_17
REMARK    7  A    between atoms: O2_17  and  C13_18
REMARK       I    between atoms: C18_23  and  N3_25
REMARK    8  A    between atoms: C22_29  and  C23_30
REMARK       I    between atoms: C23_30  and  N4_32
REMARK    9  A    between atoms: N4_32  and  C24_33
REMARK   10  A    between atoms: C24_33  and  C25_34
REMARK   11  A    between atoms: C25_34  and  S1_35
REMARK   12  A    between atoms: S1_35  and  S2_36
REMARK   13  A    between atoms: S2_36  and  C26_37
REMARK   14  A    between atoms: C26_37  and  C27_38
REMARK   15  A    between atoms: C27_38  and  C28_39
REMARK   16  A    between atoms: C28_39  and  C29_40
REMARK       I    between atoms: C29_40  and  N5_42
ROOT
HETATM    1  C11 UNL     1      16.395  23.060  15.971  1.00  0.00     0.183 C
ENDROOT
BRANCH   1   2
HETATM    2  C10 UNL     1      16.335  24.272  15.112  1.00  0.00     0.079 C
BRANCH   2   3
HETATM    3  C9  UNL     1      17.270  25.378  15.410  1.00  0.00     0.065 C
BRANCH   3   4
HETATM    4  N1  UNL     1      18.538  25.418  14.836  1.00  0.00    -0.374 N
HETATM    5  C8  UNL     1      18.972  26.550  14.119  1.00  0.00     0.064 C
HETATM    6  C7  UNL     1      19.741  27.543  14.978  1.00  0.00     0.054 C
HETATM    7  C6  UNL     1      20.951  26.926  15.643  1.00  0.00    -0.031 C
HETATM    8  C5  UNL     1      20.810  27.138  17.139  1.00  0.00     0.010 C
HETATM    9  C33 UNL     1      20.932  25.443  15.336  1.00  0.00     0.030 C
HETATM   10  C34 UNL     1      22.240  27.488  15.113  1.00  0.00    -0.006 C
HETATM   11  C4  UNL     1      22.063  27.566  17.826  1.00  0.00     0.001 C
HETATM   12  C3  UNL     1      23.212  26.766  17.308  1.00  0.00     0.005 C
HETATM   13  C2  UNL     1      23.396  26.843  15.814  1.00  0.00    -0.014 C
HETATM   14  C1  UNL     1      24.723  27.507  15.506  1.00  0.00     0.010 C
HETATM   15  C32 UNL     1      19.569  24.815  15.591  1.00  0.00     0.128 C
HETATM   16  C35 UNL     1      22.276  28.996  15.172  1.00  0.00     0.011 C
ENDBRANCH   3   4
ENDBRANCH   2   3
ENDBRANCH   1   2
BRANCH   1  17
HETATM   17  N2  UNL     1      16.916  23.263  17.282  1.00  0.00    -0.323 N
HETATM   18  C12 UNL     1      17.887  22.344  17.838  1.00  0.00     0.361 C
HETATM   19  O1  UNL     1      18.257  21.327  17.217  1.00  0.00    -0.238 OA
ATOM     20  H2  UNL     1      16.602  24.061  17.834  1.00  0.00     0.165 HD
BRANCH  18  21
HETATM   21  O2  UNL     1      18.438  22.590  19.090  1.00  0.00    -0.299 OA
BRANCH  21  22
HETATM   22  C13 UNL     1      19.011  23.887  19.307  1.00  0.00     0.133 C
HETATM   23  C14 UNL     1      19.013  23.996  20.868  1.00  0.00     0.032 C
HETATM   24  C15 UNL     1      20.167  24.927  21.133  1.00  0.00     0.002 C
HETATM   25  C16 UNL     1      21.150  24.756  19.982  1.00  0.00     0.002 C
HETATM   26  C17 UNL     1      20.448  23.858  18.957  1.00  0.00     0.032 C
ENDBRANCH  21  22
ENDBRANCH  18  21
ENDBRANCH   1  17
BRANCH   1  27
HETATM   27  C18 UNL     1      15.083  22.319  15.931  1.00  0.00     0.243 C
HETATM   28  O3  UNL     1      14.487  22.087  17.019  1.00  0.00    -0.271 OA
HETATM   29  N3  UNL     1      14.510  21.884  14.728  1.00  0.00    -0.336 N
HETATM   30  C19 UNL     1      15.224  22.094  13.418  1.00  0.00     0.127 C
HETATM   31  C22 UNL     1      13.373  21.215  14.251  1.00  0.00     0.194 C
HETATM   32  C20 UNL     1      15.218  20.646  12.918  1.00  0.00     0.022 C
HETATM   33  C21 UNL     1      14.084  19.941  13.687  1.00  0.00     0.038 C
BRANCH  31  34
HETATM   34  C23 UNL     1      12.190  20.889  15.038  1.00  0.00     0.309 C
HETATM   35  O4  UNL     1      12.209  20.384  16.201  1.00  0.00    -0.255 OA
HETATM   36  N4  UNL     1      10.996  21.184  14.392  1.00  0.00    -0.413 NA
BRANCH  36  37
HETATM   37  C24 UNL     1       9.821  21.471  13.761  1.00  0.00     0.233 C
BRANCH  37  38
HETATM   38  C25 UNL     1       8.769  20.377  14.018  1.00  0.00     0.119 C
BRANCH  38  39
HETATM   39  S1  UNL     1       9.548  18.755  14.277  1.00  0.00    -0.095 SA
BRANCH  39  40
HETATM   40  S2  UNL     1       9.327  18.182  16.323  1.00  0.00    -0.098 SA
BRANCH  40  41
HETATM   41  C26 UNL     1      10.357  16.768  16.734  1.00  0.00     0.086 C
BRANCH  41  42
HETATM   42  C27 UNL     1      11.075  16.941  18.037  1.00  0.00     0.020 C
BRANCH  42  43
HETATM   43  C28 UNL     1      11.422  18.331  18.454  1.00  0.00     0.103 C
BRANCH  43  44
HETATM   44  C29 UNL     1      11.898  18.481  19.840  1.00  0.00     0.219 C
HETATM   45  O5  UNL     1      11.198  18.334  20.878  1.00  0.00    -0.273 OA
HETATM   46  N5  UNL     1      13.272  18.826  20.030  1.00  0.00    -0.361 N
HETATM   47  C30 UNL     1      13.832  19.002  21.362  1.00  0.00     0.152 C
HETATM   48  C31 UNL     1      14.156  18.971  18.870  1.00  0.00     0.152 C
ENDBRANCH  43  44
ENDBRANCH  42  43
ENDBRANCH  41  42
ENDBRANCH  40  41
ENDBRANCH  39  40
ENDBRANCH  38  39
ENDBRANCH  37  38
ENDBRANCH  36  37
ENDBRANCH  31  34
ENDBRANCH   1  27
TORSDOF 16
ENDMDL