MODEL 2
REMARK VINA RESULT: -8.543081361      3.277     13.621
REMARK  17 active torsions:
REMARK  status: ('A' for Active; 'I' for Inactive)
REMARK    1  A    between atoms: C2_2  and  C3_3
REMARK    2  A    between atoms: C4_6  and  N2_7
REMARK    3  A    between atoms: N2_7  and  C5_9
REMARK    4  A    between atoms: C5_9  and  O1_10
REMARK    5  A    between atoms: C5_9  and  C6_12
REMARK    6  A    between atoms: C6_12  and  C7_13
REMARK    7  A    between atoms: C6_12  and  N3_20
REMARK    8  A    between atoms: C7_13  and  O2_14
REMARK    9  A    between atoms: O2_14  and  C8_15
REMARK       I    between atoms: N3_20  and  C13_22
REMARK   10  A    between atoms: C13_22  and  C14_24
REMARK   11  A    between atoms: C14_24  and  C15_25
REMARK   12  A    between atoms: C15_25  and  N4_26
REMARK   13  A    between atoms: N4_26  and  C16_27
REMARK   14  A    between atoms: N4_26  and  C18_29
REMARK       I    between atoms: N5_32  and  C21_33
REMARK   15  A    between atoms: C21_33  and  C22_35
REMARK       I    between atoms: C22_35  and  N6_37
REMARK   16  A    between atoms: N7_40  and  C25_41
REMARK   17  A    between atoms: C25_41  and  C26_42
ROOT
HETATM    1  C3  UNL     1      13.851  20.332  18.515  1.00  0.00     0.091 A
HETATM    2  N1  UNL     1      12.587  20.074  18.135  1.00  0.00    -0.330 N
ATOM      3  H1  UNL     1      11.875  19.697  18.761  1.00  0.00     0.168 HD
HETATM    4  C4  UNL     1      12.364  20.364  16.855  1.00  0.00     0.124 A
HETATM    5  C20 UNL     1      13.601  20.850  16.396  1.00  0.00     0.150 A
HETATM    6  N5  UNL     1      14.459  20.822  17.383  1.00  0.00    -0.270 N
HETATM    7  C21 UNL     1      15.821  21.253  17.405  1.00  0.00     0.321 C
HETATM    8  O4  UNL     1      16.514  21.085  18.475  1.00  0.00    -0.261 OA
ENDROOT
BRANCH   4   9
HETATM    9  N2  UNL     1      11.239  20.244  16.027  1.00  0.00    -0.324 N
ATOM     10  H2  UNL     1      11.378  20.357  15.022  1.00  0.00     0.169 HD
BRANCH   9  11
HETATM   11  C5  UNL     1       9.942  19.981  16.475  1.00  0.00     0.142 C
BRANCH  11  12
HETATM   12  O1  UNL     1       9.421  20.790  17.364  1.00  0.00    -0.348 OA
ATOM     13  H1  UNL     1       9.427  20.518  18.273  1.00  0.00     0.219 HD
ENDBRANCH  11  12
BRANCH  11  14
HETATM   14  C6  UNL     1       9.072  18.902  16.076  1.00  0.00     0.183 C
BRANCH  14  15
HETATM   15  C7  UNL     1       9.064  18.826  14.509  1.00  0.00     0.201 C
BRANCH  15  16
HETATM   16  O2  UNL     1      10.179  18.131  14.115  1.00  0.00    -0.383 OA
BRANCH  16  17
HETATM   17  C8  UNL     1      10.194  17.978  12.718  1.00  0.00     0.121 C
HETATM   18  C9  UNL     1      11.493  17.283  12.292  1.00  0.00     0.032 C
HETATM   19  C10 UNL     1      12.493  18.388  12.567  1.00  0.00     0.002 C
HETATM   20  C11 UNL     1      11.768  19.681  12.277  1.00  0.00     0.002 C
HETATM   21  C12 UNL     1      10.306  19.320  12.077  1.00  0.00     0.032 C
ENDBRANCH  16  17
ENDBRANCH  15  16
ENDBRANCH  14  15
BRANCH  14  22
HETATM   22  N3  UNL     1       9.711  17.623  16.493  1.00  0.00    -0.347 N
HETATM   23  C13 UNL     1      10.130  17.356  17.788  1.00  0.00     0.220 C
HETATM   24  O3  UNL     1       9.994  18.200  18.724  1.00  0.00    -0.274 OA
ATOM     25  H3  UNL     1       9.847  16.902  15.785  1.00  0.00     0.163 HD
BRANCH  23  26
HETATM   26  C14 UNL     1      10.748  16.066  18.135  1.00  0.00     0.133 C
BRANCH  26  27
HETATM   27  C15 UNL     1      11.158  15.287  16.891  1.00  0.00     0.281 C
BRANCH  27  28
HETATM   28  N4  UNL     1      10.189  14.264  16.590  1.00  0.00     0.088 N
BRANCH  28  29
HETATM   29  C16 UNL     1      10.685  13.236  15.724  1.00  0.00     0.268 C
HETATM   30  C17 UNL     1      10.827  13.674  14.303  1.00  0.00     0.037 C
ENDBRANCH  28  29
BRANCH  28  31
HETATM   31  C18 UNL     1       9.620  13.643  17.740  1.00  0.00     0.268 C
HETATM   32  C19 UNL     1       8.143  13.445  17.717  1.00  0.00     0.037 C
ENDBRANCH  28  31
ENDBRANCH  27  28
ENDBRANCH  26  27
ENDBRANCH  23  26
ENDBRANCH  14  22
ENDBRANCH  11  14
ENDBRANCH   9  11
ENDBRANCH   4   9
BRANCH   1  33
HETATM   33  C2  UNL     1      14.465  20.167  19.851  1.00  0.00     0.073 C
HETATM   34  C1  UNL     1      13.839  18.909  20.462  1.00  0.00     0.013 C
ENDBRANCH   1  33
BRANCH   7  35
HETATM   35  C22 UNL     1      16.426  21.871  16.255  1.00  0.00     0.312 C
HETATM   36  O5  UNL     1      16.517  21.204  15.170  1.00  0.00    -0.262 OA
HETATM   37  N6  UNL     1      16.915  23.177  16.279  1.00  0.00    -0.338 N
HETATM   38  C23 UNL     1      17.435  23.767  15.024  1.00  0.00     0.146 C
HETATM   39  C38 UNL     1      17.032  24.062  17.412  1.00  0.00     0.170 C
HETATM   40  C24 UNL     1      18.864  24.177  15.428  1.00  0.00     0.143 C
HETATM   41  N7  UNL     1      18.785  25.304  16.238  1.00  0.00    -0.381 N
HETATM   42  C37 UNL     1      17.683  25.389  17.071  1.00  0.00     0.079 C
BRANCH  41  43
HETATM   43  C25 UNL     1      19.960  26.085  16.488  1.00  0.00     0.035 C
HETATM   44  C32 UNL     1      19.701  27.466  15.964  1.00  0.00     0.031 C
HETATM   45  C33 UNL     1      20.216  27.754  14.614  1.00  0.00     0.002 C
HETATM   46  C34 UNL     1      21.676  27.423  14.453  1.00  0.00     0.000 C
HETATM   47  C35 UNL     1      22.009  26.066  14.942  1.00  0.00     0.002 C
HETATM   48  C36 UNL     1      21.123  25.391  15.895  1.00  0.00     0.031 C
BRANCH  43  49
HETATM   49  C26 UNL     1      20.082  26.154  18.044  1.00  0.00     0.014 C
HETATM   50  C27 UNL     1      20.486  24.863  18.630  1.00  0.00     0.007 C
HETATM   51  C28 UNL     1      21.780  24.744  19.335  1.00  0.00     0.000 C
HETATM   52  C29 UNL     1      22.128  25.991  20.048  1.00  0.00     0.000 C
HETATM   53  C30 UNL     1      22.059  27.231  19.200  1.00  0.00     0.000 C
HETATM   54  C31 UNL     1      20.774  27.382  18.467  1.00  0.00     0.007 C
ENDBRANCH  43  49
ENDBRANCH  41  43
ENDBRANCH   7  35
TORSDOF 17
ENDMDL