MODEL 3
REMARK VINA RESULT: -8.838858212      1.352      2.101
REMARK  16 active torsions:
REMARK  status: ('A' for Active; 'I' for Inactive)
REMARK    1  A    between atoms: C2_2  and  C3_3
REMARK    2  A    between atoms: N1_8  and  C7_9
REMARK    3  A    between atoms: C7_9  and  C8_10
REMARK    4  A    between atoms: C8_10  and  C9_11
REMARK    5  A    between atoms: C9_11  and  N2_12
REMARK    6  A    between atoms: N2_12  and  C10_13
REMARK       I    between atoms: N2_12  and  C15_19
REMARK    7  A    between atoms: C10_13  and  C11_14
REMARK    8  A    between atoms: C11_14  and  C12_15
REMARK    9  A    between atoms: C12_15  and  N3_16
REMARK   10  A    between atoms: C15_19  and  C16_21
REMARK   11  A    between atoms: C17_22  and  C18_23
REMARK   12  A    between atoms: C18_23  and  C19_24
REMARK   13  A    between atoms: C19_24  and  N4_25
REMARK       I    between atoms: N4_25  and  C20_27
REMARK   14  A    between atoms: C20_27  and  O4_29
REMARK   15  A    between atoms: O4_29  and  C21_30
REMARK   16  A    between atoms: C33_43  and  O6_44
ROOT
HETATM    1  N4  UNL     1      17.715  23.282  20.050  1.00  0.00    -0.337 N
ATOM      2  H4  UNL     1      17.830  22.292  20.268  1.00  0.00     0.164 HD
HETATM    3  C20 UNL     1      16.874  23.618  18.947  1.00  0.00     0.360 C
HETATM    4  O3  UNL     1      16.640  24.779  18.555  1.00  0.00    -0.239 OA
ENDROOT
BRANCH   1   5
HETATM    5  C19 UNL     1      18.407  24.219  20.870  1.00  0.00     0.128 C
BRANCH   5   6
HETATM    6  C18 UNL     1      19.720  24.729  20.309  1.00  0.00     0.047 C
BRANCH   6   7
HETATM    7  C17 UNL     1      20.680  24.944  21.396  1.00  0.00    -0.020 C
HETATM    8  C16 UNL     1      21.659  25.772  21.429  1.00  0.00     0.070 C
BRANCH   8   9
HETATM    9  C15 UNL     1      22.082  26.697  20.430  1.00  0.00     0.243 C
HETATM   10  N2  UNL     1      22.967  26.258  19.331  1.00  0.00    -0.345 N
HETATM   11  O2  UNL     1      21.738  27.886  20.428  1.00  0.00    -0.268 OA
BRANCH  10  12
HETATM   12  C9  UNL     1      23.322  27.256  18.394  1.00  0.00     0.154 C
BRANCH  12  13
HETATM   13  C8  UNL     1      22.606  27.409  17.116  1.00  0.00     0.010 C
BRANCH  13  14
HETATM   14  C7  UNL     1      21.169  27.609  17.030  1.00  0.00     0.083 C
BRANCH  14  15
HETATM   15  N1  UNL     1      20.328  26.704  16.396  1.00  0.00    -0.382 N
HETATM   16  C3  UNL     1      20.010  26.951  15.022  1.00  0.00     0.107 C
HETATM   17  C4  UNL     1      18.664  26.380  14.720  1.00  0.00     0.193 C
HETATM   18  O1  UNL     1      18.246  25.503  15.716  1.00  0.00    -0.388 OA
HETATM   19  C5  UNL     1      19.243  24.600  16.067  1.00  0.00     0.187 C
HETATM   20  C6  UNL     1      20.472  25.316  16.627  1.00  0.00     0.149 C
BRANCH  16  21
HETATM   21  C2  UNL     1      20.247  28.341  14.540  1.00  0.00     0.023 C
HETATM   22  C1  UNL     1      21.469  28.360  13.623  1.00  0.00     0.007 C
ENDBRANCH  16  21
ENDBRANCH  14  15
ENDBRANCH  13  14
ENDBRANCH  12  13
ENDBRANCH  10  12
BRANCH  10  23
HETATM   23  C10 UNL     1      23.464  24.931  19.420  1.00  0.00     0.128 C
BRANCH  23  24
HETATM   24  C11 UNL     1      24.898  24.842  19.801  1.00  0.00     0.050 C
BRANCH  24  25
HETATM   25  C12 UNL     1      25.755  24.417  18.608  1.00  0.00     0.273 C
BRANCH  25  26
HETATM   26  N3  UNL     1      26.553  23.297  18.988  1.00  0.00     0.080 N
HETATM   27  C13 UNL     1      25.967  22.010  18.844  1.00  0.00     0.309 C
HETATM   28  C14 UNL     1      26.991  23.419  20.378  1.00  0.00     0.309 C
ENDBRANCH  25  26
ENDBRANCH  24  25
ENDBRANCH  23  24
ENDBRANCH  10  23
ENDBRANCH   8   9
ENDBRANCH   6   7
ENDBRANCH   5   6
ENDBRANCH   1   5
BRANCH   3  29
HETATM   29  O4  UNL     1      16.250  22.592  18.228  1.00  0.00    -0.298 OA
BRANCH  29  30
HETATM   30  C21 UNL     1      16.864  21.411  17.815  1.00  0.00     0.141 C
HETATM   31  C22 UNL     1      17.159  21.447  16.353  1.00  0.00     0.111 C
HETATM   32  C23 UNL     1      15.867  21.785  15.642  1.00  0.00     0.134 C
HETATM   33  O5  UNL     1      15.954  22.600  14.767  1.00  0.00    -0.297 OA
HETATM   34  C24 UNL     1      14.650  21.082  16.098  1.00  0.00     0.068 C
HETATM   35  C25 UNL     1      15.107  19.862  16.866  1.00  0.00    -0.000 C
HETATM   36  C38 UNL     1      13.722  20.723  14.946  1.00  0.00    -0.029 C
HETATM   37  C26 UNL     1      13.949  19.041  17.344  1.00  0.00     0.006 C
HETATM   38  C40 UNL     1      15.890  20.287  18.066  1.00  0.00     0.038 C
HETATM   39  C27 UNL     1      12.630  19.619  16.797  1.00  0.00     0.006 C
HETATM   40  C28 UNL     1      12.755  19.639  15.300  1.00  0.00     0.003 C
HETATM   41  C29 UNL     1      11.488  19.626  14.523  1.00  0.00    -0.036 C
HETATM   42  C30 UNL     1      11.832  18.883  13.204  1.00  0.00     0.016 C
HETATM   43  C31 UNL     1      10.401  18.795  15.123  1.00  0.00     0.012 C
HETATM   44  C35 UNL     1      11.005  20.977  14.047  1.00  0.00    -0.004 C
HETATM   45  C32 UNL     1       9.369  19.505  15.920  1.00  0.00     0.032 C
HETATM   46  C33 UNL     1       8.847  20.768  15.319  1.00  0.00     0.118 C
HETATM   47  C34 UNL     1       9.521  21.110  14.033  1.00  0.00     0.037 C
HETATM   48  C36 UNL     1      11.617  22.107  14.836  1.00  0.00     0.006 C
HETATM   49  C37 UNL     1      13.099  22.027  14.533  1.00  0.00     0.011 C
HETATM   50  C39 UNL     1      14.633  20.218  13.816  1.00  0.00     0.016 C
BRANCH  46  51
HETATM   51  O6  UNL     1       8.937  21.853  16.225  1.00  0.00    -0.396 OA
ATOM     52  H6  UNL     1       9.104  22.673  15.775  1.00  0.00     0.210 HD
ENDBRANCH  46  51
ENDBRANCH  29  30
ENDBRANCH   3  29
TORSDOF 16
ENDMDL