MODEL 5
REMARK VINA RESULT: -7.899853453      3.095      6.921
REMARK  18 active torsions:
REMARK  status: ('A' for Active; 'I' for Inactive)
REMARK    1  A    between atoms: C2_2  and  C3_3
REMARK    2  A    between atoms: C3_3  and  C4_4
REMARK    3  A    between atoms: C4_4  and  C5_5
REMARK    4  A    between atoms: C5_5  and  C6_6
REMARK    5  A    between atoms: C6_6  and  C7_7
REMARK    6  A    between atoms: C7_7  and  C8_8
REMARK    7  A    between atoms: C8_8  and  O1_9
REMARK    8  A    between atoms: O1_9  and  C9_10
REMARK    9  A    between atoms: C9_10  and  C10_12
REMARK   10  A    between atoms: C10_12  and  C11_13
REMARK   11  A    between atoms: C11_13  and  C12_14
REMARK   12  A    between atoms: C12_14  and  N1_15
REMARK   13  A    between atoms: C12_14  and  C29_36
REMARK       I    between atoms: N1_15  and  C13_17
REMARK   14  A    between atoms: C13_17  and  C14_19
REMARK   15  A    between atoms: C20_26  and  C21_27
REMARK   16  A    between atoms: C21_27  and  C22_29
REMARK       I    between atoms: C29_36  and  N3_38
REMARK   17  A    between atoms: C33_42  and  C34_43
REMARK       I    between atoms: C34_43  and  N4_45
REMARK   18  A    between atoms: N4_45  and  C35_47
ROOT
HETATM    1  C12 UNL     1      11.424  17.849  16.726  1.00  0.00     0.177 C
ENDROOT
BRANCH   1   2
HETATM    2  C11 UNL     1      10.591  17.627  17.973  1.00  0.00     0.044 C
BRANCH   2   3
HETATM    3  C10 UNL     1      11.390  16.970  19.032  1.00  0.00     0.113 C
BRANCH   3   4
HETATM    4  C9  UNL     1      11.737  17.798  20.187  1.00  0.00     0.258 C
HETATM    5  O2  UNL     1      11.009  18.562  20.830  1.00  0.00    -0.265 OA
BRANCH   4   6
HETATM    6  O1  UNL     1      13.077  17.714  20.626  1.00  0.00    -0.321 OA
BRANCH   6   7
HETATM    7  C8  UNL     1      13.848  18.883  20.776  1.00  0.00     0.178 C
BRANCH   7   8
HETATM    8  C7  UNL     1      14.215  19.369  19.364  1.00  0.00     0.027 C
BRANCH   8   9
HETATM    9  C6  UNL     1      14.485  20.831  19.441  1.00  0.00     0.002 C
BRANCH   9  10
HETATM   10  C5  UNL     1      15.960  21.133  19.780  1.00  0.00     0.000 C
BRANCH  10  11
HETATM   11  C4  UNL     1      16.812  20.828  18.608  1.00  0.00     0.000 C
BRANCH  11  12
HETATM   12  C3  UNL     1      18.113  21.523  18.527  1.00  0.00    -0.000 C
BRANCH  12  13
HETATM   13  C2  UNL     1      18.869  21.814  19.772  1.00  0.00    -0.005 C
HETATM   14  C1  UNL     1      18.839  23.237  20.211  1.00  0.00     0.005 C
ENDBRANCH  12  13
ENDBRANCH  11  12
ENDBRANCH  10  11
ENDBRANCH   9  10
ENDBRANCH   8   9
ENDBRANCH   7   8
ENDBRANCH   6   7
ENDBRANCH   4   6
ENDBRANCH   3   4
ENDBRANCH   2   3
ENDBRANCH   1   2
BRANCH   1  15
HETATM   15  N1  UNL     1      10.608  17.346  15.631  1.00  0.00    -0.347 N
HETATM   16  C13 UNL     1      10.664  16.017  15.138  1.00  0.00     0.225 C
HETATM   17  O3  UNL     1      11.531  15.285  15.737  1.00  0.00    -0.273 OA
ATOM     18  H1  UNL     1       9.952  17.990  15.189  1.00  0.00     0.163 HD
BRANCH  16  19
HETATM   19  C14 UNL     1       9.849  15.455  14.056  1.00  0.00     0.120 C
HETATM   20  C15 UNL     1      10.712  14.307  13.465  1.00  0.00     0.052 C
HETATM   21  C16 UNL     1      11.232  14.909  12.232  1.00  0.00     0.225 C
HETATM   22  C17 UNL     1      12.666  14.740  11.929  1.00  0.00     0.037 C
HETATM   23  N2  UNL     1      11.199  16.366  12.562  1.00  0.00     0.105 N
HETATM   24  C18 UNL     1      12.933  15.998  11.105  1.00  0.00     0.032 C
HETATM   25  C19 UNL     1      11.738  16.898  11.384  1.00  0.00     0.274 C
HETATM   26  C20 UNL     1       9.828  16.431  12.857  1.00  0.00     0.305 C
BRANCH  26  27
HETATM   27  C21 UNL     1       9.084  17.612  13.123  1.00  0.00     0.165 C
HETATM   28  O4  UNL     1       8.020  17.405  13.786  1.00  0.00    -0.295 OA
BRANCH  27  29
HETATM   29  C22 UNL     1       9.290  19.027  12.784  1.00  0.00     0.061 C
HETATM   30  C23 UNL     1       8.579  19.531  11.580  1.00  0.00     0.039 C
HETATM   31  C24 UNL     1       7.854  20.804  11.695  1.00  0.00    -0.024 C
HETATM   32  C25 UNL     1       8.127  21.698  12.610  1.00  0.00    -0.087 C
HETATM   33  C26 UNL     1       7.443  22.986  12.775  1.00  0.00     0.043 C
HETATM   34  C27 UNL     1       9.225  21.347  13.575  1.00  0.00     0.034 C
HETATM   35  C28 UNL     1       8.909  19.909  13.972  1.00  0.00     0.017 C
ENDBRANCH  27  29
ENDBRANCH  26  27
ENDBRANCH  16  19
ENDBRANCH   1  15
BRANCH   1  36
HETATM   36  C29 UNL     1      11.687  19.315  16.539  1.00  0.00     0.243 C
HETATM   37  O5  UNL     1      11.305  20.156  17.356  1.00  0.00    -0.271 OA
HETATM   38  N3  UNL     1      12.407  19.798  15.383  1.00  0.00    -0.337 N
HETATM   39  C30 UNL     1      12.910  18.994  14.288  1.00  0.00     0.127 C
HETATM   40  C33 UNL     1      12.782  21.162  15.119  1.00  0.00     0.179 C
HETATM   41  C31 UNL     1      12.672  19.933  13.092  1.00  0.00     0.022 C
HETATM   42  C32 UNL     1      12.968  21.299  13.662  1.00  0.00     0.037 C
BRANCH  40  43
HETATM   43  C34 UNL     1      13.961  21.568  15.916  1.00  0.00     0.246 C
HETATM   44  O6  UNL     1      14.974  20.846  15.939  1.00  0.00    -0.271 OA
HETATM   45  N4  UNL     1      13.929  22.770  16.642  1.00  0.00    -0.305 N
ATOM     46  H4  UNL     1      13.085  23.110  17.103  1.00  0.00     0.171 HD
BRANCH  45  47
HETATM   47  C35 UNL     1      15.075  23.425  16.685  1.00  0.00     0.150 A
HETATM   48  N5  UNL     1      16.019  23.461  15.745  1.00  0.00    -0.346 N
HETATM   49  C36 UNL     1      17.089  24.165  15.966  1.00  0.00     0.097 A
ATOM     50  H5  UNL     1      15.904  22.948  14.872  1.00  0.00     0.167 HD
HETATM   51  C37 UNL     1      17.188  24.834  17.160  1.00  0.00     0.070 A
HETATM   52  S1  UNL     1      15.714  24.410  17.917  1.00  0.00    -0.064 SA
ENDBRANCH  45  47
ENDBRANCH  40  43
ENDBRANCH   1  36
TORSDOF 18
ENDMDL