MODEL 2
REMARK VINA RESULT: -8.581217417      2.400      4.371
REMARK  18 active torsions:
REMARK  status: ('A' for Active; 'I' for Inactive)
REMARK    1  A    between atoms: C2_2  and  O2_4
REMARK    2  A    between atoms: O2_4  and  C3_5
REMARK    3  A    between atoms: C6_9  and  C7_10
REMARK    4  A    between atoms: C7_10  and  C8_11
REMARK    5  A    between atoms: C8_11  and  N1_12
REMARK    6  A    between atoms: C8_11  and  C19_28
REMARK       I    between atoms: N1_12  and  C9_14
REMARK       I    between atoms: C9_14  and  N2_16
REMARK    7  A    between atoms: N3_19  and  C12_20
REMARK    8  A    between atoms: C12_20  and  C13_21
REMARK    9  A    between atoms: C19_28  and  C20_29
REMARK   10  A    between atoms: C19_28  and  C25_34
REMARK   11  A    between atoms: C20_29  and  C21_30
REMARK   12  A    between atoms: C25_34  and  C26_36
REMARK   13  A    between atoms: C26_36  and  O7_37
REMARK   14  A    between atoms: C26_36  and  N4_39
REMARK   15  A    between atoms: N4_39  and  C27_40
REMARK   16  A    between atoms: N4_39  and  C34_47
REMARK   17  A    between atoms: C27_40  and  C28_41
REMARK   18  A    between atoms: C34_47  and  C35_48
ROOT
HETATM    1  C8  UNL     1      20.141  25.304  18.549  1.00  0.00     0.125 C
ENDROOT
BRANCH   1   2
HETATM    2  C7  UNL     1      20.711  24.360  19.610  1.00  0.00     0.064 C
BRANCH   2   3
HETATM    3  C6  UNL     1      21.131  25.052  20.872  1.00  0.00     0.153 C
HETATM    4  C3  UNL     1      22.630  25.261  20.943  1.00  0.00     0.163 C
HETATM    5  C4  UNL     1      22.791  26.730  21.195  1.00  0.00     0.061 C
HETATM    6  C5  UNL     1      21.392  27.155  21.561  1.00  0.00     0.171 C
HETATM    7  O3  UNL     1      20.542  26.293  20.922  1.00  0.00    -0.383 OA
BRANCH   4   8
HETATM    8  O2  UNL     1      23.324  24.821  19.807  1.00  0.00    -0.314 OA
BRANCH   8   9
HETATM    9  C2  UNL     1      24.698  24.683  19.777  1.00  0.00     0.255 C
HETATM   10  C1  UNL     1      25.513  24.613  18.538  1.00  0.00     0.126 C
HETATM   11  O1  UNL     1      25.298  24.613  20.883  1.00  0.00    -0.266 OA
ENDBRANCH   8   9
ENDBRANCH   4   8
ENDBRANCH   2   3
ENDBRANCH   1   2
BRANCH   1  12
HETATM   12  N1  UNL     1      21.271  25.618  17.722  1.00  0.00    -0.334 N
HETATM   13  C9  UNL     1      21.592  26.964  17.381  1.00  0.00     0.319 C
HETATM   14  O4  UNL     1      20.821  27.882  17.841  1.00  0.00    -0.247 OA
HETATM   15  N2  UNL     1      22.674  27.382  16.588  1.00  0.00    -0.328 N
HETATM   16  C10 UNL     1      23.660  26.515  15.995  1.00  0.00     0.148 C
HETATM   17  C18 UNL     1      22.811  28.817  16.332  1.00  0.00     0.172 C
HETATM   18  C11 UNL     1      25.020  27.159  15.820  1.00  0.00     0.147 C
HETATM   19  N3  UNL     1      24.921  28.516  15.289  1.00  0.00    -0.370 N
HETATM   20  C17 UNL     1      23.603  28.906  15.037  1.00  0.00     0.083 C
ATOM     21  H1  UNL     1      21.859  24.861  17.372  1.00  0.00     0.165 HD
BRANCH  19  22
HETATM   22  C12 UNL     1      25.878  29.312  15.902  1.00  0.00     0.070 C
BRANCH  22  23
HETATM   23  C13 UNL     1      26.124  30.708  15.523  1.00  0.00     0.050 C
HETATM   24  C14 UNL     1      25.279  31.750  16.202  1.00  0.00     0.038 C
HETATM   25  C15 UNL     1      26.178  32.975  16.106  1.00  0.00     0.168 C
HETATM   26  O5  UNL     1      27.194  32.637  15.208  1.00  0.00    -0.390 OA
HETATM   27  C16 UNL     1      27.483  31.273  15.513  1.00  0.00     0.177 C
ENDBRANCH  22  23
ENDBRANCH  19  22
ENDBRANCH   1  12
BRANCH   1  28
HETATM   28  C19 UNL     1      18.954  24.722  17.834  1.00  0.00     0.012 C
BRANCH  28  29
HETATM   29  C20 UNL     1      18.272  25.629  16.926  1.00  0.00    -0.005 C
BRANCH  29  30
HETATM   30  C21 UNL     1      18.481  25.666  15.486  1.00  0.00    -0.033 C
HETATM   31  C22 UNL     1      17.139  25.590  14.706  1.00  0.00     0.018 C
HETATM   32  C23 UNL     1      19.273  26.678  14.797  1.00  0.00     0.018 C
HETATM   33  C24 UNL     1      19.127  24.294  15.105  1.00  0.00     0.018 C
ENDBRANCH  29  30
ENDBRANCH  28  29
BRANCH  28  34
HETATM   34  C25 UNL     1      18.242  23.892  18.807  1.00  0.00     0.216 C
HETATM   35  O6  UNL     1      17.707  24.552  19.756  1.00  0.00    -0.288 OA
BRANCH  34  36
HETATM   36  C26 UNL     1      18.016  22.459  18.906  1.00  0.00     0.432 C
BRANCH  36  37
HETATM   37  O7  UNL     1      19.000  21.774  18.142  1.00  0.00    -0.362 OA
ATOM     38  H7  UNL     1      19.185  22.267  17.352  1.00  0.00     0.212 HD
ENDBRANCH  36  37
BRANCH  36  39
HETATM   39  N4  UNL     1      16.736  22.006  18.234  1.00  0.00     0.125 N
BRANCH  39  40
HETATM   40  C27 UNL     1      16.368  22.970  17.270  1.00  0.00     0.281 C
BRANCH  40  41
HETATM   41  C28 UNL     1      15.377  22.485  16.254  1.00  0.00     0.014 C
HETATM   42  C29 UNL     1      16.110  22.142  14.952  1.00  0.00     0.006 C
HETATM   43  C30 UNL     1      15.159  21.243  14.177  1.00  0.00     0.000 C
HETATM   44  C31 UNL     1      13.716  21.555  14.539  1.00  0.00     0.000 C
HETATM   45  C32 UNL     1      13.530  23.055  14.758  1.00  0.00     0.000 C
HETATM   46  C33 UNL     1      14.305  23.531  15.971  1.00  0.00     0.006 C
ENDBRANCH  40  41
ENDBRANCH  39  40
BRANCH  39  47
HETATM   47  C34 UNL     1      15.827  21.716  19.294  1.00  0.00     0.281 C
BRANCH  47  48
HETATM   48  C35 UNL     1      15.164  20.400  19.281  1.00  0.00     0.014 C
HETATM   49  C36 UNL     1      13.775  20.471  18.578  1.00  0.00     0.006 C
HETATM   50  C37 UNL     1      14.104  19.203  17.882  1.00  0.00     0.001 C
HETATM   51  C38 UNL     1      15.555  19.511  18.083  1.00  0.00     0.006 C
ENDBRANCH  47  48
ENDBRANCH  39  47
ENDBRANCH  36  39
ENDBRANCH  34  36
ENDBRANCH  28  34
ENDBRANCH   1  28
TORSDOF 18
ENDMDL