MODEL 3
REMARK VINA RESULT: -8.433284953      5.501     13.267
REMARK  17 active torsions:
REMARK  status: ('A' for Active; 'I' for Inactive)
REMARK    1  A    between atoms: C2_2  and  C3_3
REMARK    2  A    between atoms: C3_3  and  C4_4
REMARK    3  A    between atoms: C4_4  and  C5_5
REMARK    4  A    between atoms: C5_5  and  O1_6
REMARK    5  A    between atoms: O1_6  and  C6_7
REMARK    6  A    between atoms: C6_7  and  C7_9
REMARK    7  A    between atoms: C7_9  and  N1_10
REMARK    8  A    between atoms: C7_9  and  C27_41
REMARK       I    between atoms: N1_10  and  C8_12
REMARK       I    between atoms: C8_12  and  N2_14
REMARK    9  A    between atoms: C12_18  and  C13_19
REMARK       I    between atoms: C13_19  and  N3_21
REMARK   10  A    between atoms: C17_25  and  C18_26
REMARK       I    between atoms: C18_26  and  N4_28
REMARK   11  A    between atoms: N4_28  and  C19_30
REMARK   12  A    between atoms: C19_30  and  C21_32
REMARK   13  A    between atoms: C19_30  and  C24_36
REMARK   14  A    between atoms: C21_32  and  C22_33
REMARK   15  A    between atoms: C22_33  and  O6_34
REMARK   16  A    between atoms: C24_36  and  O8_38
REMARK   17  A    between atoms: C27_41  and  C29_43
ROOT
HETATM    1  N1  UNL     1      13.746  19.494  16.149  1.00  0.00    -0.329 N
ATOM      2  H1  UNL     1      13.977  18.660  15.608  1.00  0.00     0.165 HD
HETATM    3  C8  UNL     1      12.505  19.554  16.828  1.00  0.00     0.319 C
HETATM    4  O3  UNL     1      12.240  20.598  17.494  1.00  0.00    -0.247 OA
HETATM    5  N2  UNL     1      11.523  18.528  16.821  1.00  0.00    -0.333 N
HETATM    6  C9  UNL     1      10.289  18.766  17.556  1.00  0.00     0.127 C
HETATM    7  C10 UNL     1      10.117  17.698  18.585  1.00  0.00     0.021 C
HETATM    8  C11 UNL     1      11.069  16.531  18.403  1.00  0.00     0.017 C
HETATM    9  C12 UNL     1      11.151  16.100  16.971  1.00  0.00     0.096 C
HETATM   10  C26 UNL     1      11.668  17.268  16.127  1.00  0.00     0.141 C
ENDROOT
BRANCH   1  11
HETATM   11  C7  UNL     1      14.709  20.602  16.204  1.00  0.00     0.189 C
BRANCH  11  12
HETATM   12  C6  UNL     1      15.792  20.318  17.161  1.00  0.00     0.283 C
HETATM   13  O2  UNL     1      15.597  19.446  18.015  1.00  0.00    -0.263 OA
BRANCH  12  14
HETATM   14  O1  UNL     1      16.978  20.958  17.148  1.00  0.00    -0.308 OA
BRANCH  14  15
HETATM   15  C5  UNL     1      17.419  22.018  17.980  1.00  0.00     0.071 C
HETATM   16  C31 UNL     1      18.546  22.788  17.214  1.00  0.00     0.038 C
HETATM   17  C32 UNL     1      18.188  22.995  15.800  1.00  0.00     0.003 C
HETATM   18  C33 UNL     1      17.900  24.384  15.369  1.00  0.00     0.000 C
HETATM   19  C34 UNL     1      17.900  25.419  16.457  1.00  0.00     0.000 C
HETATM   20  C35 UNL     1      16.636  25.318  17.242  1.00  0.00     0.000 C
HETATM   21  C36 UNL     1      16.648  24.404  18.412  1.00  0.00     0.003 C
HETATM   22  C37 UNL     1      16.297  22.990  18.066  1.00  0.00     0.038 C
BRANCH  15  23
HETATM   23  C4  UNL     1      18.018  21.578  19.244  1.00  0.00     0.038 C
BRANCH  23  24
HETATM   24  C3  UNL     1      19.226  22.202  19.785  1.00  0.00     0.002 C
BRANCH  24  25
HETATM   25  C2  UNL     1      19.171  23.270  20.801  1.00  0.00    -0.004 C
HETATM   26  C1  UNL     1      19.788  24.573  20.395  1.00  0.00     0.005 C
ENDBRANCH  24  25
ENDBRANCH  23  24
ENDBRANCH  15  23
ENDBRANCH  14  15
ENDBRANCH  12  14
ENDBRANCH  11  12
BRANCH  11  27
HETATM   27  C27 UNL     1      15.116  20.957  14.824  1.00  0.00     0.014 C
HETATM   28  C28 UNL     1      14.341  20.115  13.789  1.00  0.00     0.012 C
BRANCH  27  29
HETATM   29  C29 UNL     1      14.839  22.392  14.419  1.00  0.00     0.002 C
HETATM   30  C30 UNL     1      13.884  23.043  15.414  1.00  0.00     0.005 C
ENDBRANCH  27  29
ENDBRANCH  11  27
ENDBRANCH   1  11
BRANCH   9  31
HETATM   31  C13 UNL     1       9.905  15.561  16.443  1.00  0.00     0.226 C
HETATM   32  O4  UNL     1       8.769  16.007  16.858  1.00  0.00    -0.273 OA
HETATM   33  N3  UNL     1       9.824  14.540  15.469  1.00  0.00    -0.338 N
HETATM   34  C14 UNL     1       8.579  13.929  14.955  1.00  0.00     0.127 C
HETATM   35  C17 UNL     1      10.847  13.856  14.731  1.00  0.00     0.179 C
HETATM   36  C15 UNL     1       8.903  12.435  14.930  1.00  0.00     0.022 C
HETATM   37  C16 UNL     1      10.384  12.409  14.645  1.00  0.00     0.037 C
BRANCH  35  38
HETATM   38  C18 UNL     1      11.004  14.340  13.328  1.00  0.00     0.241 C
HETATM   39  O5  UNL     1      10.692  13.518  12.401  1.00  0.00    -0.271 OA
HETATM   40  N4  UNL     1      11.474  15.642  13.090  1.00  0.00    -0.341 N
ATOM     41  H4  UNL     1      11.706  16.221  13.898  1.00  0.00     0.163 HD
BRANCH  40  42
HETATM   42  C19 UNL     1      11.653  16.225  11.754  1.00  0.00     0.119 C
HETATM   43  C20 UNL     1      12.129  17.672  11.984  1.00  0.00     0.049 C
BRANCH  42  44
HETATM   44  C21 UNL     1      10.298  16.239  11.119  1.00  0.00     0.067 C
BRANCH  44  45
HETATM   45  C22 UNL     1       9.358  17.287  11.646  1.00  0.00     0.170 C
BRANCH  45  46
HETATM   46  O6  UNL     1       8.736  16.926  12.840  1.00  0.00    -0.396 OA
HETATM   47  C23 UNL     1       8.890  18.018  13.707  1.00  0.00     0.201 C
ENDBRANCH  45  46
ENDBRANCH  44  45
ENDBRANCH  42  44
BRANCH  42  48
HETATM   48  C24 UNL     1      12.695  15.510  11.028  1.00  0.00     0.286 C
HETATM   49  O7  UNL     1      12.464  14.823   9.973  1.00  0.00    -0.262 OA
BRANCH  48  50
HETATM   50  O8  UNL     1      14.007  15.547  11.462  1.00  0.00    -0.325 OA
HETATM   51  C25 UNL     1      15.127  15.206  10.678  1.00  0.00     0.213 C
ENDBRANCH  48  50
ENDBRANCH  42  48
ENDBRANCH  40  42
ENDBRANCH  35  38
ENDBRANCH   9  31
TORSDOF 17
ENDMDL