MODEL 3
REMARK VINA RESULT: -9.445133301      3.038      6.760
REMARK  18 active torsions:
REMARK  status: ('A' for Active; 'I' for Inactive)
REMARK    1  A    between atoms: C2_2  and  N1_3
REMARK    2  A    between atoms: C2_2  and  C23_33
REMARK    3  A    between atoms: N1_3  and  C3_5
REMARK    4  A    between atoms: C3_5  and  C4_6
REMARK    5  A    between atoms: N2_9  and  C7_10
REMARK    6  A    between atoms: C7_10  and  O1_11
REMARK    7  A    between atoms: C7_10  and  C8_13
REMARK    8  A    between atoms: C8_13  and  N3_14
REMARK       I    between atoms: N3_14  and  C9_16
REMARK    9  A    between atoms: C9_16  and  C10_18
REMARK   10  A    between atoms: C10_18  and  C11_19
REMARK   11  A    between atoms: C11_19  and  C12_20
REMARK   12  A    between atoms: C23_33  and  C24_34
REMARK   13  A    between atoms: C23_33  and  C32_47
REMARK   14  A    between atoms: C24_34  and  C25_35
REMARK   15  A    between atoms: C25_35  and  C26_36
REMARK   16  A    between atoms: C26_36  and  N4_37
REMARK   17  A    between atoms: N5_39  and  N6_40
REMARK   18  A    between atoms: C32_47  and  C33_48
ROOT
HETATM    1  C4  UNL     1      14.249  21.186  14.721  1.00  0.00     0.152 C
HETATM    2  C5  UNL     1      14.639  22.562  14.375  1.00  0.00     0.054 C
HETATM    3  C6  UNL     1      14.953  23.332  15.672  1.00  0.00     0.139 C
HETATM    4  N2  UNL     1      15.839  22.561  16.525  1.00  0.00    -0.275 N
HETATM    5  C22 UNL     1      16.236  21.238  16.071  1.00  0.00     0.369 C
HETATM    6  O3  UNL     1      17.411  20.853  16.311  1.00  0.00    -0.238 OA
HETATM    7  O4  UNL     1      15.277  20.500  15.402  1.00  0.00    -0.296 OA
ENDROOT
BRANCH   1   8
HETATM    8  C3  UNL     1      13.804  20.348  13.506  1.00  0.00     0.146 C
BRANCH   8   9
HETATM    9  N1  UNL     1      12.875  19.366  13.890  1.00  0.00    -0.415 N
ATOM     10  H1  UNL     1      13.069  18.803  14.718  1.00  0.00     0.153 HD
BRANCH   9  11
HETATM   11  C2  UNL     1      11.697  19.136  13.178  1.00  0.00     0.076 C
HETATM   12  C1  UNL     1      11.632  17.730  12.667  1.00  0.00     0.032 C
BRANCH  11  13
HETATM   13  C23 UNL     1      10.388  19.578  13.794  1.00  0.00     0.010 C
BRANCH  13  14
HETATM   14  C24 UNL     1      10.299  19.844  15.218  1.00  0.00     0.008 C
BRANCH  14  15
HETATM   15  C25 UNL     1       9.572  18.851  16.100  1.00  0.00     0.031 C
BRANCH  15  16
HETATM   16  C26 UNL     1      10.697  17.999  16.732  1.00  0.00     0.275 C
BRANCH  16  17
HETATM   17  N4  UNL     1      11.512  18.892  17.554  1.00  0.00     0.109 N
HETATM   18  C27 UNL     1      11.457  18.464  18.946  1.00  0.00     0.421 C
HETATM   19  N5  UNL     1      12.778  18.626  19.500  1.00  0.00    -0.230 N
HETATM   20  C28 UNL     1      13.626  19.180  18.477  1.00  0.00     0.075 C
HETATM   21  C29 UNL     1      13.655  20.680  18.547  1.00  0.00     0.042 C
HETATM   22  C30 UNL     1      15.026  18.589  18.534  1.00  0.00     0.042 C
HETATM   23  C31 UNL     1      12.909  18.755  17.223  1.00  0.00     0.306 C
BRANCH  19  24
HETATM   24  N6  UNL     1      13.158  18.303  20.791  1.00  0.00    -0.039 N
HETATM   25  O5  UNL     1      13.700  19.210  21.480  1.00  0.00    -0.516 OA
HETATM   26  O6  UNL     1      12.966  17.036  21.335  1.00  0.00    -0.516 OA
ENDBRANCH  19  24
ENDBRANCH  16  17
ENDBRANCH  15  16
ENDBRANCH  14  15
ENDBRANCH  13  14
BRANCH  13  27
HETATM   27  C32 UNL     1       9.872  20.623  12.880  1.00  0.00     0.038 C
BRANCH  27  28
HETATM   28  C33 UNL     1       8.453  20.949  12.725  1.00  0.00     0.121 C
HETATM   29  C34 UNL     1       8.018  22.304  13.123  1.00  0.00     0.034 C
HETATM   30  C35 UNL     1       6.906  22.657  12.119  1.00  0.00     0.029 C
HETATM   31  C36 UNL     1       6.882  21.454  11.241  1.00  0.00     0.168 C
HETATM   32  O7  UNL     1       8.152  20.900  11.331  1.00  0.00    -0.386 OA
ENDBRANCH  27  28
ENDBRANCH  13  27
ENDBRANCH  11  13
ENDBRANCH   9  11
ENDBRANCH   8   9
ENDBRANCH   1   8
BRANCH   4  33
HETATM   33  C7  UNL     1      16.294  23.057  17.746  1.00  0.00     0.151 C
BRANCH  33  34
HETATM   34  O1  UNL     1      15.344  23.603  18.483  1.00  0.00    -0.347 OA
ATOM     35  H1  UNL     1      15.343  24.553  18.461  1.00  0.00     0.219 HD
ENDBRANCH  33  34
BRANCH  33  36
HETATM   36  C8  UNL     1      17.588  23.099  18.374  1.00  0.00     0.098 C
HETATM   37  C18 UNL     1      17.825  21.816  19.197  1.00  0.00     0.040 C
HETATM   38  C19 UNL     1      19.150  22.125  19.912  1.00  0.00     0.003 C
HETATM   39  C20 UNL     1      19.275  23.631  19.964  1.00  0.00     0.003 C
HETATM   40  C21 UNL     1      17.911  24.118  19.402  1.00  0.00     0.040 C
BRANCH  36  41
HETATM   41  N3  UNL     1      18.678  23.147  17.372  1.00  0.00    -0.344 N
HETATM   42  C9  UNL     1      18.810  24.286  16.534  1.00  0.00     0.218 C
HETATM   43  O2  UNL     1      17.995  25.248  16.655  1.00  0.00    -0.274 OA
ATOM     44  H3  UNL     1      19.329  22.367  17.284  1.00  0.00     0.163 HD
BRANCH  42  45
HETATM   45  C10 UNL     1      19.876  24.385  15.517  1.00  0.00     0.103 C
BRANCH  45  46
HETATM   46  C11 UNL     1      19.724  25.680  14.790  1.00  0.00     0.014 C
BRANCH  46  47
HETATM   47  C12 UNL     1      21.023  26.344  14.401  1.00  0.00    -0.014 C
HETATM   48  C13 UNL     1      21.919  26.292  15.619  1.00  0.00     0.004 C
HETATM   49  C14 UNL     1      23.091  27.234  15.492  1.00  0.00     0.000 C
HETATM   50  C15 UNL     1      22.515  28.639  15.391  1.00  0.00     0.000 C
HETATM   51  C16 UNL     1      21.816  28.715  14.049  1.00  0.00     0.000 C
HETATM   52  C17 UNL     1      20.660  27.775  14.049  1.00  0.00     0.004 C
ENDBRANCH  46  47
ENDBRANCH  45  46
ENDBRANCH  42  45
ENDBRANCH  36  41
ENDBRANCH  33  36
ENDBRANCH   4  33
TORSDOF 18
ENDMDL