MODEL 2
REMARK VINA RESULT: -8.844138260      1.976      3.363
REMARK  18 active torsions:
REMARK  status: ('A' for Active; 'I' for Inactive)
REMARK    1  A    between atoms: C2_2  and  C3_3
REMARK    2  A    between atoms: C3_3  and  C4_4
REMARK    3  A    between atoms: C4_4  and  C5_5
REMARK    4  A    between atoms: C5_5  and  C6_6
REMARK    5  A    between atoms: C6_6  and  O1_7
REMARK    6  A    between atoms: O1_7  and  C7_8
REMARK       I    between atoms: C7_8  and  N1_10
REMARK       I    between atoms: N2_13  and  C10_14
REMARK    7  A    between atoms: C10_14  and  C11_16
REMARK    8  A    between atoms: C11_16  and  C12_17
REMARK    9  A    between atoms: C12_17  and  C13_18
REMARK   10  A    between atoms: C13_18  and  C14_19
REMARK   11  A    between atoms: C14_19  and  N3_20
REMARK   12  A    between atoms: N4_23  and  C17_24
REMARK   13  A    between atoms: C17_24  and  C18_25
REMARK   14  A    between atoms: C18_25  and  O4_26
REMARK   15  A    between atoms: C18_25  and  C19_28
REMARK   16  A    between atoms: C19_28  and  N5_31
REMARK       I    between atoms: N5_31  and  C22_33
REMARK   17  A    between atoms: C22_33  and  O6_35
REMARK   18  A    between atoms: O6_35  and  C23_36
ROOT
HETATM    1  N3  UNL     1      16.848  22.063  18.234  1.00  0.00     0.101 N
HETATM    2  C15 UNL     1      17.271  21.384  17.064  1.00  0.00     0.303 C
HETATM    3  C16 UNL     1      17.961  22.178  16.024  1.00  0.00     0.302 C
HETATM    4  N4  UNL     1      18.909  23.180  16.525  1.00  0.00     0.095 N
HETATM    5  C31 UNL     1      18.225  23.904  17.595  1.00  0.00     0.314 C
HETATM    6  C32 UNL     1      17.895  22.966  18.699  1.00  0.00     0.186 C
HETATM    7  C33 UNL     1      17.482  23.629  20.005  1.00  0.00     0.044 C
HETATM    8  C34 UNL     1      18.906  23.372  20.494  1.00  0.00     0.005 C
HETATM    9  C35 UNL     1      19.047  22.336  19.389  1.00  0.00     0.044 C
ENDROOT
BRANCH   1  10
HETATM   10  C14 UNL     1      15.584  22.685  18.251  1.00  0.00     0.273 C
BRANCH  10  11
HETATM   11  C13 UNL     1      14.652  22.070  17.225  1.00  0.00     0.031 C
BRANCH  11  12
HETATM   12  C12 UNL     1      14.166  23.152  16.305  1.00  0.00     0.011 C
BRANCH  12  13
HETATM   13  C11 UNL     1      14.255  22.851  14.864  1.00  0.00     0.103 C
BRANCH  13  14
HETATM   14  C10 UNL     1      14.152  21.450  14.459  1.00  0.00     0.219 C
HETATM   15  N2  UNL     1      12.904  20.796  14.264  1.00  0.00    -0.349 N
HETATM   16  C9  UNL     1      12.740  19.430  13.848  1.00  0.00     0.145 C
HETATM   17  C36 UNL     1      11.681  21.539  14.527  1.00  0.00     0.145 C
HETATM   18  C8  UNL     1      11.293  19.121  13.546  1.00  0.00     0.148 C
HETATM   19  N1  UNL     1      10.477  19.476  14.683  1.00  0.00    -0.325 N
HETATM   20  C7  UNL     1       9.356  18.669  15.082  1.00  0.00     0.362 C
HETATM   21  C37 UNL     1      10.778  20.676  15.428  1.00  0.00     0.148 C
HETATM   22  O2  UNL     1       8.687  18.989  16.087  1.00  0.00    -0.238 OA
HETATM   23  O3  UNL     1      15.187  20.727  14.257  1.00  0.00    -0.273 OA
BRANCH  20  24
HETATM   24  O1  UNL     1       8.993  17.541  14.375  1.00  0.00    -0.304 OA
BRANCH  24  25
HETATM   25  C6  UNL     1       9.037  16.257  14.972  1.00  0.00     0.180 C
BRANCH  25  26
HETATM   26  C5  UNL     1      10.489  15.909  15.209  1.00  0.00     0.027 C
BRANCH  26  27
HETATM   27  C4  UNL     1      10.832  15.655  16.638  1.00  0.00     0.002 C
BRANCH  27  28
HETATM   28  C3  UNL     1      11.450  16.828  17.355  1.00  0.00    -0.000 C
BRANCH  28  29
HETATM   29  C2  UNL     1      10.536  17.101  18.559  1.00  0.00    -0.005 C
HETATM   30  C1  UNL     1      11.299  17.840  19.609  1.00  0.00     0.005 C
ENDBRANCH  28  29
ENDBRANCH  27  28
ENDBRANCH  26  27
ENDBRANCH  25  26
ENDBRANCH  24  25
ENDBRANCH  20  24
ENDBRANCH  13  14
ENDBRANCH  12  13
ENDBRANCH  11  12
ENDBRANCH  10  11
ENDBRANCH   1  10
BRANCH   4  31
HETATM   31  C17 UNL     1      19.052  24.127  15.414  1.00  0.00     0.306 C
BRANCH  31  32
HETATM   32  C18 UNL     1      19.406  25.501  15.798  1.00  0.00     0.173 C
BRANCH  32  33
HETATM   33  O4  UNL     1      18.502  26.383  15.103  1.00  0.00    -0.391 OA
ATOM     34  H4  UNL     1      17.678  26.369  15.575  1.00  0.00     0.210 HD
ENDBRANCH  32  33
BRANCH  32  35
HETATM   35  C19 UNL     1      20.798  25.960  15.381  1.00  0.00     0.055 C
HETATM   36  C20 UNL     1      20.756  27.201  14.565  1.00  0.00     0.041 C
HETATM   37  C21 UNL     1      21.366  24.861  14.457  1.00  0.00     0.041 C
BRANCH  35  38
HETATM   38  N5  UNL     1      21.665  25.974  16.518  1.00  0.00    -0.326 N
HETATM   39  C22 UNL     1      21.543  26.983  17.493  1.00  0.00     0.361 C
HETATM   40  O5  UNL     1      20.687  27.875  17.390  1.00  0.00    -0.238 OA
ATOM     41  H5  UNL     1      22.375  25.249  16.624  1.00  0.00     0.165 HD
BRANCH  39  42
HETATM   42  O6  UNL     1      22.338  27.079  18.620  1.00  0.00    -0.296 OA
BRANCH  42  43
HETATM   43  C23 UNL     1      23.517  26.387  18.783  1.00  0.00     0.164 C
HETATM   44  C24 UNL     1      24.754  27.078  19.140  1.00  0.00     0.201 C
HETATM   45  O7  UNL     1      24.803  27.082  20.515  1.00  0.00    -0.383 OA
HETATM   46  C25 UNL     1      24.410  25.795  20.878  1.00  0.00     0.128 C
HETATM   47  C26 UNL     1      23.877  25.873  22.291  1.00  0.00     0.032 C
HETATM   48  C30 UNL     1      23.420  25.322  19.882  1.00  0.00     0.046 C
HETATM   49  C27 UNL     1      22.618  26.719  22.217  1.00  0.00     0.002 C
HETATM   50  C28 UNL     1      21.579  25.882  21.528  1.00  0.00     0.001 C
HETATM   51  C29 UNL     1      22.044  25.098  20.370  1.00  0.00     0.010 C
ENDBRANCH  42  43
ENDBRANCH  39  42
ENDBRANCH  35  38
ENDBRANCH  32  35
ENDBRANCH  31  32
ENDBRANCH   4  31
TORSDOF 18
ENDMDL