MODEL 4
REMARK VINA RESULT: -7.843471741      2.447      4.753
REMARK  16 active torsions:
REMARK  status: ('A' for Active; 'I' for Inactive)
REMARK    1  A    between atoms: C2_2  and  C18_28
REMARK    2  A    between atoms: C3_3  and  C4_4
REMARK    3  A    between atoms: C4_4  and  O2_6
REMARK    4  A    between atoms: O2_6  and  S1_7
REMARK    5  A    between atoms: S1_7  and  N1_10
REMARK    6  A    between atoms: N1_10  and  C5_12
REMARK    7  A    between atoms: C5_12  and  C6_13
REMARK    8  A    between atoms: C6_13  and  C7_14
REMARK    9  A    between atoms: C7_14  and  N2_15
REMARK   10  A    between atoms: C10_18  and  N3_19
REMARK   11  A    between atoms: C19_29  and  C21_31
REMARK   12  A    between atoms: C22_32  and  C23_33
REMARK   13  A    between atoms: C25_35  and  N5_37
REMARK   14  A    between atoms: C29_40  and  C30_41
REMARK   15  A    between atoms: C30_41  and  C31_42
REMARK   16  A    between atoms: C31_42  and  C32_43
ROOT
HETATM    1  C32 UNL     1      20.200  25.753  15.605  1.00  0.00     0.042 C
HETATM    2  C33 UNL     1      21.546  25.851  14.934  1.00  0.00     0.031 C
HETATM    3  C34 UNL     1      19.180  26.425  14.708  1.00  0.00     0.031 C
HETATM    4  C35 UNL     1      20.274  26.375  16.906  1.00  0.00     0.068 C
HETATM    5  N6  UNL     1      20.343  26.853  17.947  1.00  0.00    -0.196 NA
ENDROOT
BRANCH   1   6
HETATM    6  C31 UNL     1      19.854  24.267  15.726  1.00  0.00     0.024 C
BRANCH   6   7
HETATM    7  C30 UNL     1      18.413  24.087  16.040  1.00  0.00     0.010 C
BRANCH   7   8
HETATM    8  C29 UNL     1      18.135  23.221  17.218  1.00  0.00     0.040 C
HETATM    9  C25 UNL     1      17.594  23.913  18.419  1.00  0.00     0.178 C
HETATM   10  C24 UNL     1      16.668  22.946  19.002  1.00  0.00     0.022 C
HETATM   11  C26 UNL     1      16.874  25.200  18.086  1.00  0.00     0.054 C
HETATM   12  C23 UNL     1      16.426  21.908  18.224  1.00  0.00    -0.051 C
HETATM   13  C36 UNL     1      17.194  22.069  16.971  1.00  0.00    -0.014 C
HETATM   14  C37 UNL     1      18.001  20.822  16.626  1.00  0.00     0.020 C
HETATM   15  C38 UNL     1      16.163  22.354  15.892  1.00  0.00     0.020 C
BRANCH   9  16
HETATM   16  N5  UNL     1      18.639  24.134  19.411  1.00  0.00     0.093 N
HETATM   17  C27 UNL     1      19.537  22.997  19.525  1.00  0.00     0.310 C
HETATM   18  C28 UNL     1      18.193  24.604  20.676  1.00  0.00     0.310 C
ENDBRANCH   9  16
BRANCH  12  19
HETATM   19  C22 UNL     1      15.516  20.806  18.613  1.00  0.00     0.008 C
HETATM   20  C21 UNL     1      14.992  20.652  19.820  1.00  0.00     0.007 C
BRANCH  20  21
HETATM   21  C19 UNL     1      14.126  19.565  20.115  1.00  0.00    -0.061 C
HETATM   22  C18 UNL     1      13.346  18.880  19.373  1.00  0.00     0.013 C
HETATM   23  C20 UNL     1      14.072  19.200  21.612  1.00  0.00     0.048 C
BRANCH  22  24
HETATM   24  C2  UNL     1      13.097  18.893  17.958  1.00  0.00    -0.056 C
HETATM   25  C1  UNL     1      14.231  18.798  16.960  1.00  0.00     0.048 C
HETATM   26  C3  UNL     1      11.893  18.937  17.398  1.00  0.00     0.090 C
BRANCH  26  27
HETATM   27  C4  UNL     1      10.608  19.028  18.000  1.00  0.00     0.299 C
HETATM   28  O1  UNL     1      10.096  18.206  18.777  1.00  0.00    -0.259 OA
BRANCH  27  29
HETATM   29  O2  UNL     1       9.804  20.165  17.708  1.00  0.00    -0.176 OA
BRANCH  29  30
HETATM   30  S1  UNL     1       9.305  20.456  16.127  1.00  0.00     0.365 S
HETATM   31  O3  UNL     1       8.346  21.631  16.134  1.00  0.00    -0.175 OA
HETATM   32  O4  UNL     1       8.519  19.271  15.624  1.00  0.00    -0.175 OA
BRANCH  30  33
HETATM   33  N1  UNL     1      10.631  20.851  15.133  1.00  0.00    -0.296 N
ATOM     34  H1  UNL     1      11.342  21.537  15.391  1.00  0.00     0.174 HD
BRANCH  33  35
HETATM   35  C5  UNL     1      10.647  20.123  13.894  1.00  0.00     0.135 C
BRANCH  35  36
HETATM   36  C6  UNL     1      11.615  18.970  13.868  1.00  0.00     0.050 C
BRANCH  36  37
HETATM   37  C7  UNL     1      11.000  17.778  13.168  1.00  0.00     0.274 C
BRANCH  37  38
HETATM   38  N2  UNL     1      11.072  16.555  13.928  1.00  0.00     0.088 N
HETATM   39  C8  UNL     1      10.410  15.527  13.097  1.00  0.00     0.274 C
HETATM   40  C9  UNL     1      10.738  14.212  13.788  1.00  0.00     0.066 C
HETATM   41  C10 UNL     1       9.958  14.164  15.086  1.00  0.00     0.226 C
HETATM   42  C16 UNL     1      10.267  15.402  15.932  1.00  0.00     0.066 C
HETATM   43  C17 UNL     1      10.237  16.673  15.106  1.00  0.00     0.274 C
BRANCH  41  44
HETATM   44  N3  UNL     1      10.371  13.017  15.829  1.00  0.00     0.096 N
HETATM   45  C11 UNL     1       9.700  12.843  17.096  1.00  0.00     0.303 C
HETATM   46  C12 UNL     1       8.228  12.655  16.816  1.00  0.00     0.302 C
HETATM   47  N4  UNL     1       7.931  11.583  15.927  1.00  0.00     0.087 N
HETATM   48  C13 UNL     1       6.614  11.864  15.335  1.00  0.00     0.310 C
HETATM   49  C14 UNL     1       8.846  11.359  14.860  1.00  0.00     0.302 C
HETATM   50  C15 UNL     1      10.257  11.768  15.118  1.00  0.00     0.303 C
ENDBRANCH  41  44
ENDBRANCH  37  38
ENDBRANCH  36  37
ENDBRANCH  35  36
ENDBRANCH  33  35
ENDBRANCH  30  33
ENDBRANCH  29  30
ENDBRANCH  27  29
ENDBRANCH  26  27
ENDBRANCH  22  24
ENDBRANCH  20  21
ENDBRANCH  12  19
ENDBRANCH   7   8
ENDBRANCH   6   7
ENDBRANCH   1   6
TORSDOF 16
ENDMDL