MODEL 1
REMARK VINA RESULT: -8.579446706      0.000      0.000
REMARK  3 active torsions:
REMARK  status: ('A' for Active; 'I' for Inactive)
REMARK    1  A    between atoms: C3_3  and  N1_5
REMARK       I    between atoms: N2_10  and  C7_11
REMARK    2  A    between atoms: C12_17  and  C13_18
REMARK    3  A    between atoms: C13_18  and  O2_21
ROOT
HETATM    1  N1  UNL     1      11.790  45.993  42.872  1.00  0.00    -0.350 N
HETATM    2  C4  UNL     1      10.538  45.573  43.407  1.00  0.00     0.168 C
HETATM    3  C5  UNL     1      10.564  45.108  44.845  1.00  0.00     0.106 C
HETATM    4  C6  UNL     1       9.160  44.606  45.124  1.00  0.00     0.053 C
HETATM    5 BR1  UNL     1      10.742  46.687  46.005  1.00  0.00    -0.060 Br
HETATM    6  N2  UNL     1      11.567  44.128  45.111  1.00  0.00    -0.327 N
HETATM    7  C7  UNL     1      11.483  43.432  46.365  1.00  0.00     0.217 C
HETATM    8  C8  UNL     1      10.520  43.608  47.439  1.00  0.00     0.117 C
HETATM    9  O1  UNL     1      12.376  42.519  46.597  1.00  0.00    -0.274 OA
HETATM   10  C9  UNL     1      12.723  43.684  44.337  1.00  0.00     0.091 C
HETATM   11  C10 UNL     1      13.634  44.777  43.895  1.00  0.00     0.051 C
HETATM   12  C11 UNL     1      13.021  45.250  42.631  1.00  0.00     0.095 C
HETATM   13  C12 UNL     1      12.692  43.929  41.956  1.00  0.00     0.044 C
HETATM   14  C16 UNL     1      12.359  42.981  43.074  1.00  0.00     0.035 C
ENDROOT
BRANCH  13  15
HETATM   15  C13 UNL     1      13.790  43.356  41.143  1.00  0.00     0.056 C
HETATM   16  C14 UNL     1      14.366  42.080  41.734  1.00  0.00     0.045 C
HETATM   17  C15 UNL     1      14.952  44.368  41.181  1.00  0.00     0.045 C
BRANCH  15  18
HETATM   18  O2  UNL     1      13.534  43.149  39.811  1.00  0.00    -0.390 OA
ATOM     19  H2  UNL     1      12.984  42.408  39.588  1.00  0.00     0.210 HD
ENDBRANCH  15  18
ENDBRANCH  13  15
BRANCH   1  20
HETATM   20  C3  UNL     1      11.853  47.344  42.518  1.00  0.00     0.182 C
HETATM   21  C2  UNL     1      10.768  48.085  42.573  1.00  0.00     0.030 C
HETATM   22  C1  UNL     1      10.746  49.534  42.213  1.00  0.00     0.041 C
HETATM   23  F1  UNL     1      13.010  47.905  42.120  1.00  0.00    -0.187 F
ENDBRANCH   1  20
TORSDOF 3
ENDMDL