MODEL 2
REMARK VINA RESULT: -8.127529336      1.649      2.009
REMARK  2 active torsions:
REMARK  status: ('A' for Active; 'I' for Inactive)
REMARK    1  A    between atoms: O1_2  and  C2_3
REMARK    2  A    between atoms: C9_12  and  O3_13
ROOT
HETATM    1  C2  UNL     1      13.266  45.098  43.686  1.00  0.00     0.138 C
HETATM    2  C3  UNL     1      12.081  45.646  43.775  1.00  0.00    -0.042 C
HETATM    3  C4  UNL     1      11.519  46.991  43.519  1.00  0.00     0.070 C
HETATM    4  C5  UNL     1      10.318  46.202  42.943  1.00  0.00     0.026 C
HETATM    5  C6  UNL     1      10.736  45.230  44.104  1.00  0.00     0.057 C
HETATM    6  C7  UNL     1      10.122  45.743  45.356  1.00  0.00     0.099 C
HETATM    7  O2  UNL     1       9.895  47.129  45.180  1.00  0.00    -0.345 OA
HETATM    8  C8  UNL     1      11.125  47.663  44.818  1.00  0.00     0.173 C
HETATM    9 CL1  UNL     1      10.943  49.404  44.467  1.00  0.00    -0.084 Cl
HETATM   10  C9  UNL     1      12.244  47.497  45.772  1.00  0.00     0.187 C
HETATM   11  C10 UNL     1      12.007  46.576  46.916  1.00  0.00     0.122 C
HETATM   12 BR1  UNL     1      13.522  45.608  47.549  1.00  0.00    -0.084 Br
HETATM   13  C11 UNL     1      10.868  45.653  46.611  1.00  0.00    -0.031 C
HETATM   14  C12 UNL     1      10.427  44.800  47.562  1.00  0.00    -0.015 C
HETATM   15  C13 UNL     1       9.199  44.024  47.267  1.00  0.00     0.009 C
HETATM   16  C14 UNL     1       8.986  43.601  45.871  1.00  0.00     0.016 C
HETATM   17  C15 UNL     1       8.765  45.093  45.546  1.00  0.00     0.027 C
HETATM   18  C16 UNL     1       8.216  45.193  46.926  1.00  0.00     0.016 C
ENDROOT
BRANCH   1  19
HETATM   19  O1  UNL     1      13.541  43.781  43.993  1.00  0.00    -0.368 OA
HETATM   20  C1  UNL     1      14.760  43.423  44.564  1.00  0.00     0.208 C
ENDBRANCH   1  19
BRANCH  10  21
HETATM   21  O3  UNL     1      12.625  48.764  46.327  1.00  0.00    -0.390 OA
ATOM     22  H3  UNL     1      13.448  49.058  45.954  1.00  0.00     0.210 HD
ENDBRANCH  10  21
TORSDOF 2
ENDMDL