MODEL 3
REMARK VINA RESULT: -8.555897304      3.513      5.912
REMARK  2 active torsions:
REMARK  status: ('A' for Active; 'I' for Inactive)
REMARK    1  A    between atoms: C2_2  and  C3_3
REMARK    2  A    between atoms: C6_6  and  O1_7
ROOT
HETATM    1  C3  UNL     1      13.422  43.150  43.126  1.00  0.00     0.025 C
HETATM    2  C4  UNL     1      14.166  43.709  44.268  1.00  0.00     0.001 C
HETATM    3  C5  UNL     1      15.476  43.118  44.108  1.00  0.00     0.040 C
HETATM    4  C6  UNL     1      16.028  43.684  42.774  1.00  0.00     0.148 C
HETATM    5  C7  UNL     1      15.030  43.737  41.643  1.00  0.00     0.161 C
HETATM    6  O2  UNL     1      15.073  44.951  40.906  1.00  0.00    -0.382 OA
HETATM    7  C8  UNL     1      14.323  45.420  42.035  1.00  0.00     0.181 C
HETATM    8  C9  UNL     1      13.708  44.121  42.053  1.00  0.00     0.017 C
HETATM    9  C10 UNL     1      12.412  44.253  41.421  1.00  0.00     0.015 C
HETATM   10  C11 UNL     1      11.450  44.768  42.501  1.00  0.00     0.007 C
HETATM   11  C12 UNL     1      11.943  45.496  43.641  1.00  0.00     0.007 A
HETATM   12  C13 UNL     1      12.402  45.163  44.925  1.00  0.00     0.011 A
HETATM   13  C14 UNL     1      13.248  43.970  45.328  1.00  0.00    -0.004 C
HETATM   14  C15 UNL     1      12.437  42.908  46.003  1.00  0.00     0.007 C
HETATM   15  C16 UNL     1      11.928  43.501  47.302  1.00  0.00     0.025 C
HETATM   16  C17 UNL     1      10.736  44.374  47.232  1.00  0.00     0.084 C
HETATM   17  C18 UNL     1      10.995  45.858  47.121  1.00  0.00     0.104 C
HETATM   18  C19 UNL     1      10.579  46.408  45.739  1.00  0.00     0.255 C
HETATM   19  F1  UNL     1      11.383  47.470  45.453  1.00  0.00    -0.205 F
HETATM   20  F2  UNL     1       9.263  46.656  45.650  1.00  0.00    -0.205 F
HETATM   21  C20 UNL     1      11.040  45.224  44.859  1.00  0.00     0.050 A
HETATM   22  C21 UNL     1       9.967  44.306  44.934  1.00  0.00     0.133 C
HETATM   23  N1  UNL     1       9.781  43.863  46.325  1.00  0.00    -0.411 N
HETATM   24  C22 UNL     1       8.434  43.845  46.742  1.00  0.00     0.143 C
ENDROOT
BRANCH   1  25
HETATM   25  C2  UNL     1      13.693  41.744  42.732  1.00  0.00    -0.031 C
HETATM   26  C1  UNL     1      12.934  40.976  41.962  1.00  0.00     0.007 C
ENDBRANCH   1  25
BRANCH   4  27
HETATM   27  O1  UNL     1      17.085  42.855  42.406  1.00  0.00    -0.393 OA
ATOM     28  H1  UNL     1      17.866  43.395  42.429  1.00  0.00     0.210 HD
ENDBRANCH   4  27
TORSDOF 2
ENDMDL