MODEL 5
REMARK VINA RESULT: -6.580448023      3.581      5.981
REMARK  3 active torsions:
REMARK  status: ('A' for Active; 'I' for Inactive)
REMARK       I    between atoms: C2_2  and  N1_4
REMARK    1  A    between atoms: N1_4  and  C3_6
REMARK    2  A    between atoms: N2_8  and  N3_10
REMARK    3  A    between atoms: N3_10  and  C5_12
ROOT
HETATM    1  N3  UNL     1      12.507  43.248  46.684  1.00  0.00    -0.278 N
ATOM      2  H3  UNL     1      13.003  42.988  47.536  1.00  0.00     0.189 HD
ENDROOT
BRANCH   1   3
HETATM    3  N2  UNL     1      11.151  43.492  46.762  1.00  0.00    -0.287 N
HETATM    4  C3  UNL     1      10.663  44.648  47.134  1.00  0.00     0.094 C
HETATM    5  C4  UNL     1       9.199  44.859  47.203  1.00  0.00     0.090 C
ATOM      6  H2  UNL     1      10.503  42.742  46.520  1.00  0.00     0.188 HD
BRANCH   4   7
HETATM    7  N1  UNL     1      11.583  45.668  47.461  1.00  0.00    -0.316 N
HETATM    8  C2  UNL     1      11.854  46.718  46.583  1.00  0.00     0.218 C
HETATM    9  C1  UNL     1      12.844  47.789  46.972  1.00  0.00     0.117 C
HETATM   10  O1  UNL     1      11.300  46.811  45.469  1.00  0.00    -0.274 OA
ATOM     11  H1  UNL     1      12.062  45.636  48.362  1.00  0.00     0.170 HD
ENDBRANCH   4   7
ENDBRANCH   1   3
BRANCH   1  12
HETATM   12  C5  UNL     1      13.183  43.333  45.578  1.00  0.00     0.163 A
HETATM   13  C6  UNL     1      12.465  43.711  44.442  1.00  0.00     0.078 A
HETATM   14  C7  UNL     1      13.182  43.802  43.260  1.00  0.00     0.035 A
HETATM   15 BR1  UNL     1      12.266  44.312  41.673  1.00  0.00    -0.049 Br
HETATM   16  C8  UNL     1      14.536  43.529  43.242  1.00  0.00     0.057 A
HETATM   17 BR2  UNL     1      15.469  43.673  41.578  1.00  0.00    -0.047 Br
HETATM   18  C9  UNL     1      15.174  43.160  44.413  1.00  0.00     0.070 A
HETATM   19  C10 UNL     1      16.633  42.869  44.368  1.00  0.00     0.078 C
HETATM   20  O2  UNL     1      14.470  43.082  45.515  1.00  0.00    -0.296 OA
ENDBRANCH   1  12
TORSDOF 3
ENDMDL