MODEL 3
REMARK VINA RESULT: -7.148993780      2.534      4.009
REMARK  1 active torsions:
REMARK  status: ('A' for Active; 'I' for Inactive)
REMARK    1  A    between atoms: C5_6  and  C6_7
ROOT
HETATM    1  N1  UNL     1      10.758  49.156  42.215  1.00  0.00    -0.197 NA
HETATM    2  C1  UNL     1      10.790  48.113  42.733  1.00  0.00     0.068 C
HETATM    3  C2  UNL     1      10.843  46.793  43.367  1.00  0.00     0.119 C
HETATM    4  C3  UNL     1      11.509  45.766  42.522  1.00  0.00    -0.005 C
HETATM    5  C4  UNL     1      11.789  44.518  42.753  1.00  0.00     0.032 C
HETATM    6  C5  UNL     1      11.644  43.540  43.806  1.00  0.00     0.083 C
HETATM    7  O1  UNL     1      11.098  43.732  45.006  1.00  0.00    -0.264 OA
HETATM    8  C7  UNL     1      11.297  43.831  46.334  1.00  0.00     0.365 C
HETATM    9  O2  UNL     1      11.213  42.845  47.175  1.00  0.00    -0.238 OA
HETATM   10  N2  UNL     1      11.634  45.009  47.087  1.00  0.00    -0.332 N
ATOM     11  H2  UNL     1      12.327  44.894  47.827  1.00  0.00     0.165 HD
HETATM   12  C8  UNL     1      11.100  46.325  46.909  1.00  0.00     0.087 C
HETATM   13  C9  UNL     1      12.144  47.407  46.732  1.00  0.00     0.026 C
HETATM   14  C10 UNL     1      11.806  48.052  45.388  1.00  0.00     0.008 C
HETATM   15  C11 UNL     1      11.413  46.757  44.686  1.00  0.00     0.009 C
HETATM   16  C12 UNL     1      10.319  46.375  45.656  1.00  0.00     0.031 C
ENDROOT
BRANCH   6  17
HETATM   17  C6  UNL     1      12.956  42.701  43.832  1.00  0.00     0.186 C
HETATM   18 BR1  UNL     1      14.379  43.642  44.685  1.00  0.00    -0.072 Br
HETATM   19 BR2  UNL     1      13.444  42.161  42.057  1.00  0.00    -0.072 Br
ENDBRANCH   6  17
TORSDOF 1
ENDMDL