MODEL 4
REMARK VINA RESULT: -5.143089479      1.829      2.118
REMARK  3 active torsions:
REMARK  status: ('A' for Active; 'I' for Inactive)
REMARK    1  A    between atoms: N1_2  and  C3_4
REMARK    2  A    between atoms: C3_4  and  N2_6
REMARK       I    between atoms: N2_6  and  C4_8
REMARK    3  A    between atoms: C4_8  and  C5_10
ROOT
HETATM    1  N2  UNL     1      14.327  44.016  42.417  1.00  0.00    -0.299 N
ATOM      2  H2  UNL     1      14.831  44.852  42.715  1.00  0.00     0.171 HD
HETATM    3  C4  UNL     1      12.940  43.918  42.646  1.00  0.00     0.264 C
HETATM    4  O1  UNL     1      12.258  42.941  42.316  1.00  0.00    -0.267 OA
ENDROOT
BRANCH   3   5
HETATM    5  C5  UNL     1      12.262  45.049  43.318  1.00  0.00     0.075 A
HETATM    6  C6  UNL     1      11.365  45.020  44.349  1.00  0.00     0.045 A
HETATM    7  C7  UNL     1      10.890  46.208  44.782  1.00  0.00     0.036 A
HETATM    8 BR1  UNL     1       9.613  46.361  46.234  1.00  0.00    -0.049 Br
HETATM    9  C8  UNL     1      11.345  47.328  44.154  1.00  0.00     0.069 A
HETATM   10 BR2  UNL     1      10.886  49.165  44.507  1.00  0.00    -0.042 Br
HETATM   11  S2  UNL     1      12.419  46.710  42.980  1.00  0.00    -0.076 SA
ENDBRANCH   3   5
BRANCH   1  12
HETATM   12  C3  UNL     1      15.043  42.947  41.766  1.00  0.00     0.176 C
HETATM   13  S1  UNL     1      15.300  43.027  40.176  1.00  0.00    -0.041 SA
BRANCH  12  14
HETATM   14  N1  UNL     1      15.524  41.833  42.499  1.00  0.00    -0.367 N
HETATM   15  C1  UNL     1      15.171  40.498  42.079  1.00  0.00     0.151 C
HETATM   16  C2  UNL     1      16.363  42.081  43.655  1.00  0.00     0.151 C
ENDBRANCH  12  14
ENDBRANCH   1  12
TORSDOF 3
ENDMDL