MODEL 5
REMARK VINA RESULT: -7.038733607      1.921      4.546
REMARK  2 active torsions:
REMARK  status: ('A' for Active; 'I' for Inactive)
REMARK    1  A    between atoms: O1_2  and  C2_3
REMARK    2  A    between atoms: C7_10  and  O2_12
ROOT
HETATM    1  C2  UNL     1      10.706  45.182  45.971  1.00  0.00     0.135 C
HETATM    2 BR1  UNL     1       8.968  45.275  46.868  1.00  0.00    -0.053 Br
HETATM    3  C3  UNL     1      11.299  46.530  46.016  1.00  0.00     0.053 C
HETATM    4  C4  UNL     1      12.272  46.847  44.920  1.00  0.00     0.033 C
HETATM    5  C5  UNL     1      11.723  46.593  43.538  1.00  0.00     0.083 C
HETATM    6 BR2  UNL     1      11.216  48.316  42.809  1.00  0.00    -0.077 Br
HETATM    7  C6  UNL     1      12.801  46.028  42.686  1.00  0.00     0.070 C
HETATM    8  C7  UNL     1      12.612  44.612  42.264  1.00  0.00     0.073 C
HETATM    9  C8  UNL     1      13.891  44.200  41.539  1.00  0.00     0.050 C
HETATM   10  C9  UNL     1      12.279  43.634  43.272  1.00  0.00     0.007 C
HETATM   11  C10 UNL     1      11.379  43.642  44.227  1.00  0.00    -0.007 C
HETATM   12  C11 UNL     1      10.406  44.706  44.556  1.00  0.00     0.077 C
HETATM   13  C12 UNL     1       9.009  44.082  44.471  1.00  0.00     0.032 C
HETATM   14  C13 UNL     1      10.498  45.774  43.573  1.00  0.00     0.162 C
HETATM   15  O3  UNL     1       9.603  45.995  42.800  1.00  0.00    -0.295 OA
ENDROOT
BRANCH   1  16
HETATM   16  O1  UNL     1      11.409  44.189  46.617  1.00  0.00    -0.372 OA
HETATM   17  C1  UNL     1      10.857  43.655  47.738  1.00  0.00     0.204 C
ENDBRANCH   1  16
BRANCH   8  18
HETATM   18  O2  UNL     1      11.608  44.589  41.268  1.00  0.00    -0.386 OA
ATOM     19  H2  UNL     1      11.777  43.844  40.703  1.00  0.00     0.211 HD
ENDBRANCH   8  18
TORSDOF 2
ENDMDL