MODEL 4
REMARK VINA RESULT: -6.968579375      2.915      4.989
REMARK  1 active torsions:
REMARK  status: ('A' for Active; 'I' for Inactive)
REMARK    1  A    between atoms: C7_9  and  C9_11
ROOT
HETATM    1  C1  UNL     1      16.363  43.161  40.882  1.00  0.00     0.036 C
HETATM    2  C2  UNL     1      15.410  44.292  40.866  1.00  0.00    -0.023 C
HETATM    3  C3  UNL     1      14.506  44.404  41.819  1.00  0.00    -0.049 C
HETATM    4  C4  UNL     1      14.290  43.522  42.964  1.00  0.00     0.022 C
HETATM    5  C5  UNL     1      13.154  43.784  43.574  1.00  0.00     0.038 C
HETATM    6  C6  UNL     1      12.231  43.464  44.659  1.00  0.00     0.291 C
HETATM    7  O1  UNL     1      12.365  42.486  45.462  1.00  0.00    -0.260 OA
HETATM    8  O2  UNL     1      11.197  44.388  44.670  1.00  0.00    -0.301 OA
HETATM    9  C7  UNL     1      11.655  45.512  43.941  1.00  0.00     0.107 C
HETATM   10  C8  UNL     1      10.425  46.140  43.294  1.00  0.00     0.053 C
HETATM   11  C11 UNL     1      12.480  44.898  42.870  1.00  0.00     0.103 A
HETATM   12  C12 UNL     1      12.126  44.910  41.480  1.00  0.00     0.154 A
HETATM   13  O3  UNL     1      11.387  44.683  40.550  1.00  0.00    -0.296 OA
HETATM   14  C13 UNL     1      13.447  45.462  42.003  1.00  0.00     0.113 A
ENDROOT
BRANCH   9  15
HETATM   15  C9  UNL     1      12.366  46.491  44.774  1.00  0.00     0.039 C
HETATM   16  C10 UNL     1      11.833  46.867  45.928  1.00  0.00     0.056 C
HETATM   17 BR1  UNL     1      12.717  48.143  47.056  1.00  0.00    -0.043 Br
HETATM   18 BR2  UNL     1      10.171  46.162  46.520  1.00  0.00    -0.043 Br
ENDBRANCH   9  15
TORSDOF 1
ENDMDL