MODEL 4
REMARK VINA RESULT: -6.916948926      1.412      1.463
REMARK  2 active torsions:
REMARK  status: ('A' for Active; 'I' for Inactive)
REMARK    1  A    between atoms: C2_2  and  C3_4
REMARK    2  A    between atoms: C8_10  and  O3_11
ROOT
HETATM    1  C3  UNL     1      13.232  44.434  44.512  1.00  0.00     0.048 C
HETATM    2  C4  UNL     1      14.524  44.419  45.295  1.00  0.00     0.025 C
HETATM    3  C5  UNL     1      15.335  43.258  44.752  1.00  0.00     0.034 C
HETATM    4  C6  UNL     1      15.586  43.348  43.289  1.00  0.00     0.126 C
HETATM    5  O2  UNL     1      16.279  42.260  42.839  1.00  0.00    -0.383 OA
HETATM    6  C7  UNL     1      16.788  42.595  41.563  1.00  0.00     0.199 C
HETATM    7  C8  UNL     1      15.616  42.681  40.632  1.00  0.00     0.142 C
HETATM    8  C9  UNL     1      14.809  43.918  41.051  1.00  0.00     0.041 C
HETATM    9  C10 UNL     1      14.304  43.587  42.465  1.00  0.00     0.023 C
HETATM   10  C11 UNL     1      13.635  44.696  43.102  1.00  0.00     0.013 C
HETATM   11  C12 UNL     1      12.463  45.375  42.466  1.00  0.00     0.017 C
HETATM   12  C13 UNL     1      12.377  46.503  43.509  1.00  0.00     0.033 C
HETATM   13  C14 UNL     1      12.410  45.666  44.782  1.00  0.00    -0.059 C
HETATM   14  C15 UNL     1      11.726  46.260  45.714  1.00  0.00     0.015 C
HETATM   15  C16 UNL     1      11.175  47.527  45.159  1.00  0.00     0.208 C
HETATM   16  F1  UNL     1       9.951  47.859  45.659  1.00  0.00    -0.244 F
HETATM   17  C17 UNL     1      11.061  47.145  43.659  1.00  0.00     0.103 C
HETATM   18 BR1  UNL     1      10.881  48.737  42.612  1.00  0.00    -0.087 Br
ENDROOT
BRANCH   1  19
HETATM   19  C2  UNL     1      12.448  43.217  44.761  1.00  0.00     0.136 C
HETATM   20  C1  UNL     1      12.028  42.948  46.166  1.00  0.00     0.092 C
HETATM   21  O1  UNL     1      12.100  42.397  43.949  1.00  0.00    -0.297 OA
ENDBRANCH   1  19
BRANCH   7  22
HETATM   22  O3  UNL     1      15.951  42.712  39.301  1.00  0.00    -0.393 OA
ATOM     23  H3  UNL     1      15.619  41.979  38.796  1.00  0.00     0.210 HD
ENDBRANCH   7  22
TORSDOF 2
ENDMDL