MODEL 3
REMARK VINA RESULT: -5.952705772      1.611      1.630
REMARK  1 active torsions:
REMARK  status: ('A' for Active; 'I' for Inactive)
REMARK       I    between atoms: C1_2  and  N1_3
REMARK    1  A    between atoms: C1_2  and  C5_11
ROOT
HETATM    1  O1  UNL     1      12.123  43.262  42.150  1.00  0.00    -0.267 OA
HETATM    2  C1  UNL     1      12.959  44.192  42.180  1.00  0.00     0.264 C
HETATM    3  N1  UNL     1      14.327  44.013  41.888  1.00  0.00    -0.303 N
ATOM      4  H1  UNL     1      14.998  44.370  42.569  1.00  0.00     0.171 HD
HETATM    5  C2  UNL     1      14.796  43.452  40.859  1.00  0.00     0.142 C
HETATM    6  N2  UNL     1      14.108  42.879  39.771  1.00  0.00    -0.370 N
ATOM      7  H2  UNL     1      13.156  43.142  39.517  1.00  0.00     0.161 HD
HETATM    8  C3  UNL     1      14.857  41.900  39.055  1.00  0.00     0.132 C
HETATM    9  C4  UNL     1      16.284  42.426  38.856  1.00  0.00     0.102 C
HETATM   10  S1  UNL     1      16.527  43.232  40.498  1.00  0.00    -0.092 SA
ENDROOT
BRANCH   2  11
HETATM   11  C5  UNL     1      12.443  45.536  42.546  1.00  0.00     0.075 A
HETATM   12  C6  UNL     1      12.300  46.078  43.794  1.00  0.00     0.045 A
HETATM   13  C7  UNL     1      11.804  47.327  43.866  1.00  0.00     0.036 A
HETATM   14 BR1  UNL     1      11.535  48.251  45.553  1.00  0.00    -0.049 Br
HETATM   15  C8  UNL     1      11.488  47.947  42.692  1.00  0.00     0.069 A
HETATM   16 BR2  UNL     1      10.764  49.720  42.446  1.00  0.00    -0.042 Br
HETATM   17  S2  UNL     1      11.885  46.778  41.517  1.00  0.00    -0.076 SA
ENDBRANCH   2  11
TORSDOF 1
ENDMDL