MODEL 2
REMARK VINA RESULT: -7.303985181      0.964      1.111
REMARK  11 active torsions:
REMARK  status: ('A' for Active; 'I' for Inactive)
REMARK    1  A    between atoms: C4_4  and  N1_5
REMARK    2  A    between atoms: N1_5  and  C5_7
REMARK    3  A    between atoms: C5_7  and  C6_8
REMARK    4  A    between atoms: C6_8  and  N2_9
REMARK    5  A    between atoms: N2_9  and  C7_12
REMARK    6  A    between atoms: C7_12  and  C8_13
REMARK    7  A    between atoms: C8_13  and  O1_14
REMARK    8  A    between atoms: C9_18  and  N4_19
REMARK    9  A    between atoms: N4_19  and  C10_21
REMARK   10  A    between atoms: C10_21  and  C11_22
REMARK   11  A    between atoms: C11_22  and  C12_23
ROOT
HETATM    1  C1  UNL     1       7.816  16.166 -34.000  1.00  0.00     0.069 C
HETATM    2  C2  UNL     1       7.642  15.863 -32.576  1.00  0.00     0.026 A
HETATM    3  C3  UNL     1       6.590  16.430 -31.883  1.00  0.00     0.073 A
HETATM    4  C4  UNL     1       6.437  16.144 -30.553  1.00  0.00     0.118 A
HETATM    5  N3  UNL     1       7.309  15.323 -29.953  1.00  0.00    -0.177 N
ATOM      6  H3  UNL     1       7.185  15.118 -28.961  1.00  0.00     0.185 HD
HETATM    7  C9  UNL     1       8.362  14.749 -30.615  1.00  0.00     0.679 A
HETATM    8  N5  UNL     1       8.499  15.037 -31.914  1.00  0.00    -0.196 N
ATOM      9  H5  UNL     1       9.275  14.621 -32.429  1.00  0.00     0.184 HD
ENDROOT
BRANCH   4  10
HETATM   10  N1  UNL     1       5.487  16.630 -29.827  1.00  0.00    -0.374 N
ATOM     11  H1  UNL     1       4.544  16.287 -30.012  1.00  0.00     0.161 HD
BRANCH  10  12
HETATM   12  C5  UNL     1       5.627  17.605 -28.789  1.00  0.00     0.148 C
BRANCH  12  13
HETATM   13  C6  UNL     1       4.964  18.882 -29.307  1.00  0.00     0.251 C
BRANCH  13  14
HETATM   14  N2  UNL     1       4.393  19.611 -28.227  1.00  0.00    -0.072 N
ATOM     15  H22 UNL     1       4.355  20.612 -28.423  1.00  0.00     0.277 HD
ATOM     16  H21 UNL     1       3.392  19.434 -28.138  1.00  0.00     0.277 HD
BRANCH  14  17
HETATM   17  C7  UNL     1       5.097  19.334 -26.996  1.00  0.00     0.258 C
BRANCH  17  18
HETATM   18  C8  UNL     1       5.176  20.686 -26.263  1.00  0.00     0.191 C
BRANCH  18  19
HETATM   19  O1  UNL     1       5.267  21.649 -27.252  1.00  0.00    -0.399 OA
ATOM     20  H1  UNL     1       5.834  22.327 -26.904  1.00  0.00     0.209 HD
ENDBRANCH  18  19
ENDBRANCH  17  18
ENDBRANCH  14  17
ENDBRANCH  13  14
ENDBRANCH  12  13
ENDBRANCH  10  12
ENDBRANCH   4  10
BRANCH   7  21
HETATM   21  N4  UNL     1       9.141  13.977 -29.955  1.00  0.00    -0.226 N
ATOM     22  H4  UNL     1       8.790  13.028 -29.831  1.00  0.00     0.177 HD
BRANCH  21  23
HETATM   23  C10 UNL     1      10.401  14.217 -29.372  1.00  0.00     0.138 C
BRANCH  23  24
HETATM   24  C11 UNL     1      11.517  13.409 -30.006  1.00  0.00     0.025 C
BRANCH  24  25
HETATM   25  C12 UNL     1      12.107  14.197 -31.167  1.00  0.00    -0.013 C
HETATM   26  C13 UNL     1      13.599  14.225 -31.036  1.00  0.00     0.005 C
HETATM   27  C14 UNL     1      14.071  13.031 -31.830  1.00  0.00     0.000 C
HETATM   28  C15 UNL     1      13.107  13.040 -33.010  1.00  0.00     0.000 C
HETATM   29  C16 UNL     1      11.817  13.556 -32.469  1.00  0.00     0.005 C
ENDBRANCH  24  25
ENDBRANCH  23  24
ENDBRANCH  21  23
ENDBRANCH   7  21
TORSDOF 11
ENDMDL