MODEL 4
REMARK VINA RESULT: -6.542781276      1.930      5.614
REMARK  12 active torsions:
REMARK  status: ('A' for Active; 'I' for Inactive)
REMARK    1  A    between atoms: N1_3  and  C3_5
REMARK    2  A    between atoms: C4_8  and  N3_9
REMARK    3  A    between atoms: C5_14  and  C6_15
REMARK    4  A    between atoms: C7_16  and  C8_17
REMARK    5  A    between atoms: C8_17  and  O1_18
REMARK    6  A    between atoms: O1_18  and  C9_19
REMARK    7  A    between atoms: C9_19  and  C10_20
REMARK    8  A    between atoms: C12_22  and  C13_23
REMARK    9  A    between atoms: C13_23  and  O2_24
REMARK   10  A    between atoms: O2_24  and  C14_25
REMARK   11  A    between atoms: C14_25  and  C15_26
REMARK   12  A    between atoms: C15_26  and  C16_27
ROOT
HETATM    1  C1  UNL     1      10.907  13.985 -30.536  1.00  0.00     0.123 C
HETATM    2  C2  UNL     1       9.720  14.179 -30.327  1.00  0.00    -0.074 C
HETATM    3  N1  UNL     1       8.367  14.419 -30.072  1.00  0.00    -0.311 N
ATOM      4  H1  UNL     1       7.900  13.882 -29.342  1.00  0.00     0.177 HD
ENDROOT
BRANCH   3   5
HETATM    5  C3  UNL     1       7.691  15.292 -30.728  1.00  0.00     0.139 A
HETATM    6  N2  UNL     1       7.642  15.282 -32.055  1.00  0.00    -0.176 N
HETATM    7  C4  UNL     1       6.919  16.219 -32.692  1.00  0.00     0.678 A
ATOM      8  H2  UNL     1       8.146  14.571 -32.585  1.00  0.00     0.186 HD
HETATM    9  N4  UNL     1       6.250  17.164 -32.015  1.00  0.00    -0.183 N
HETATM   10  C5  UNL     1       6.258  17.233 -30.641  1.00  0.00     0.115 A
ATOM     11  H4  UNL     1       5.715  17.857 -32.538  1.00  0.00     0.185 HD
HETATM   12  C12 UNL     1       6.992  16.278 -29.994  1.00  0.00     0.047 A
BRANCH   7  13
HETATM   13  N3  UNL     1       6.876  16.202 -33.978  1.00  0.00    -0.234 N
ATOM     14  H32 UNL     1       6.545  15.368 -34.463  1.00  0.00     0.174 HD
ATOM     15  H31 UNL     1       7.177  17.030 -34.491  1.00  0.00     0.174 HD
ENDBRANCH   7  13
BRANCH  10  16
HETATM   16  C6  UNL     1       5.542  18.288 -29.991  1.00  0.00    -0.045 C
HETATM   17  C7  UNL     1       4.974  19.188 -29.433  1.00  0.00    -0.073 C
BRANCH  17  18
HETATM   18  C8  UNL     1       4.298  20.305 -28.730  1.00  0.00     0.261 C
BRANCH  18  19
HETATM   19  O1  UNL     1       5.176  21.008 -27.929  1.00  0.00    -0.376 OA
BRANCH  19  20
HETATM   20  C9  UNL     1       4.992  20.674 -26.603  1.00  0.00     0.195 C
BRANCH  20  21
HETATM   21  C10 UNL     1       6.227  20.402 -25.848  1.00  0.00    -0.011 C
HETATM   22  C11 UNL     1       6.275  19.536 -24.846  1.00  0.00     0.009 C
ENDBRANCH  20  21
ENDBRANCH  19  20
ENDBRANCH  18  19
ENDBRANCH  17  18
ENDBRANCH  10  16
BRANCH  12  23
HETATM   23  C13 UNL     1       7.106  16.230 -28.544  1.00  0.00     0.213 C
BRANCH  23  24
HETATM   24  O2  UNL     1       8.346  16.542 -28.047  1.00  0.00    -0.386 OA
BRANCH  24  25
HETATM   25  C14 UNL     1       8.292  17.846 -27.500  1.00  0.00     0.168 C
BRANCH  25  26
HETATM   26  C15 UNL     1       9.580  18.186 -26.822  1.00  0.00     0.026 C
BRANCH  26  27
HETATM   27  C16 UNL     1      10.019  19.607 -27.075  1.00  0.00    -0.002 C
HETATM   28  C17 UNL     1      10.018  20.292 -25.702  1.00  0.00     0.005 C
ENDBRANCH  26  27
ENDBRANCH  25  26
ENDBRANCH  24  25
ENDBRANCH  23  24
ENDBRANCH  12  23
ENDBRANCH   3   5
TORSDOF 12
ENDMDL