MODEL 2
REMARK VINA RESULT: -7.161353473      2.649      7.019
REMARK  10 active torsions:
REMARK  status: ('A' for Active; 'I' for Inactive)
REMARK    1  A    between atoms: C3_4  and  C4_5
REMARK    2  A    between atoms: C4_5  and  N2_6
REMARK    3  A    between atoms: N2_6  and  C5_7
REMARK    4  A    between atoms: N2_6  and  C8_12
REMARK    5  A    between atoms: C5_7  and  C6_8
REMARK    6  A    between atoms: C6_8  and  C7_9
REMARK    7  A    between atoms: C7_9  and  O1_10
REMARK    8  A    between atoms: C8_12  and  C9_13
REMARK    9  A    between atoms: C9_13  and  C10_14
REMARK   10  A    between atoms: N3_20  and  N4_21
ROOT
HETATM    1  N2  UNL     1       7.612  15.599 -30.295  1.00  0.00     0.090 N
ENDROOT
BRANCH   1   2
HETATM    2  C4  UNL     1       8.906  15.570 -30.820  1.00  0.00     0.301 C
BRANCH   2   3
HETATM    3  C3  UNL     1       9.513  14.265 -31.216  1.00  0.00     0.172 C
HETATM    4  C2  UNL     1      10.546  13.941 -30.123  1.00  0.00     0.170 C
HETATM    5  N1  UNL     1      11.777  13.710 -30.828  1.00  0.00    -0.219 N
HETATM    6  C1  UNL     1      13.043  13.469 -30.145  1.00  0.00     0.168 C
HETATM    7  C16 UNL     1      11.534  13.758 -32.224  1.00  0.00     0.690 C
HETATM    8  N3  UNL     1      10.285  14.368 -32.432  1.00  0.00    -0.123 N
HETATM    9  N5  UNL     1      12.347  13.305 -33.161  1.00  0.00    -0.233 N
ATOM     10  H52 UNL     1      13.253  12.861 -33.010  1.00  0.00     0.174 HD
ATOM     11  H51 UNL     1      12.172  13.339 -34.165  1.00  0.00     0.174 HD
BRANCH   8  12
HETATM   12  N4  UNL     1       9.856  14.974 -33.602  1.00  0.00    -0.328 N
ATOM     13  H42 UNL     1       8.952  14.836 -34.054  1.00  0.00     0.177 HD
ATOM     14  H41 UNL     1      10.400  15.634 -34.156  1.00  0.00     0.177 HD
ENDBRANCH   8  12
ENDBRANCH   2   3
ENDBRANCH   1   2
BRANCH   1  15
HETATM   15  C5  UNL     1       6.677  15.597 -31.462  1.00  0.00     0.274 C
BRANCH  15  16
HETATM   16  C6  UNL     1       6.733  16.867 -32.234  1.00  0.00     0.056 C
BRANCH  16  17
HETATM   17  C7  UNL     1       6.834  16.508 -33.716  1.00  0.00     0.165 C
BRANCH  17  18
HETATM   18  O1  UNL     1       7.887  17.216 -34.300  1.00  0.00    -0.401 OA
ATOM     19  H1  UNL     1       8.326  17.738 -33.639  1.00  0.00     0.209 HD
ENDBRANCH  17  18
ENDBRANCH  16  17
ENDBRANCH  15  16
ENDBRANCH   1  15
BRANCH   1  20
HETATM   20  C8  UNL     1       7.163  16.715 -29.522  1.00  0.00     0.273 C
BRANCH  20  21
HETATM   21  C9  UNL     1       5.801  16.685 -28.954  1.00  0.00     0.034 C
BRANCH  21  22
HETATM   22  C10 UNL     1       5.406  18.042 -28.425  1.00  0.00    -0.013 C
HETATM   23  C11 UNL     1       5.108  19.060 -29.473  1.00  0.00     0.005 C
HETATM   24  C12 UNL     1       4.528  20.277 -28.751  1.00  0.00     0.000 C
HETATM   25  C13 UNL     1       4.557  20.128 -27.264  1.00  0.00     0.000 C
HETATM   26  C14 UNL     1       5.874  19.674 -26.713  1.00  0.00     0.000 C
HETATM   27  C15 UNL     1       6.525  18.584 -27.570  1.00  0.00     0.005 C
ENDBRANCH  21  22
ENDBRANCH  20  21
ENDBRANCH   1  20
TORSDOF 10
ENDMDL