MODEL 5
REMARK VINA RESULT: -6.627922732      3.170      3.720
REMARK  12 active torsions:
REMARK  status: ('A' for Active; 'I' for Inactive)
REMARK    1  A    between atoms: C2_2  and  C3_3
REMARK    2  A    between atoms: C3_3  and  C4_4
REMARK    3  A    between atoms: C5_5  and  C6_6
REMARK    4  A    between atoms: C6_6  and  C7_7
REMARK    5  A    between atoms: C7_7  and  C8_8
REMARK    6  A    between atoms: C8_8  and  C9_9
REMARK    7  A    between atoms: C9_9  and  C10_10
REMARK    8  A    between atoms: C10_10  and  N1_11
REMARK    9  A    between atoms: N1_11  and  N2_12
REMARK   10  A    between atoms: C13_19  and  O1_20
REMARK   11  A    between atoms: C14_22  and  O2_23
REMARK   12  A    between atoms: C15_25  and  O3_26
ROOT
HETATM    1  C3  UNL     1       9.671  14.795 -29.124  1.00  0.00     0.010 C
HETATM    2  C11 UNL     1      10.223  15.803 -30.150  1.00  0.00     0.060 C
HETATM    3  C12 UNL     1      10.131  15.367 -31.534  1.00  0.00     0.059 C
HETATM    4  N3  UNL     1      10.729  14.379 -32.083  1.00  0.00    -0.375 N
ATOM      5  H3  UNL     1      10.525  14.244 -33.073  1.00  0.00     0.161 HD
HETATM    6  C13 UNL     1      11.630  13.445 -31.522  1.00  0.00     0.248 C
HETATM    7  C14 UNL     1      11.665  13.443 -30.008  1.00  0.00     0.196 C
HETATM    8  C15 UNL     1      10.352  13.421 -29.345  1.00  0.00     0.163 C
ENDROOT
BRANCH   1   9
HETATM    9  C2  UNL     1      10.061  15.234 -27.787  1.00  0.00     0.012 C
HETATM   10  C1  UNL     1       9.644  16.463 -27.151  1.00  0.00     0.006 C
ENDBRANCH   1   9
BRANCH   1  11
HETATM   11  C4  UNL     1       8.263  14.554 -29.455  1.00  0.00    -0.018 C
HETATM   12  C5  UNL     1       7.277  15.320 -30.132  1.00  0.00    -0.030 C
BRANCH  12  13
HETATM   13  C6  UNL     1       6.723  16.625 -29.726  1.00  0.00     0.027 C
BRANCH  13  14
HETATM   14  C7  UNL     1       6.177  17.358 -31.003  1.00  0.00     0.004 C
BRANCH  14  15
HETATM   15  C8  UNL     1       6.176  16.407 -32.155  1.00  0.00     0.006 C
BRANCH  15  16
HETATM   16  C9  UNL     1       6.846  16.990 -33.347  1.00  0.00     0.061 C
BRANCH  16  17
HETATM   17  C10 UNL     1       7.705  15.938 -34.022  1.00  0.00     0.181 C
BRANCH  17  18
HETATM   18  N1  UNL     1       7.362  14.758 -33.913  1.00  0.00    -0.350 NA
BRANCH  18  19
HETATM   19  N2  UNL     1       7.109  13.548 -33.937  1.00  0.00    -0.281 N
ATOM     20  H22 UNL     1       7.331  13.567 -32.941  1.00  0.00     0.191 HD
ATOM     21  H21 UNL     1       6.875  12.567 -34.089  1.00  0.00     0.191 HD
ENDBRANCH  18  19
ENDBRANCH  17  18
ENDBRANCH  16  17
ENDBRANCH  15  16
ENDBRANCH  14  15
ENDBRANCH  13  14
ENDBRANCH  12  13
ENDBRANCH   1  11
BRANCH   8  22
HETATM   22  O3  UNL     1       9.502  12.492 -29.905  1.00  0.00    -0.392 OA
ATOM     23  H3  UNL     1       8.960  12.056 -29.258  1.00  0.00     0.210 HD
ENDBRANCH   8  22
BRANCH   7  24
HETATM   24  O2  UNL     1      12.604  14.311 -29.489  1.00  0.00    -0.389 OA
ATOM     25  H2  UNL     1      13.057  14.811 -30.158  1.00  0.00     0.210 HD
ENDBRANCH   7  24
BRANCH   6  26
HETATM   26  O1  UNL     1      12.925  13.617 -32.010  1.00  0.00    -0.374 OA
ATOM     27  H1  UNL     1      13.568  13.179 -31.465  1.00  0.00     0.212 HD
ENDBRANCH   6  26
TORSDOF 12
ENDMDL