MODEL 4
REMARK VINA RESULT: -7.193071446      1.555      3.364
REMARK  10 active torsions:
REMARK  status: ('A' for Active; 'I' for Inactive)
REMARK    1  A    between atoms: C2_2  and  O1_3
REMARK    2  A    between atoms: O1_3  and  C3_4
REMARK    3  A    between atoms: C3_4  and  C4_5
REMARK    4  A    between atoms: C4_5  and  C5_6
REMARK    5  A    between atoms: C5_6  and  N1_7
REMARK    6  A    between atoms: C7_12  and  N3_13
REMARK    7  A    between atoms: N3_13  and  C8_15
REMARK    8  A    between atoms: C8_15  and  C9_16
REMARK    9  A    between atoms: C9_16  and  C10_17
REMARK   10  A    between atoms: C10_17  and  N4_18
ROOT
HETATM    1  N1  UNL     1       7.628  16.080 -28.148  1.00  0.00    -0.375 N
ATOM      2  H1  UNL     1       7.472  16.325 -27.171  1.00  0.00     0.161 HD
HETATM    3  C6  UNL     1       6.891  16.719 -28.929  1.00  0.00     0.131 A
HETATM    4  N2  UNL     1       6.027  17.612 -28.345  1.00  0.00    -0.176 N
ATOM      5  H2  UNL     1       6.030  17.708 -27.330  1.00  0.00     0.186 HD
HETATM    6  C7  UNL     1       5.179  18.363 -29.061  1.00  0.00     0.681 A
HETATM    7  N5  UNL     1       5.144  18.269 -30.401  1.00  0.00    -0.176 N
ATOM      8  H5  UNL     1       4.499  18.843 -30.944  1.00  0.00     0.186 HD
HETATM    9  C11 UNL     1       5.982  17.397 -31.021  1.00  0.00     0.135 A
HETATM   10  N6  UNL     1       6.171  17.089 -32.325  1.00  0.00    -0.345 N
ATOM     11  H6  UNL     1       5.662  17.506 -33.105  1.00  0.00     0.167 HD
HETATM   12  C12 UNL     1       7.117  16.161 -32.439  1.00  0.00     0.008 A
HETATM   13  C13 UNL     1       7.638  15.538 -33.671  1.00  0.00     0.068 C
HETATM   14  C14 UNL     1       7.576  15.840 -31.158  1.00  0.00     0.043 A
HETATM   15  C15 UNL     1       6.845  16.629 -30.304  1.00  0.00     0.055 A
ENDROOT
BRANCH   6  16
HETATM   16  N3  UNL     1       4.363  19.205 -28.525  1.00  0.00    -0.226 N
ATOM     17  H3  UNL     1       3.390  18.957 -28.344  1.00  0.00     0.177 HD
BRANCH  16  18
HETATM   18  C8  UNL     1       4.877  20.507 -28.190  1.00  0.00     0.139 C
BRANCH  18  19
HETATM   19  C9  UNL     1       5.107  20.727 -26.732  1.00  0.00     0.047 C
BRANCH  19  20
HETATM   20  C10 UNL     1       3.976  20.070 -25.942  1.00  0.00     0.231 C
BRANCH  20  21
HETATM   21  N4  UNL     1       2.783  20.869 -26.039  1.00  0.00    -0.079 N
ATOM     22  H43 UNL     1       2.248  20.656 -26.881  1.00  0.00     0.274 HD
ATOM     23  H42 UNL     1       2.084  20.598 -25.346  1.00  0.00     0.274 HD
ATOM     24  H41 UNL     1       3.021  21.859 -25.977  1.00  0.00     0.274 HD
ENDBRANCH  20  21
ENDBRANCH  19  20
ENDBRANCH  18  19
ENDBRANCH  16  18
ENDBRANCH   6  16
BRANCH   1  25
HETATM   25  C5  UNL     1       8.622  15.103 -28.308  1.00  0.00     0.123 C
BRANCH  25  26
HETATM   26  C4  UNL     1      10.043  15.686 -28.187  1.00  0.00     0.046 C
BRANCH  26  27
HETATM   27  C3  UNL     1      10.788  15.494 -29.467  1.00  0.00     0.169 C
BRANCH  27  28
HETATM   28  O1  UNL     1      11.678  14.444 -29.375  1.00  0.00    -0.391 OA
BRANCH  28  29
HETATM   29  C2  UNL     1      11.450  13.391 -30.219  1.00  0.00     0.163 C
HETATM   30  C1  UNL     1      10.642  12.290 -29.556  1.00  0.00     0.033 C
ENDBRANCH  28  29
ENDBRANCH  27  28
ENDBRANCH  26  27
ENDBRANCH  25  26
ENDBRANCH   1  25
TORSDOF 10
ENDMDL