MODEL 3
REMARK VINA RESULT: -6.484271184      2.241      6.031
REMARK  12 active torsions:
REMARK  status: ('A' for Active; 'I' for Inactive)
REMARK    1  A    between atoms: O1_1  and  C1_3
REMARK    2  A    between atoms: C1_3  and  C2_4
REMARK    3  A    between atoms: C2_4  and  O2_5
REMARK    4  A    between atoms: O2_5  and  C3_6
REMARK    5  A    between atoms: C3_6  and  C4_7
REMARK    6  A    between atoms: C4_7  and  C5_8
REMARK    7  A    between atoms: C5_8  and  N1_9
REMARK    8  A    between atoms: N1_9  and  C6_11
REMARK    9  A    between atoms: C6_11  and  N2_13
REMARK   10  A    between atoms: N2_13  and  C7_15
REMARK   11  A    between atoms: C7_15  and  C8_16
REMARK   12  A    between atoms: C8_16  and  O3_17
ROOT
HETATM    1  N2  UNL     1       5.891  16.755 -31.370  1.00  0.00    -0.363 N
ATOM      2  H2  UNL     1       4.993  16.280 -31.280  1.00  0.00     0.162 HD
ENDROOT
BRANCH   1   3
HETATM    3  C6  UNL     1       6.856  16.028 -32.061  1.00  0.00     0.167 C
HETATM    4  S1  UNL     1       7.169  16.186 -33.650  1.00  0.00    -0.041 SA
BRANCH   3   5
HETATM    5  N1  UNL     1       7.688  15.098 -31.352  1.00  0.00    -0.367 N
ATOM      6  H1  UNL     1       7.632  14.109 -31.593  1.00  0.00     0.161 HD
BRANCH   5   7
HETATM    7  C5  UNL     1       8.592  15.502 -30.321  1.00  0.00     0.124 C
BRANCH   7   8
HETATM    8  C4  UNL     1       8.556  14.450 -29.216  1.00  0.00     0.046 C
BRANCH   8   9
HETATM    9  C3  UNL     1       9.996  13.840 -29.245  1.00  0.00     0.169 C
BRANCH   9  10
HETATM   10  O2  UNL     1      10.080  13.189 -30.433  1.00  0.00    -0.389 OA
BRANCH  10  11
HETATM   11  C2  UNL     1      11.252  13.205 -31.123  1.00  0.00     0.193 C
BRANCH  11  12
HETATM   12  C1  UNL     1      11.228  13.881 -32.452  1.00  0.00     0.190 C
BRANCH  12  13
HETATM   13  O1  UNL     1      10.039  13.873 -33.124  1.00  0.00    -0.399 OA
ATOM     14  H1  UNL     1      10.081  13.747 -34.064  1.00  0.00     0.209 HD
ENDBRANCH  12  13
ENDBRANCH  11  12
ENDBRANCH  10  11
ENDBRANCH   9  10
ENDBRANCH   8   9
ENDBRANCH   7   8
ENDBRANCH   5   7
ENDBRANCH   3   5
ENDBRANCH   1   3
BRANCH   1  15
HETATM   15  C7  UNL     1       5.934  18.047 -30.763  1.00  0.00     0.183 C
BRANCH  15  16
HETATM   16  C8  UNL     1       5.422  18.110 -29.378  1.00  0.00     0.156 C
HETATM   17  C9  UNL     1       6.693  18.090 -28.403  1.00  0.00     0.142 C
HETATM   18  C10 UNL     1       6.340  18.884 -27.320  1.00  0.00    -0.178 C
HETATM   19  C11 UNL     1       5.899  19.742 -26.289  1.00  0.00     0.085 C
HETATM   20  C12 UNL     1       4.527  20.328 -26.797  1.00  0.00     0.055 C
HETATM   21  C13 UNL     1       4.440  20.186 -28.311  1.00  0.00     0.059 C
HETATM   22  N3  UNL     1       4.448  19.004 -28.979  1.00  0.00    -0.370 N
ATOM     23  H3  UNL     1       3.511  18.706 -29.251  1.00  0.00     0.161 HD
BRANCH  16  24
HETATM   24  O3  UNL     1       4.876  16.787 -29.130  1.00  0.00    -0.368 OA
ATOM     25  H3  UNL     1       3.967  16.942 -28.904  1.00  0.00     0.212 HD
ENDBRANCH  16  24
ENDBRANCH  15  16
ENDBRANCH   1  15
TORSDOF 12
ENDMDL