MODEL 3
REMARK VINA RESULT: -7.271034075      2.101      2.751
REMARK  10 active torsions:
REMARK  status: ('A' for Active; 'I' for Inactive)
REMARK    1  A    between atoms: N1_1  and  C1_4
REMARK    2  A    between atoms: C3_8  and  C4_9
REMARK    3  A    between atoms: C4_9  and  C5_10
REMARK    4  A    between atoms: C5_10  and  C6_11
REMARK    5  A    between atoms: C6_11  and  C7_12
REMARK    6  A    between atoms: C7_12  and  C8_13
REMARK    7  A    between atoms: C8_13  and  N3_14
REMARK    8  A    between atoms: N4_17  and  C11_18
REMARK    9  A    between atoms: C11_18  and  C12_19
REMARK   10  A    between atoms: C12_19  and  O1_20
ROOT
HETATM    1  C5  UNL     1       9.980  14.119 -28.874  1.00  0.00     0.005 C
ENDROOT
BRANCH   1   2
HETATM    2  C4  UNL     1      10.291  15.097 -29.970  1.00  0.00     0.046 C
BRANCH   2   3
HETATM    3  C3  UNL     1       9.460  15.002 -31.179  1.00  0.00     0.026 A
HETATM    4  C2  UNL     1       8.093  15.331 -31.117  1.00  0.00     0.118 A
HETATM    5  N2  UNL     1       7.322  15.284 -32.216  1.00  0.00    -0.201 N
HETATM    6  C1  UNL     1       7.799  14.926 -33.421  1.00  0.00     0.678 A
ATOM      7  H2  UNL     1       6.336  15.530 -32.133  1.00  0.00     0.183 HD
HETATM    8  N5  UNL     1       9.099  14.607 -33.508  1.00  0.00    -0.156 N
HETATM    9  C15 UNL     1       9.929  14.639 -32.417  1.00  0.00     0.267 A
ATOM     10  H5  UNL     1       9.482  14.333 -34.413  1.00  0.00     0.187 HD
HETATM   11  O2  UNL     1      11.142  14.317 -32.578  1.00  0.00    -0.267 OA
BRANCH   6  12
HETATM   12  N1  UNL     1       6.995  14.901 -34.440  1.00  0.00    -0.234 N
ATOM     13  H12 UNL     1       6.233  15.567 -34.564  1.00  0.00     0.174 HD
ATOM     14  H11 UNL     1       7.121  14.186 -35.158  1.00  0.00     0.174 HD
ENDBRANCH   6  12
ENDBRANCH   2   3
ENDBRANCH   1   2
BRANCH   1  15
HETATM   15  C6  UNL     1       9.290  14.638 -27.681  1.00  0.00     0.002 C
BRANCH  15  16
HETATM   16  C7  UNL     1       9.379  16.157 -27.498  1.00  0.00     0.030 C
BRANCH  16  17
HETATM   17  C8  UNL     1       8.039  16.740 -27.578  1.00  0.00     0.272 C
BRANCH  17  18
HETATM   18  N3  UNL     1       7.952  18.146 -27.791  1.00  0.00     0.091 N
HETATM   19  C9  UNL     1       7.027  18.523 -28.815  1.00  0.00     0.291 C
HETATM   20  C10 UNL     1       5.631  18.328 -28.317  1.00  0.00     0.147 C
HETATM   21  N4  UNL     1       5.393  19.189 -27.216  1.00  0.00    -0.407 N
HETATM   22  C13 UNL     1       6.417  19.340 -26.253  1.00  0.00     0.147 C
HETATM   23  C14 UNL     1       7.801  18.982 -26.654  1.00  0.00     0.291 C
BRANCH  21  24
HETATM   24  C11 UNL     1       4.521  20.292 -27.432  1.00  0.00     0.143 C
BRANCH  24  25
HETATM   25  C12 UNL     1       4.024  20.289 -28.868  1.00  0.00     0.183 C
BRANCH  25  26
HETATM   26  O1  UNL     1       3.265  21.429 -29.152  1.00  0.00    -0.399 OA
ATOM     27  H1  UNL     1       2.449  21.436 -28.666  1.00  0.00     0.209 HD
ENDBRANCH  25  26
ENDBRANCH  24  25
ENDBRANCH  21  24
ENDBRANCH  17  18
ENDBRANCH  16  17
ENDBRANCH  15  16
ENDBRANCH   1  15
TORSDOF 10
ENDMDL