MODEL 3
REMARK VINA RESULT: -6.842267401      1.716      5.776
REMARK  8 active torsions:
REMARK  status: ('A' for Active; 'I' for Inactive)
REMARK    1  A    between atoms: C1_2  and  C2_3
REMARK       I    between atoms: C1_2  and  N3_16
REMARK    2  A    between atoms: C2_3  and  C3_4
REMARK    3  A    between atoms: C3_4  and  N1_5
REMARK    4  A    between atoms: N1_5  and  C4_8
REMARK    5  A    between atoms: C4_8  and  C5_9
REMARK    6  A    between atoms: N3_16  and  C10_18
REMARK    7  A    between atoms: C10_18  and  C11_19
REMARK    8  A    between atoms: C11_19  and  C12_20
ROOT
HETATM    1  O1  UNL     1       7.022  17.123 -33.729  1.00  0.00    -0.274 OA
HETATM    2  C1  UNL     1       6.969  16.093 -33.011  1.00  0.00     0.219 C
HETATM    3  N3  UNL     1       6.468  16.094 -31.694  1.00  0.00    -0.361 N
ATOM      4  H3  UNL     1       6.450  15.218 -31.171  1.00  0.00     0.162 HD
ENDROOT
BRANCH   2   5
HETATM    5  C2  UNL     1       7.456  14.765 -33.550  1.00  0.00     0.130 C
BRANCH   5   6
HETATM    6  C3  UNL     1       8.896  14.957 -33.940  1.00  0.00     0.241 C
BRANCH   6   7
HETATM    7  N1  UNL     1       9.685  15.535 -32.878  1.00  0.00    -0.074 N
ATOM      8  H12 UNL     1      10.346  16.232 -33.221  1.00  0.00     0.277 HD
ATOM      9  H11 UNL     1       9.135  16.145 -32.274  1.00  0.00     0.277 HD
BRANCH   7  10
HETATM   10  C4  UNL     1      10.329  14.484 -32.150  1.00  0.00     0.237 C
BRANCH  10  11
HETATM   11  C5  UNL     1       9.727  14.335 -30.767  1.00  0.00     0.021 C
HETATM   12  C6  UNL     1       9.999  15.543 -29.901  1.00  0.00     0.051 C
HETATM   13  C7  UNL     1      11.439  15.812 -29.689  1.00  0.00     0.060 C
HETATM   14  N2  UNL     1      12.298  14.700 -29.592  1.00  0.00    -0.382 N
HETATM   15  C8  UNL     1      11.838  13.430 -29.925  1.00  0.00     0.060 C
ATOM     16  H2  UNL     1      13.260  14.826 -29.277  1.00  0.00     0.163 HD
HETATM   17  C9  UNL     1      10.393  13.175 -30.064  1.00  0.00     0.051 C
ENDBRANCH  10  11
ENDBRANCH   7  10
ENDBRANCH   6   7
ENDBRANCH   5   6
ENDBRANCH   2   5
BRANCH   3  18
HETATM   18  C10 UNL     1       5.983  17.292 -31.066  1.00  0.00     0.123 C
BRANCH  18  19
HETATM   19  C11 UNL     1       6.177  17.190 -29.575  1.00  0.00     0.024 C
BRANCH  19  20
HETATM   20  C12 UNL     1       6.840  18.442 -29.065  1.00  0.00    -0.010 C
HETATM   21  C13 UNL     1       6.986  18.412 -27.595  1.00  0.00     0.024 C
HETATM   22  C14 UNL     1       5.839  19.027 -26.836  1.00  0.00     0.114 C
HETATM   23  N4  UNL     1       4.598  19.069 -27.525  1.00  0.00    -0.421 N
HETATM   24  C15 UNL     1       4.647  19.491 -28.880  1.00  0.00     0.114 C
ATOM     25  H4  UNL     1       3.721  18.811 -27.072  1.00  0.00     0.153 HD
HETATM   26  C16 UNL     1       6.022  19.684 -29.423  1.00  0.00     0.024 C
ENDBRANCH  19  20
ENDBRANCH  18  19
ENDBRANCH   3  18
TORSDOF 8
ENDMDL