MODEL 5
REMARK VINA RESULT: -6.849454940      1.451      1.631
REMARK  10 active torsions:
REMARK  status: ('A' for Active; 'I' for Inactive)
REMARK    1  A    between atoms: C4_6  and  N2_7
REMARK    2  A    between atoms: N2_7  and  C5_9
REMARK    3  A    between atoms: C5_9  and  C6_10
REMARK    4  A    between atoms: C6_10  and  C7_11
REMARK    5  A    between atoms: C7_11  and  C8_12
REMARK    6  A    between atoms: C8_12  and  C9_13
REMARK    7  A    between atoms: C9_13  and  N3_14
REMARK    8  A    between atoms: N5_21  and  C11_23
REMARK    9  A    between atoms: C11_23  and  C12_24
REMARK   10  A    between atoms: C12_24  and  N6_25
ROOT
HETATM    1  C1  UNL     1       6.343  17.086 -32.778  1.00  0.00     0.054 C
HETATM    2  C2  UNL     1       7.572  16.211 -32.849  1.00  0.00    -0.001 A
HETATM    3  C3  UNL     1       8.286  16.191 -34.052  1.00  0.00     0.116 A
HETATM    4  N1  UNL     1       9.359  15.428 -34.147  1.00  0.00    -0.201 N
ATOM      5  H1  UNL     1       9.880  15.411 -35.023  1.00  0.00     0.183 HD
HETATM    6  C4  UNL     1       9.777  14.681 -33.133  1.00  0.00     0.679 A
HETATM    7  N4  UNL     1       9.118  14.682 -31.980  1.00  0.00    -0.176 N
ATOM      8  H4  UNL     1       9.456  14.100 -31.214  1.00  0.00     0.186 HD
HETATM    9  C10 UNL     1       7.988  15.449 -31.793  1.00  0.00     0.128 A
HETATM   10  N5  UNL     1       7.422  15.419 -30.696  1.00  0.00    -0.353 N
ATOM     11  H5  UNL     1       7.928  14.776 -30.089  1.00  0.00     0.166 HD
ENDROOT
BRANCH   6  12
HETATM   12  N2  UNL     1      10.832  13.923 -33.202  1.00  0.00    -0.226 N
ATOM     13  H2  UNL     1      10.872  13.189 -33.909  1.00  0.00     0.177 HD
BRANCH  12  14
HETATM   14  C5  UNL     1      11.953  14.096 -32.297  1.00  0.00     0.138 C
BRANCH  14  15
HETATM   15  C6  UNL     1      12.160  12.924 -31.406  1.00  0.00     0.020 C
BRANCH  15  16
HETATM   16  C7  UNL     1      11.923  13.195 -29.944  1.00  0.00     0.003 C
BRANCH  16  17
HETATM   17  C8  UNL     1      10.617  12.628 -29.515  1.00  0.00     0.027 C
BRANCH  17  18
HETATM   18  C9  UNL     1       9.788  13.584 -28.689  1.00  0.00     0.229 C
BRANCH  18  19
HETATM   19  N3  UNL     1      10.345  14.886 -28.538  1.00  0.00    -0.079 N
ATOM     20  H33 UNL     1      11.318  14.821 -28.240  1.00  0.00     0.274 HD
ATOM     21  H32 UNL     1      10.467  15.325 -29.451  1.00  0.00     0.274 HD
ATOM     22  H31 UNL     1       9.827  15.506 -27.916  1.00  0.00     0.274 HD
ENDBRANCH  18  19
ENDBRANCH  17  18
ENDBRANCH  16  17
ENDBRANCH  15  16
ENDBRANCH  14  15
ENDBRANCH  12  14
ENDBRANCH   6  12
BRANCH  10  23
HETATM   23  C11 UNL     1       6.357  15.938 -29.991  1.00  0.00     0.092 C
BRANCH  23  24
HETATM   24  C12 UNL     1       6.881  16.609 -28.721  1.00  0.00     0.317 C
BRANCH  24  25
HETATM   25  N6  UNL     1       6.879  18.043 -28.809  1.00  0.00     0.093 N
HETATM   26  C13 UNL     1       5.895  18.610 -29.671  1.00  0.00     0.273 C
HETATM   27  C14 UNL     1       4.932  19.374 -28.768  1.00  0.00     0.032 C
HETATM   28  C15 UNL     1       5.264  18.897 -27.360  1.00  0.00     0.032 C
HETATM   29  C16 UNL     1       6.727  18.591 -27.483  1.00  0.00     0.273 C
ENDBRANCH  24  25
ENDBRANCH  23  24
ENDBRANCH  10  23
TORSDOF 10
ENDMDL