MODEL 4
REMARK VINA RESULT: -7.507932015      2.564      6.509
REMARK  9 active torsions:
REMARK  status: ('A' for Active; 'I' for Inactive)
REMARK    1  A    between atoms: C2_2  and  C3_3
REMARK    2  A    between atoms: C3_3  and  C4_4
REMARK    3  A    between atoms: C4_4  and  N1_5
REMARK    4  A    between atoms: C6_10  and  N3_11
REMARK    5  A    between atoms: C8_17  and  C9_18
REMARK    6  A    between atoms: C9_18  and  N5_19
REMARK    7  A    between atoms: N5_19  and  C10_22
REMARK    8  A    between atoms: C10_22  and  C11_23
REMARK    9  A    between atoms: C11_23  and  N6_24
ROOT
HETATM    1  N1  UNL     1      10.432  14.365 -33.628  1.00  0.00    -0.375 N
ATOM      2  H1  UNL     1      10.764  13.953 -34.499  1.00  0.00     0.161 HD
HETATM    3  C5  UNL     1      11.158  14.001 -32.683  1.00  0.00     0.126 A
HETATM    4  N2  UNL     1      12.207  13.160 -32.980  1.00  0.00    -0.177 N
ATOM      5  H2  UNL     1      12.354  12.875 -33.948  1.00  0.00     0.186 HD
HETATM    6  C6  UNL     1      13.039  12.705 -32.033  1.00  0.00     0.677 A
HETATM    7  N4  UNL     1      12.905  13.041 -30.740  1.00  0.00    -0.201 N
ATOM      8  H4  UNL     1      13.551  12.683 -30.036  1.00  0.00     0.183 HD
HETATM    9  C7  UNL     1      11.897  13.860 -30.400  1.00  0.00     0.118 A
HETATM   10  C8  UNL     1      11.027  14.340 -31.356  1.00  0.00     0.028 A
ENDROOT
BRANCH  10  11
HETATM   11  C9  UNL     1       9.955  15.265 -30.930  1.00  0.00     0.276 C
BRANCH  11  12
HETATM   12  N5  UNL     1       8.893  14.504 -30.286  1.00  0.00    -0.070 N
ATOM     13  H52 UNL     1       8.652  13.671 -30.823  1.00  0.00     0.277 HD
ATOM     14  H51 UNL     1       9.223  14.052 -29.433  1.00  0.00     0.277 HD
BRANCH  12  15
HETATM   15  C10 UNL     1       7.727  15.327 -30.032  1.00  0.00     0.252 C
BRANCH  15  16
HETATM   16  C11 UNL     1       7.464  15.454 -28.573  1.00  0.00     0.153 C
BRANCH  16  17
HETATM   17  N6  UNL     1       8.142  16.605 -27.991  1.00  0.00    -0.351 N
HETATM   18  C12 UNL     1       7.556  17.939 -27.816  1.00  0.00     0.126 C
HETATM   19  C13 UNL     1       8.348  18.428 -26.615  1.00  0.00     0.029 C
HETATM   20  C14 UNL     1       9.745  17.971 -26.990  1.00  0.00     0.104 C
HETATM   21  C15 UNL     1       9.475  16.608 -27.506  1.00  0.00     0.219 C
HETATM   22  O1  UNL     1      10.295  15.661 -27.497  1.00  0.00    -0.273 OA
ENDBRANCH  16  17
ENDBRANCH  15  16
ENDBRANCH  12  15
ENDBRANCH  11  12
ENDBRANCH  10  11
BRANCH   1  23
HETATM   23  C4  UNL     1       9.318  15.150 -33.871  1.00  0.00     0.121 C
BRANCH  23  24
HETATM   24  C3  UNL     1       8.014  14.320 -33.900  1.00  0.00     0.019 C
BRANCH  24  25
HETATM   25  C2  UNL     1       6.895  15.315 -33.615  1.00  0.00    -0.003 C
HETATM   26  C1  UNL     1       7.404  16.736 -33.730  1.00  0.00     0.005 C
ENDBRANCH  24  25
ENDBRANCH  23  24
ENDBRANCH   1  23
BRANCH   6  27
HETATM   27  N3  UNL     1      14.010  11.912 -32.388  1.00  0.00    -0.234 N
ATOM     28  H32 UNL     1      14.152  11.710 -33.377  1.00  0.00     0.174 HD
ATOM     29  H31 UNL     1      14.603  11.514 -31.660  1.00  0.00     0.174 HD
ENDBRANCH   6  27
TORSDOF 9
ENDMDL