MODEL 4
REMARK VINA RESULT: -6.280897847      8.566      9.737
REMARK  4 active torsions:
REMARK  status: ('A' for Active; 'I' for Inactive)
REMARK    1  A    between atoms: N1_1  and  O1_4
REMARK    2  A    between atoms: O1_4  and  C1_5
REMARK    3  A    between atoms: C1_5  and  N2_6
REMARK    4  A    between atoms: C5_14  and  N4_15
ROOT
HETATM    1  N2  UNL     1      18.611 -10.203   5.215  1.00  0.00    -0.259 N
HETATM    2  C2  UNL     1      18.282  -9.150   5.985  1.00  0.00     0.330 A
HETATM    3  O2  UNL     1      19.006  -8.113   6.027  1.00  0.00    -0.246 OA
HETATM    4  N3  UNL     1      17.130  -9.416   6.634  1.00  0.00    -0.304 N
ATOM      5  H3  UNL     1      16.656  -8.788   7.283  1.00  0.00     0.171 HD
HETATM    6  C3  UNL     1      16.701 -10.665   6.281  1.00  0.00     0.101 A
HETATM    7  C4  UNL     1      15.609 -11.426   6.633  1.00  0.00     0.081 A
HETATM    8  S1  UNL     1      14.429 -10.753   7.786  1.00  0.00    -0.047 SA
HETATM    9  C5  UNL     1      15.427 -12.693   6.101  1.00  0.00     0.190 A
HETATM   10  C6  UNL     1      16.399 -13.146   5.202  1.00  0.00     0.281 A
HETATM   11  O5  UNL     1      16.282 -14.293   4.688  1.00  0.00    -0.265 OA
HETATM   12  N5  UNL     1      17.446 -12.364   4.892  1.00  0.00    -0.305 N
ATOM     13  H5  UNL     1      18.134 -12.728   4.233  1.00  0.00     0.170 HD
HETATM   14  C7  UNL     1      17.648 -11.125   5.395  1.00  0.00     0.145 A
ENDROOT
BRANCH   1  15
HETATM   15  C1  UNL     1      19.782 -10.348   4.341  1.00  0.00     0.337 C
BRANCH  15  16
HETATM   16  O1  UNL     1      19.241 -10.533   3.051  1.00  0.00    -0.267 OA
BRANCH  16  17
HETATM   17  N1  UNL     1      20.245 -10.724   2.187  1.00  0.00    -0.309 N
ATOM     18  H12 UNL     1      21.231 -10.571   2.396  1.00  0.00     0.184 HD
ATOM     19  H11 UNL     1      19.856 -11.042   1.299  1.00  0.00     0.184 HD
ENDBRANCH  16  17
ENDBRANCH  15  16
ENDBRANCH   1  15
BRANCH   9  20
HETATM   20  N4  UNL     1      14.315 -13.494   6.445  1.00  0.00    -0.108 N
HETATM   21  O3  UNL     1      13.283 -13.427   5.782  1.00  0.00    -0.532 OA
HETATM   22  O4  UNL     1      14.403 -14.330   7.510  1.00  0.00    -0.532 OA
ENDBRANCH   9  20
TORSDOF 4
ENDMDL