MODEL 2
REMARK VINA RESULT: -6.388890006      2.144      3.342
REMARK  5 active torsions:
REMARK  status: ('A' for Active; 'I' for Inactive)
REMARK    1  A    between atoms: C2_2  and  N1_3
REMARK    2  A    between atoms: C2_2  and  C3_6
REMARK    3  A    between atoms: C4_7  and  O1_8
REMARK    4  A    between atoms: C5_12  and  N3_13
REMARK    5  A    between atoms: N3_13  and  C6_15
ROOT
HETATM    1  C3  UNL     1      14.263 -16.868   2.470  1.00  0.00     0.105 A
HETATM    2  C4  UNL     1      14.966 -16.301   1.440  1.00  0.00     0.173 A
HETATM    3  N2  UNL     1      15.098 -16.896   0.235  1.00  0.00    -0.169 N
ATOM      4  H2  UNL     1      15.632 -16.434  -0.503  1.00  0.00     0.186 HD
HETATM    5  C5  UNL     1      14.536 -18.084   0.001  1.00  0.00     0.691 A
HETATM    6  N7  UNL     1      13.840 -18.686   0.964  1.00  0.00    -0.151 N
HETATM    7  C7  UNL     1      13.238 -19.987   0.671  1.00  0.00     0.179 C
HETATM    8  C8  UNL     1      13.693 -18.106   2.187  1.00  0.00     0.278 A
HETATM    9  O2  UNL     1      13.035 -18.715   3.039  1.00  0.00    -0.266 OA
ENDROOT
BRANCH   5  10
HETATM   10  N3  UNL     1      14.700 -18.602  -1.177  1.00  0.00    -0.167 N
ATOM     11  H3  UNL     1      13.876 -18.832  -1.734  1.00  0.00     0.186 HD
BRANCH  10  12
HETATM   12  C6  UNL     1      15.989 -18.862  -1.718  1.00  0.00     0.193 C
HETATM   13  N4  UNL     1      16.359 -19.171  -2.889  1.00  0.00    -0.266 N
HETATM   14  N5  UNL     1      17.668 -19.367  -3.146  1.00  0.00    -0.233 N
ATOM     15  H4  UNL     1      15.670 -19.273  -3.633  1.00  0.00     0.190 HD
HETATM   16  N6  UNL     1      18.489 -19.635  -2.048  1.00  0.00    -0.043 NA
ATOM     17  H5  UNL     1      18.040 -19.323  -4.096  1.00  0.00     0.204 HD
HETATM   18  S1  UNL     1      17.523 -18.812  -0.780  1.00  0.00     0.040 SA
ENDBRANCH  10  12
ENDBRANCH   5  10
BRANCH   2  19
HETATM   19  O1  UNL     1      15.575 -15.066   1.615  1.00  0.00    -0.345 OA
ATOM     20  H1  UNL     1      15.649 -14.695   2.487  1.00  0.00     0.219 HD
ENDBRANCH   2  19
BRANCH   1  21
HETATM   21  C2  UNL     1      14.112 -16.240   3.774  1.00  0.00     0.019 C
HETATM   22  C1  UNL     1      15.250 -16.343   4.750  1.00  0.00     0.068 C
BRANCH  21  23
HETATM   23  N1  UNL     1      13.088 -15.620   4.135  1.00  0.00    -0.402 N
ATOM     24  H12 UNL     1      12.558 -15.840   4.978  1.00  0.00     0.156 HD
ATOM     25  H11 UNL     1      12.768 -14.848   3.550  1.00  0.00     0.156 HD
ENDBRANCH  21  23
ENDBRANCH   1  21
TORSDOF 5
ENDMDL