MODEL 3
REMARK VINA RESULT: -5.859004378      2.069      3.833
REMARK  3 active torsions:
REMARK  status: ('A' for Active; 'I' for Inactive)
REMARK    1  A    between atoms: C2_5  and  C3_6
REMARK    2  A    between atoms: N6_16  and  C5_17
REMARK    3  A    between atoms: C7_22  and  N8_23
ROOT
HETATM    1  C1  UNL     1      12.191 -12.383   8.590  1.00  0.00     0.183 C
HETATM    2  N1  UNL     1      13.442 -12.937   8.137  1.00  0.00    -0.245 N
HETATM    3  N2  UNL     1      13.892 -14.171   8.291  1.00  0.00    -0.277 N
ATOM      4  H2  UNL     1      13.401 -14.928   8.767  1.00  0.00     0.189 HD
HETATM    5  C2  UNL     1      15.084 -14.260   7.726  1.00  0.00     0.164 A
HETATM    6  N6  UNL     1      15.387 -13.049   7.204  1.00  0.00    -0.239 N
HETATM    7  C8  UNL     1      14.370 -12.238   7.461  1.00  0.00     0.349 A
HETATM    8  O3  UNL     1      14.297 -11.019   7.124  1.00  0.00    -0.244 OA
ENDROOT
BRANCH   5   9
HETATM    9  C3  UNL     1      15.983 -15.410   7.632  1.00  0.00     0.147 A
HETATM   10  N3  UNL     1      17.136 -15.578   8.335  1.00  0.00    -0.234 N
HETATM   11  O1  UNL     1      17.674 -16.707   8.001  1.00  0.00    -0.155 OA
ATOM     12  H3  UNL     1      17.516 -14.920   9.016  1.00  0.00     0.197 HD
HETATM   13  N4  UNL     1      16.978 -17.336   7.118  1.00  0.00    -0.224 N
HETATM   14  C4  UNL     1      15.889 -16.543   6.854  1.00  0.00     0.154 A
ATOM     15  H4  UNL     1      17.193 -18.241   6.699  1.00  0.00     0.198 HD
HETATM   16  N5  UNL     1      14.973 -16.839   6.024  1.00  0.00    -0.382 N
ATOM     17  H52 UNL     1      14.164 -16.249   5.828  1.00  0.00     0.157 HD
ATOM     18  H51 UNL     1      14.904 -17.678   5.448  1.00  0.00     0.157 HD
ENDBRANCH   5   9
BRANCH   6  19
HETATM   19  C5  UNL     1      16.562 -12.670   6.504  1.00  0.00     0.115 A
HETATM   20  C6  UNL     1      17.683 -12.010   6.958  1.00  0.00     0.201 A
HETATM   21  O2  UNL     1      18.536 -11.861   5.969  1.00  0.00    -0.246 OA
HETATM   22  N7  UNL     1      18.013 -12.399   4.890  1.00  0.00    -0.244 N
HETATM   23  C7  UNL     1      16.803 -12.907   5.170  1.00  0.00     0.149 A
ATOM     24  H7  UNL     1      18.461 -12.426   3.974  1.00  0.00     0.196 HD
BRANCH  23  25
HETATM   25  N8  UNL     1      15.988 -13.510   4.374  1.00  0.00    -0.382 N
ATOM     26  H82 UNL     1      14.983 -13.646   4.485  1.00  0.00     0.157 HD
ATOM     27  H81 UNL     1      16.255 -13.947   3.493  1.00  0.00     0.157 HD
ENDBRANCH  23  25
ENDBRANCH   6  19
TORSDOF 3
ENDMDL