MODEL 4
REMARK VINA RESULT: -6.340045396      7.444      9.686
REMARK  4 active torsions:
REMARK  status: ('A' for Active; 'I' for Inactive)
REMARK    1  A    between atoms: S1_2  and  C2_3
REMARK    2  A    between atoms: C3_6  and  N2_7
REMARK    3  A    between atoms: N5_13  and  C4_14
REMARK    4  A    between atoms: C5_15  and  O1_16
ROOT
HETATM    1  C2  UNL     1      12.516 -18.927   1.682  1.00  0.00     0.174 A
HETATM    2  N1  UNL     1      11.890 -19.768   0.849  1.00  0.00    -0.168 N
ATOM      3  H1  UNL     1      10.948 -20.085   1.081  1.00  0.00     0.186 HD
HETATM    4  C3  UNL     1      12.460 -20.203  -0.274  1.00  0.00     0.715 A
HETATM    5  N3  UNL     1      13.720 -19.756  -0.547  1.00  0.00     0.107 N
HETATM    6  N4  UNL     1      14.767 -19.750  -1.346  1.00  0.00    -0.184 N
ATOM      7  H4  UNL     1      14.988 -20.206  -2.231  1.00  0.00     0.211 HD
HETATM    8  N5  UNL     1      15.417 -18.922  -0.552  1.00  0.00    -0.059 N
HETATM    9  C8  UNL     1      14.367 -18.915   0.271  1.00  0.00     0.745 A
HETATM   10  N7  UNL     1      13.755 -18.487   1.416  1.00  0.00    -0.166 N
ATOM     11  H7  UNL     1      14.229 -17.847   2.053  1.00  0.00     0.186 HD
ENDROOT
BRANCH   8  12
HETATM   12  C4  UNL     1      16.725 -18.306  -0.596  1.00  0.00     0.182 A
HETATM   13  C5  UNL     1      17.847 -18.867  -1.040  1.00  0.00     0.170 A
HETATM   14  C6  UNL     1      18.949 -17.929  -0.922  1.00  0.00     0.284 A
HETATM   15  O2  UNL     1      20.140 -18.138  -1.250  1.00  0.00    -0.265 OA
HETATM   16  N6  UNL     1      18.413 -16.737  -0.367  1.00  0.00    -0.286 N
HETATM   17  C7  UNL     1      17.020 -16.952  -0.155  1.00  0.00     0.280 A
ATOM     18  H6  UNL     1      18.930 -15.883  -0.158  1.00  0.00     0.172 HD
HETATM   19  O3  UNL     1      16.251 -16.103   0.322  1.00  0.00    -0.265 OA
BRANCH  13  20
HETATM   20  O1  UNL     1      17.904 -20.170  -1.538  1.00  0.00    -0.354 OA
ATOM     21  H1  UNL     1      18.095 -20.371  -2.446  1.00  0.00     0.218 HD
ENDBRANCH  13  20
ENDBRANCH   8  12
BRANCH   4  22
HETATM   22  N2  UNL     1      11.906 -21.008  -1.109  1.00  0.00    -0.232 N
ATOM     23  H22 UNL     1      11.995 -22.011  -0.943  1.00  0.00     0.174 HD
ATOM     24  H21 UNL     1      11.380 -20.718  -1.933  1.00  0.00     0.174 HD
ENDBRANCH   4  22
BRANCH   1  25
HETATM   25  S1  UNL     1      11.698 -18.388   3.161  1.00  0.00    -0.097 SA
HETATM   26  C1  UNL     1      12.694 -17.074   3.917  1.00  0.00     0.099 C
ENDBRANCH   1  25
TORSDOF 4
ENDMDL