MODEL 2
REMARK VINA RESULT: -6.900925539      2.349      7.398
REMARK  4 active torsions:
REMARK  status: ('A' for Active; 'I' for Inactive)
REMARK    1  A    between atoms: N1_1  and  C1_4
REMARK    2  A    between atoms: N3_9  and  N4_10
REMARK    3  A    between atoms: N5_13  and  N6_14
REMARK    4  A    between atoms: C3_16  and  C4_17
ROOT
HETATM    1  N6  UNL     1      16.094 -13.601   5.757  1.00  0.00    -0.273 N
ATOM      2  H6  UNL     1      15.463 -13.172   6.435  1.00  0.00     0.188 HD
HETATM    3  C3  UNL     1      17.045 -12.923   5.260  1.00  0.00     0.127 C
ENDROOT
BRANCH   1   4
HETATM    4  N5  UNL     1      15.909 -14.918   5.385  1.00  0.00     0.005 N
HETATM    5  C1  UNL     1      15.006 -15.317   4.443  1.00  0.00     0.718 A
HETATM    6  N2  UNL     1      15.134 -16.653   4.373  1.00  0.00    -0.136 N
HETATM    7  C2  UNL     1      16.077 -17.081   5.233  1.00  0.00     0.377 A
ATOM      8  H2  UNL     1      14.592 -17.258   3.756  1.00  0.00     0.189 HD
HETATM    9  O1  UNL     1      16.462 -18.278   5.435  1.00  0.00    -0.243 OA
HETATM   10  N3  UNL     1      16.539 -15.984   5.846  1.00  0.00    -0.111 N
BRANCH   5  11
HETATM   11  N1  UNL     1      14.204 -14.559   3.768  1.00  0.00    -0.231 N
ATOM     12  H12 UNL     1      13.807 -13.668   4.068  1.00  0.00     0.174 HD
ATOM     13  H11 UNL     1      13.833 -14.717   2.832  1.00  0.00     0.174 HD
ENDBRANCH   5  11
BRANCH  10  14
HETATM   14  N4  UNL     1      17.551 -16.027   6.828  1.00  0.00    -0.318 N
ATOM     15  H42 UNL     1      17.740 -16.775   7.495  1.00  0.00     0.179 HD
ATOM     16  H41 UNL     1      18.219 -15.268   6.966  1.00  0.00     0.179 HD
ENDBRANCH  10  14
ENDBRANCH   1   4
BRANCH   3  17
HETATM   17  C4  UNL     1      17.292 -11.513   5.621  1.00  0.00     0.056 A
HETATM   18  C5  UNL     1      16.471 -10.842   6.501  1.00  0.00     0.159 A
HETATM   19  O2  UNL     1      16.692  -9.592   6.820  1.00  0.00    -0.314 OA
HETATM   20  C6  UNL     1      17.704  -8.889   6.329  1.00  0.00     0.173 A
HETATM   21  C7  UNL     1      18.569  -9.486   5.444  1.00  0.00     0.126 A
HETATM   22  C9  UNL     1      18.412  -7.623   6.288  1.00  0.00     0.282 A
HETATM   23  C8  UNL     1      18.354 -10.815   5.091  1.00  0.00     0.215 A
HETATM   24  N7  UNL     1      19.290  -8.261   5.377  1.00  0.00    -0.315 N
HETATM   25  O3  UNL     1      19.121 -11.375   4.294  1.00  0.00    -0.285 OA
ATOM     26  H7  UNL     1      20.120  -7.957   4.868  1.00  0.00     0.169 HD
HETATM   27  O4  UNL     1      18.302  -6.469   6.818  1.00  0.00    -0.265 OA
ENDBRANCH   3  17
TORSDOF 4
ENDMDL