MODEL 5
REMARK VINA RESULT: -6.117263937      9.050     11.782
REMARK  3 active torsions:
REMARK  status: ('A' for Active; 'I' for Inactive)
REMARK    1  A    between atoms: C2_3  and  N2_4
REMARK    2  A    between atoms: N2_4  and  C3_6
REMARK    3  A    between atoms: C7_14  and  C8_15
ROOT
HETATM    1  N1  UNL     1      15.299 -14.275   4.333  1.00  0.00    -0.196 NA
HETATM    2  C1  UNL     1      15.091 -14.664   3.289  1.00  0.00     0.078 C
HETATM    3  C2  UNL     1      14.849 -15.174   1.965  1.00  0.00     0.245 C
ENDROOT
BRANCH   3   4
HETATM    4  N2  UNL     1      15.379 -16.570   1.849  1.00  0.00    -0.363 N
ATOM      5  H2  UNL     1      16.362 -16.817   1.971  1.00  0.00     0.162 HD
BRANCH   4   6
HETATM    6  C3  UNL     1      14.360 -17.510   1.551  1.00  0.00     0.118 A
HETATM    7  N3  UNL     1      13.383 -17.512   2.416  1.00  0.00    -0.338 N
HETATM    8  C4  UNL     1      12.235 -18.298   2.427  1.00  0.00     0.182 A
ATOM      9  H3  UNL     1      13.472 -16.848   3.185  1.00  0.00     0.168 HD
HETATM   10  N4  UNL     1      12.189 -19.275   1.375  1.00  0.00    -0.347 N
HETATM   11  C5  UNL     1      13.231 -19.296   0.417  1.00  0.00     0.119 A
ATOM     12  H4  UNL     1      11.419 -19.942   1.319  1.00  0.00     0.167 HD
HETATM   13  C6  UNL     1      14.352 -18.418   0.467  1.00  0.00     0.072 A
HETATM   14  C9  UNL     1      13.156 -20.209  -0.606  1.00  0.00     0.287 A
HETATM   15  C7  UNL     1      15.321 -18.489  -0.483  1.00  0.00     0.111 A
HETATM   16  N9  UNL     1      15.139 -19.441  -1.454  1.00  0.00    -0.293 N
HETATM   17  N10 UNL     1      14.127 -20.250  -1.517  1.00  0.00    -0.264 N
ATOM     18  H9  UNL     1      15.852 -19.518  -2.180  1.00  0.00     0.187 HD
ATOM     19  H10 UNL     1      14.073 -20.929  -2.277  1.00  0.00     0.190 HD
HETATM   20  O1  UNL     1      12.180 -21.008  -0.692  1.00  0.00    -0.264 OA
BRANCH  15  21
HETATM   21  C8  UNL     1      16.491 -17.648  -0.563  1.00  0.00     0.166 A
HETATM   22  N5  UNL     1      17.699 -18.401  -0.479  1.00  0.00    -0.267 N
HETATM   23  N6  UNL     1      18.730 -17.622  -0.563  1.00  0.00    -0.227 N
ATOM     24  H5  UNL     1      17.745 -19.414  -0.367  1.00  0.00     0.190 HD
HETATM   25  N7  UNL     1      18.316 -16.385  -0.701  1.00  0.00    -0.227 N
ATOM     26  H6  UNL     1      19.704 -17.922  -0.529  1.00  0.00     0.210 HD
HETATM   27  N8  UNL     1      17.021 -16.486  -0.691  1.00  0.00    -0.267 N
ATOM     28  H7  UNL     1      18.879 -15.540  -0.794  1.00  0.00     0.210 HD
ATOM     29  H8  UNL     1      16.435 -15.656  -0.783  1.00  0.00     0.190 HD
ENDBRANCH  15  21
ENDBRANCH   4   6
ENDBRANCH   3   4
TORSDOF 3
ENDMDL