MODEL 4
REMARK VINA RESULT: -5.519063372      5.932      9.081
REMARK  7 active torsions:
REMARK  status: ('A' for Active; 'I' for Inactive)
REMARK    1  A    between atoms: O1_2  and  C2_3
REMARK    2  A    between atoms: C2_3  and  C3_5
REMARK    3  A    between atoms: C4_6  and  O3_7
REMARK    4  A    between atoms: C5_9  and  O4_10
REMARK    5  A    between atoms: C9_18  and  C10_19
REMARK    6  A    between atoms: C10_19  and  N2_20
REMARK    7  A    between atoms: N2_20  and  N3_22
ROOT
HETATM    1  C3  UNL     1      14.716 -17.164   5.796  1.00  0.00     0.092 C
HETATM    2  C4  UNL     1      14.952 -18.459   6.271  1.00  0.00     0.122 C
HETATM    3  C5  UNL     1      14.282 -19.598   5.836  1.00  0.00     0.169 C
HETATM    4  C6  UNL     1      13.652 -19.774   4.647  1.00  0.00     0.286 C
HETATM    5  O5  UNL     1      13.426 -20.964   4.306  1.00  0.00    -0.265 OA
HETATM    6  N1  UNL     1      13.222 -18.872   3.760  1.00  0.00    -0.283 N
HETATM    7  C7  UNL     1      12.214 -19.284   2.825  1.00  0.00     0.163 C
HETATM    8  C8  UNL     1      13.644 -17.582   3.645  1.00  0.00     0.263 C
HETATM    9  O6  UNL     1      13.267 -16.933   2.625  1.00  0.00    -0.267 OA
HETATM   10  C9  UNL     1      14.446 -16.825   4.482  1.00  0.00     0.068 C
ENDROOT
BRANCH  10  11
HETATM   11  C10 UNL     1      15.079 -15.630   4.021  1.00  0.00     0.124 C
BRANCH  11  12
HETATM   12  N2  UNL     1      14.389 -14.545   3.767  1.00  0.00    -0.317 N
ATOM     13  H2  UNL     1      14.719 -13.920   3.031  1.00  0.00     0.185 HD
BRANCH  12  14
HETATM   14  N3  UNL     1      13.226 -14.207   4.453  1.00  0.00    -0.345 N
ATOM     15  H32 UNL     1      13.326 -13.885   5.416  1.00  0.00     0.176 HD
ATOM     16  H31 UNL     1      12.296 -14.267   4.037  1.00  0.00     0.176 HD
ENDBRANCH  12  14
ENDBRANCH  11  12
ENDBRANCH  10  11
BRANCH   1  17
HETATM   17  C2  UNL     1      14.740 -16.115   6.786  1.00  0.00     0.296 C
HETATM   18  O2  UNL     1      13.726 -15.402   6.958  1.00  0.00    -0.259 OA
BRANCH  17  19
HETATM   19  O1  UNL     1      15.810 -15.788   7.603  1.00  0.00    -0.322 OA
HETATM   20  C1  UNL     1      16.153 -14.486   7.985  1.00  0.00     0.213 C
ENDBRANCH  17  19
ENDBRANCH   1  17
BRANCH   2  21
HETATM   21  O3  UNL     1      15.897 -18.666   7.223  1.00  0.00    -0.357 OA
ATOM     22  H3  UNL     1      16.042 -18.011   7.895  1.00  0.00     0.218 HD
ENDBRANCH   2  21
BRANCH   3  23
HETATM   23  O4  UNL     1      14.245 -20.679   6.696  1.00  0.00    -0.354 OA
ATOM     24  H4  UNL     1      15.021 -20.850   7.215  1.00  0.00     0.218 HD
ENDBRANCH   3  23
TORSDOF 7
ENDMDL