MODEL 1
REMARK VINA RESULT: -5.641493558      0.000      0.000
REMARK  5 active torsions:
REMARK  status: ('A' for Active; 'I' for Inactive)
REMARK    1  A    between atoms: O1_2  and  C2_3
REMARK    2  A    between atoms: C2_3  and  C3_5
REMARK    3  A    between atoms: C3_5  and  S1_6
REMARK    4  A    between atoms: S1_6  and  O3_7
REMARK    5  A    between atoms: C6_16  and  N4_17
REMARK       I    between atoms: N4_17  and  C7_19
ROOT
HETATM    1  C3  UNL     1      14.566 -16.265   4.878  1.00  0.00     0.211 C
HETATM    2  C4  UNL     1      15.825 -15.383   4.942  1.00  0.00     0.105 C
HETATM    3  N1  UNL     1      16.615 -15.484   6.084  1.00  0.00    -0.342 N
ATOM      4  H1  UNL     1      17.276 -14.734   6.282  1.00  0.00     0.167 HD
HETATM    5  C5  UNL     1      16.554 -16.462   6.889  1.00  0.00     0.193 C
HETATM    6  N2  UNL     1      17.423 -16.496   8.043  1.00  0.00    -0.063 NA
HETATM    7  N3  UNL     1      15.549 -17.398   6.720  1.00  0.00    -0.318 N
ATOM      8  H3  UNL     1      15.538 -18.183   7.370  1.00  0.00     0.170 HD
HETATM    9  C6  UNL     1      14.589 -17.375   5.786  1.00  0.00     0.124 C
ENDROOT
BRANCH   1  10
HETATM   10  C2  UNL     1      14.427 -16.705   3.470  1.00  0.00     0.292 C
HETATM   11  O2  UNL     1      15.451 -16.691   2.733  1.00  0.00    -0.262 OA
BRANCH  10  12
HETATM   12  O1  UNL     1      13.208 -17.134   2.943  1.00  0.00    -0.325 OA
HETATM   13  C1  UNL     1      13.178 -18.423   2.361  1.00  0.00     0.213 C
ENDBRANCH  10  12
ENDBRANCH   1  10
BRANCH   1  14
HETATM   14  S1  UNL     1      13.245 -15.058   5.226  1.00  0.00     0.019 SA
BRANCH  14  15
HETATM   15  O3  UNL     1      11.709 -15.432   4.780  1.00  0.00    -0.328 OA
ATOM     16  H3  UNL     1      11.580 -15.993   4.024  1.00  0.00     0.227 HD
ENDBRANCH  14  15
ENDBRANCH   1  14
BRANCH   9  17
HETATM   17  N4  UNL     1      13.770 -18.497   5.869  1.00  0.00    -0.298 N
HETATM   18  C7  UNL     1      14.013 -19.848   6.008  1.00  0.00     0.334 C
HETATM   19  N5  UNL     1      12.829 -20.720   6.045  1.00  0.00    -0.040 NA
HETATM   20  O4  UNL     1      15.053 -20.522   6.112  1.00  0.00    -0.251 OA
ATOM     21  H4  UNL     1      12.777 -18.272   5.817  1.00  0.00     0.171 HD
ENDBRANCH   9  17
TORSDOF 5
ENDMDL