MODEL 4
REMARK VINA RESULT: -5.798320691      2.113      2.654
REMARK  5 active torsions:
REMARK  status: ('A' for Active; 'I' for Inactive)
REMARK    1  A    between atoms: O1_2  and  C2_3
REMARK    2  A    between atoms: C2_3  and  N3_9
REMARK    3  A    between atoms: N1_4  and  N2_6
REMARK    4  A    between atoms: N3_9  and  N4_11
REMARK    5  A    between atoms: N7_19  and  N8_20
ROOT
HETATM    1  N4  UNL     1      13.495 -18.556   1.468  1.00  0.00    -0.187 N
HETATM    2  C3  UNL     1      14.096 -17.373   1.781  1.00  0.00     0.293 A
HETATM    3  O2  UNL     1      14.660 -16.659   0.899  1.00  0.00    -0.264 OA
HETATM    4  C4  UNL     1      14.124 -16.894   3.070  1.00  0.00     0.157 A
HETATM    5  C5  UNL     1      14.762 -15.640   3.403  1.00  0.00     0.108 C
HETATM    6  N5  UNL     1      15.270 -14.629   3.650  1.00  0.00    -0.191 NA
HETATM    7  C6  UNL     1      13.510 -17.673   4.026  1.00  0.00     0.166 A
HETATM    8  N6  UNL     1      13.530 -17.190   5.367  1.00  0.00    -0.079 NA
HETATM    9  N7  UNL     1      12.911 -18.842   3.738  1.00  0.00    -0.219 N
HETATM   10  C7  UNL     1      12.915 -19.271   2.433  1.00  0.00     0.223 A
HETATM   11  S1  UNL     1      12.161 -20.701   2.191  1.00  0.00    -0.037 SA
ENDROOT
BRANCH   1  12
HETATM   12  N3  UNL     1      13.500 -18.982   0.161  1.00  0.00    -0.252 N
ATOM     13  H3  UNL     1      12.706 -18.676  -0.402  1.00  0.00     0.191 HD
BRANCH  12  14
HETATM   14  C2  UNL     1      14.442 -19.776  -0.509  1.00  0.00     0.253 C
HETATM   15  N1  UNL     1      14.078 -20.748  -1.312  1.00  0.00    -0.271 N
ATOM     16  H1  UNL     1      14.784 -21.312  -1.785  1.00  0.00     0.190 HD
BRANCH  14  17
HETATM   17  O1  UNL     1      15.817 -19.611  -0.379  1.00  0.00    -0.325 OA
HETATM   18  C1  UNL     1      16.506 -18.872  -1.381  1.00  0.00     0.213 C
ENDBRANCH  14  17
BRANCH  15  19
HETATM   19  N2  UNL     1      12.719 -21.008  -1.519  1.00  0.00    -0.342 N
ATOM     20  H22 UNL     1      12.060 -20.831  -0.761  1.00  0.00     0.176 HD
ATOM     21  H21 UNL     1      12.402 -21.369  -2.419  1.00  0.00     0.176 HD
ENDBRANCH  15  19
ENDBRANCH  12  14
ENDBRANCH   1  12
BRANCH   9  22
HETATM   22  N8  UNL     1      12.305 -19.591   4.746  1.00  0.00    -0.335 N
ATOM     23  H82 UNL     1      12.485 -20.590   4.846  1.00  0.00     0.177 HD
ATOM     24  H81 UNL     1      11.665 -19.146   5.404  1.00  0.00     0.177 HD
ENDBRANCH   9  22
TORSDOF 5
ENDMDL