MODEL 4
REMARK VINA RESULT: -5.536993469      6.607     11.692
REMARK  6 active torsions:
REMARK  status: ('A' for Active; 'I' for Inactive)
REMARK    1  A    between atoms: N1_2  and  C3_4
REMARK    2  A    between atoms: C4_7  and  N3_8
REMARK    3  A    between atoms: N3_8  and  N4_10
REMARK    4  A    between atoms: C5_13  and  N5_14
REMARK    5  A    between atoms: N5_14  and  N6_16
REMARK    6  A    between atoms: C8_22  and  N8_23
ROOT
HETATM    1  C3  UNL     1      12.487 -18.663   2.590  1.00  0.00     0.682 C
HETATM    2  N2  UNL     1      12.530 -19.441   1.460  1.00  0.00    -0.173 N
ATOM      3  H2  UNL     1      12.079 -20.355   1.493  1.00  0.00     0.186 HD
HETATM    4  C4  UNL     1      13.155 -19.060   0.263  1.00  0.00     0.165 C
HETATM    5  C5  UNL     1      14.412 -18.529   0.233  1.00  0.00     0.118 C
HETATM    6  C6  UNL     1      14.856 -17.400   0.975  1.00  0.00     0.122 C
HETATM    7  C7  UNL     1      15.914 -16.652   0.412  1.00  0.00     0.106 C
HETATM    8  N7  UNL     1      16.785 -16.061  -0.053  1.00  0.00    -0.191 NA
HETATM    9  C8  UNL     1      14.312 -17.030   2.207  1.00  0.00     0.159 C
HETATM   10  N11 UNL     1      13.327 -17.666   2.912  1.00  0.00    -0.174 N
ATOM     11  H11 UNL     1      13.209 -17.315   3.862  1.00  0.00     0.186 HD
ENDROOT
BRANCH   5  12
HETATM   12  N5  UNL     1      15.301 -19.085  -0.442  1.00  0.00    -0.302 N
ATOM     13  H5  UNL     1      16.098 -19.389   0.118  1.00  0.00     0.186 HD
BRANCH  12  14
HETATM   14  N6  UNL     1      15.436 -19.371  -1.758  1.00  0.00    -0.345 N
ATOM     15  H62 UNL     1      15.639 -20.359  -1.911  1.00  0.00     0.176 HD
ATOM     16  H61 UNL     1      15.378 -18.815  -2.610  1.00  0.00     0.176 HD
ENDBRANCH  12  14
ENDBRANCH   5  12
BRANCH   9  17
HETATM   17  N8  UNL     1      14.880 -15.856   2.744  1.00  0.00    -0.275 N
HETATM   18  N9  UNL     1      14.680 -15.636   3.988  1.00  0.00    -0.235 N
HETATM   19  C9  UNL     1      15.236 -14.484   4.519  1.00  0.00     0.197 C
ATOM     20  H9  UNL     1      14.137 -16.281   4.563  1.00  0.00     0.199 HD
HETATM   21  N10 UNL     1      15.715 -13.522   4.966  1.00  0.00    -0.170 NA
ATOM     22  H8  UNL     1      15.424 -15.213   2.168  1.00  0.00     0.189 HD
ENDBRANCH   9  17
BRANCH   4  23
HETATM   23  N3  UNL     1      12.511 -19.222  -0.798  1.00  0.00    -0.290 N
ATOM     24  H3  UNL     1      12.359 -18.390  -1.368  1.00  0.00     0.188 HD
BRANCH  23  25
HETATM   25  N4  UNL     1      11.992 -20.382  -1.274  1.00  0.00    -0.344 N
ATOM     26  H42 UNL     1      11.137 -20.697  -0.816  1.00  0.00     0.176 HD
ATOM     27  H41 UNL     1      12.364 -20.960  -2.028  1.00  0.00     0.176 HD
ENDBRANCH  23  25
ENDBRANCH   4  23
BRANCH   1  28
HETATM   28  N1  UNL     1      11.458 -18.926   3.529  1.00  0.00    -0.226 N
HETATM   29  C1  UNL     1      10.192 -19.525   3.198  1.00  0.00     0.168 C
HETATM   30  C2  UNL     1      11.692 -18.570   4.916  1.00  0.00     0.168 C
ENDBRANCH   1  28
TORSDOF 6
ENDMDL