MODEL 1
REMARK VINA RESULT: -8.706511993      0.000      0.000
REMARK  8 active torsions:
REMARK  status: ('A' for Active; 'I' for Inactive)
REMARK    1  A    between atoms: C2_2  and  C3_3
REMARK    2  A    between atoms: C3_3  and  C4_4
REMARK    3  A    between atoms: C12_13  and  O1_14
REMARK    4  A    between atoms: O1_14  and  C13_15
REMARK    5  A    between atoms: C13_15  and  C14_16
REMARK    6  A    between atoms: C14_16  and  C15_17
REMARK    7  A    between atoms: C15_17  and  C16_18
REMARK    8  A    between atoms: C16_18  and  N3_21
ROOT
HETATM    1  C16 UNL     1      -7.954  -1.804  17.223  1.00  0.00     0.187 C
HETATM    2  C17 UNL     1      -9.305  -1.311  16.969  1.00  0.00     0.084 C
HETATM    3  N2  UNL     1     -10.365  -0.918  16.750  1.00  0.00    -0.195 NA
ENDROOT
BRANCH   1   4
HETATM    4  C15 UNL     1      -7.963  -2.658  18.473  1.00  0.00     0.042 C
BRANCH   4   5
HETATM    5  C14 UNL     1      -7.992  -1.644  19.630  1.00  0.00     0.030 C
BRANCH   5   6
HETATM    6  C13 UNL     1      -9.302  -1.657  20.337  1.00  0.00     0.176 C
BRANCH   6   7
HETATM    7  O1  UNL     1      -9.933  -0.455  20.530  1.00  0.00    -0.350 OA
BRANCH   7   8
HETATM    8  C12 UNL     1     -11.297  -0.213  20.572  1.00  0.00     0.083 A
HETATM    9  C11 UNL     1     -11.778   0.778  21.455  1.00  0.00     0.011 A
HETATM   10  C10 UNL     1     -11.474   1.768  22.467  1.00  0.00     0.041 A
HETATM   11  C24 UNL     1     -13.101   0.990  21.471  1.00  0.00     0.071 A
HETATM   12  C9  UNL     1     -10.819   1.517  23.746  1.00  0.00     0.033 C
HETATM   13  C25 UNL     1     -12.924   2.048  22.497  1.00  0.00     0.053 A
HETATM   14  C8  UNL     1      -9.732   0.542  23.950  1.00  0.00    -0.000 C
HETATM   15  C28 UNL     1     -11.765   1.424  24.945  1.00  0.00     0.228 C
HETATM   16  C4  UNL     1     -10.008  -0.752  24.650  1.00  0.00     0.018 C
HETATM   17  C7  UNL     1      -8.836   1.229  25.057  1.00  0.00     0.036 C
HETATM   18  C5  UNL     1     -10.930  -0.617  25.844  1.00  0.00     0.278 C
HETATM   19  N1  UNL     1     -11.078   0.798  26.051  1.00  0.00     0.093 N
HETATM   20  C6  UNL     1      -9.778   1.382  26.232  1.00  0.00     0.273 C
HETATM   21  C27 UNL     1     -13.050   0.742  24.547  1.00  0.00     0.037 C
HETATM   22  C26 UNL     1     -13.733   1.776  23.685  1.00  0.00     0.014 C
HETATM   23  O4  UNL     1     -13.945   0.314  20.707  1.00  0.00    -0.279 OA
HETATM   24  C23 UNL     1     -13.543  -0.604  19.887  1.00  0.00     0.290 A
HETATM   25  C22 UNL     1     -12.198  -0.880  19.809  1.00  0.00     0.119 A
HETATM   26  O3  UNL     1     -14.310  -1.273  19.141  1.00  0.00    -0.260 OA
BRANCH  16  27
HETATM   27  C3  UNL     1     -10.318  -1.944  23.814  1.00  0.00     0.006 C
BRANCH  27  28
HETATM   28  C2  UNL     1      -9.540  -3.173  24.238  1.00  0.00    -0.004 C
HETATM   29  C1  UNL     1      -8.344  -3.430  23.368  1.00  0.00     0.005 C
ENDBRANCH  27  28
ENDBRANCH  16  27
ENDBRANCH   7   8
ENDBRANCH   6   7
ENDBRANCH   5   6
ENDBRANCH   4   5
ENDBRANCH   1   4
BRANCH   1  30
HETATM   30  N3  UNL     1      -7.435  -2.406  16.068  1.00  0.00    -0.392 N
HETATM   31  C18 UNL     1      -7.335  -1.651  14.879  1.00  0.00     0.144 C
HETATM   32  C19 UNL     1      -5.876  -1.533  14.493  1.00  0.00     0.187 C
HETATM   33  O2  UNL     1      -5.196  -2.730  14.544  1.00  0.00    -0.388 OA
HETATM   34  C20 UNL     1      -5.203  -3.200  15.866  1.00  0.00     0.187 C
HETATM   35  C21 UNL     1      -6.636  -3.566  16.193  1.00  0.00     0.144 C
ENDBRANCH   1  30
TORSDOF 8
ENDMDL