MODEL 4
REMARK VINA RESULT: -7.406057546      2.763      8.018
REMARK  8 active torsions:
REMARK  status: ('A' for Active; 'I' for Inactive)
REMARK    1  A    between atoms: C2_2  and  O1_3
REMARK    2  A    between atoms: O1_3  and  C3_4
REMARK    3  A    between atoms: C5_7  and  C6_8
REMARK    4  A    between atoms: C6_8  and  O3_9
REMARK    5  A    between atoms: O3_9  and  C7_10
REMARK    6  A    between atoms: C18_22  and  O5_23
REMARK    7  A    between atoms: O5_23  and  C19_24
REMARK    8  A    between atoms: C19_24  and  C20_26
ROOT
HETATM    1  C3  UNL     1     -10.800   1.576  25.514  1.00  0.00     0.196 C
HETATM    2  C4  UNL     1     -11.647   1.814  26.772  1.00  0.00     0.163 C
HETATM    3  O2  UNL     1     -11.348   1.864  27.911  1.00  0.00    -0.295 OA
HETATM    4  C5  UNL     1     -13.011   1.969  26.079  1.00  0.00     0.091 C
HETATM    5  C9  UNL     1     -13.047   0.733  25.248  1.00  0.00    -0.024 C
HETATM    6  C10 UNL     1     -13.711  -0.387  26.021  1.00  0.00     0.016 C
HETATM    7  C11 UNL     1     -13.760   0.932  23.960  1.00  0.00     0.011 C
HETATM    8  C12 UNL     1     -12.931   1.035  22.724  1.00  0.00     0.007 C
HETATM    9  C13 UNL     1     -11.915  -0.079  22.613  1.00  0.00     0.003 C
HETATM   10  C14 UNL     1     -11.036   0.093  21.401  1.00  0.00    -0.029 C
HETATM   11  C15 UNL     1     -10.245   1.344  21.336  1.00  0.00     0.016 C
HETATM   12  C16 UNL     1     -11.837  -0.022  20.125  1.00  0.00     0.013 C
HETATM   13  C17 UNL     1     -11.473  -1.215  19.275  1.00  0.00     0.033 C
HETATM   14  C18 UNL     1     -10.030  -1.186  18.889  1.00  0.00     0.132 C
HETATM   15  C22 UNL     1      -9.170  -0.957  20.117  1.00  0.00     0.045 C
HETATM   16  C23 UNL     1     -10.042  -1.075  21.347  1.00  0.00     0.066 C
HETATM   17  C24 UNL     1      -9.233  -1.110  22.565  1.00  0.00     0.132 C
HETATM   18  O7  UNL     1      -8.201  -1.742  22.606  1.00  0.00    -0.298 OA
HETATM   19  C25 UNL     1      -9.676  -0.365  23.760  1.00  0.00     0.088 C
HETATM   20  C26 UNL     1     -11.200  -0.371  23.886  1.00  0.00    -0.026 C
HETATM   21  C27 UNL     1     -11.478  -1.872  24.188  1.00  0.00     0.016 C
HETATM   22  C28 UNL     1     -11.576   0.386  25.070  1.00  0.00     0.040 C
ENDROOT
BRANCH   4  23
HETATM   23  C6  UNL     1     -14.049   2.261  27.067  1.00  0.00     0.191 C
BRANCH  23  24
HETATM   24  O3  UNL     1     -13.967   1.843  28.302  1.00  0.00    -0.321 OA
BRANCH  24  25
HETATM   25  C7  UNL     1     -14.251   1.645  29.541  1.00  0.00     0.254 C
HETATM   26  C8  UNL     1     -14.909   0.410  30.131  1.00  0.00     0.126 C
HETATM   27  O4  UNL     1     -13.983   2.522  30.397  1.00  0.00    -0.266 OA
ENDBRANCH  24  25
ENDBRANCH  23  24
ENDBRANCH   4  23
BRANCH   1  28
HETATM   28  O1  UNL     1     -10.969   2.746  24.846  1.00  0.00    -0.378 OA
BRANCH  28  29
HETATM   29  C2  UNL     1      -9.913   3.185  24.114  1.00  0.00     0.164 C
HETATM   30  C1  UNL     1     -10.203   4.351  23.214  1.00  0.00     0.033 C
ENDBRANCH  28  29
ENDBRANCH   1  28
BRANCH  14  31
HETATM   31  O5  UNL     1      -9.568  -2.321  18.246  1.00  0.00    -0.316 OA
BRANCH  31  32
HETATM   32  C19 UNL     1      -8.848  -2.335  17.052  1.00  0.00     0.258 C
HETATM   33  O6  UNL     1      -9.379  -1.665  16.132  1.00  0.00    -0.265 OA
BRANCH  32  34
HETATM   34  C20 UNL     1      -7.571  -3.079  16.902  1.00  0.00     0.106 C
HETATM   35  C21 UNL     1      -6.841  -3.049  18.228  1.00  0.00     0.015 C
ENDBRANCH  32  34
ENDBRANCH  31  32
ENDBRANCH  14  31
TORSDOF 8
ENDMDL