MODEL 4
REMARK VINA RESULT: -8.848008430      3.277      9.000
REMARK  7 active torsions:
REMARK  status: ('A' for Active; 'I' for Inactive)
REMARK    1  A    between atoms: C3_3  and  C4_4
REMARK    2  A    between atoms: C4_4  and  C5_5
REMARK    3  A    between atoms: C5_5  and  C6_6
REMARK    4  A    between atoms: C8_9  and  N1_10
REMARK    5  A    between atoms: N1_10  and  C9_11
REMARK    6  A    between atoms: N1_10  and  C15_17
REMARK       I    between atoms: N2_20  and  C18_21
REMARK    7  A    between atoms: C18_21  and  C19_23
ROOT
HETATM    1  N1  UNL     1     -10.180  -0.584  21.779  1.00  0.00    -0.350 N
ENDROOT
BRANCH   1   2
HETATM    2  C8  UNL     1     -10.269  -0.979  23.169  1.00  0.00     0.147 A
HETATM    3  S1  UNL     1      -9.055  -1.719  24.150  1.00  0.00    -0.064 SA
HETATM    4  C7  UNL     1      -9.952  -1.834  25.604  1.00  0.00     0.078 A
HETATM    5  C6  UNL     1     -11.153  -1.283  25.231  1.00  0.00     0.018 A
HETATM    6  N3  UNL     1     -11.268  -0.870  24.010  1.00  0.00    -0.340 N
ATOM      7  H3  UNL     1     -12.146  -0.454  23.699  1.00  0.00     0.168 HD
BRANCH   5   8
HETATM    8  C5  UNL     1     -12.288  -1.172  26.225  1.00  0.00     0.062 C
BRANCH   8   9
HETATM    9  C4  UNL     1     -13.463  -0.467  25.629  1.00  0.00     0.048 C
BRANCH   9  10
HETATM   10  C3  UNL     1     -13.318   1.011  25.651  1.00  0.00    -0.017 A
HETATM   11  C2  UNL     1     -13.831   1.948  24.789  1.00  0.00     0.032 A
HETATM   12  C1  UNL     1     -14.672   1.671  23.600  1.00  0.00     0.070 C
HETATM   13  N5  UNL     1     -13.439   3.146  25.206  1.00  0.00    -0.301 N
HETATM   14  N4  UNL     1     -12.704   3.000  26.293  1.00  0.00    -0.309 N
HETATM   15  C26 UNL     1     -13.719   4.462  24.633  1.00  0.00     0.177 C
HETATM   16  C25 UNL     1     -12.603   1.704  26.603  1.00  0.00     0.116 A
ATOM     17  H4  UNL     1     -12.276   3.763  26.817  1.00  0.00     0.186 HD
ENDBRANCH   9  10
ENDBRANCH   8   9
ENDBRANCH   5   8
ENDBRANCH   1   2
BRANCH   1  18
HETATM   18  C9  UNL     1     -10.318   0.828  21.574  1.00  0.00     0.087 C
HETATM   19  C10 UNL     1     -11.538   1.270  20.874  1.00  0.00     0.025 C
HETATM   20  C11 UNL     1     -12.226   2.487  21.366  1.00  0.00     0.002 C
HETATM   21  C12 UNL     1     -11.403   3.529  22.028  1.00  0.00     0.000 C
HETATM   22  C13 UNL     1      -9.999   3.081  22.365  1.00  0.00     0.002 C
HETATM   23  C14 UNL     1     -10.205   1.635  22.846  1.00  0.00     0.025 C
ENDBRANCH   1  18
BRANCH   1  24
HETATM   24  C15 UNL     1      -9.986  -1.640  20.895  1.00  0.00     0.106 C
HETATM   25  C16 UNL     1     -10.854  -1.963  19.803  1.00  0.00     0.047 C
HETATM   26  C17 UNL     1     -10.180  -1.465  18.547  1.00  0.00     0.128 C
HETATM   27  N2  UNL     1      -8.829  -1.863  18.839  1.00  0.00    -0.350 N
HETATM   28  C18 UNL     1      -7.910  -2.494  17.986  1.00  0.00     0.224 C
HETATM   29  C24 UNL     1      -8.614  -1.478  20.215  1.00  0.00     0.151 C
HETATM   30  O1  UNL     1      -6.731  -2.765  18.405  1.00  0.00    -0.273 OA
BRANCH  28  31
HETATM   31  C19 UNL     1      -8.196  -2.890  16.586  1.00  0.00     0.082 C
HETATM   32  C20 UNL     1      -8.234  -1.724  15.652  1.00  0.00     0.040 C
HETATM   33  C21 UNL     1      -6.928  -1.092  15.330  1.00  0.00     0.168 C
HETATM   34  O2  UNL     1      -5.891  -1.979  15.380  1.00  0.00    -0.391 OA
HETATM   35  C22 UNL     1      -6.306  -3.251  14.998  1.00  0.00     0.168 C
HETATM   36  C23 UNL     1      -7.161  -3.884  16.085  1.00  0.00     0.040 C
ENDBRANCH  28  31
ENDBRANCH   1  24
TORSDOF 7
ENDMDL