MODEL 3
REMARK VINA RESULT: -7.636864792      0.741      1.301
REMARK  8 active torsions:
REMARK  status: ('A' for Active; 'I' for Inactive)
REMARK    1  A    between atoms: C2_2  and  O1_3
REMARK    2  A    between atoms: O1_3  and  C3_4
REMARK    3  A    between atoms: C3_4  and  C4_6
REMARK    4  A    between atoms: N1_12  and  C10_13
REMARK    5  A    between atoms: C10_13  and  C11_14
REMARK    6  A    between atoms: C13_18  and  C14_19
REMARK    7  A    between atoms: C18_25  and  C19_26
REMARK    8  A    between atoms: C19_26  and  C20_27
REMARK       I    between atoms: C20_27  and  N4_29
ROOT
HETATM    1  C4  UNL     1     -10.734   1.677  22.458  1.00  0.00     0.090 C
HETATM    2  C5  UNL     1      -9.950   2.594  21.559  1.00  0.00     0.027 C
HETATM    3  C6  UNL     1      -9.684   3.944  22.124  1.00  0.00     0.005 C
HETATM    4  C7  UNL     1      -9.500   4.007  23.599  1.00  0.00     0.029 C
HETATM    5  C8  UNL     1      -9.626   2.727  24.295  1.00  0.00    -0.001 C
HETATM    6  C9  UNL     1     -10.182   1.634  23.816  1.00  0.00     0.023 C
HETATM    7  N1  UNL     1     -10.204   0.484  24.649  1.00  0.00    -0.359 N
HETATM    8  C16 UNL     1     -10.440  -0.803  23.992  1.00  0.00     0.196 C
HETATM    9  C17 UNL     1      -9.699  -1.835  24.688  1.00  0.00     0.085 C
HETATM   10  N3  UNL     1      -9.118  -2.674  25.244  1.00  0.00    -0.195 NA
HETATM   11  C18 UNL     1      -9.952  -0.694  22.589  1.00  0.00     0.033 C
HETATM   12  C26 UNL     1     -10.734   0.314  21.777  1.00  0.00     0.034 C
ENDROOT
BRANCH   7  13
HETATM   13  C10 UNL     1     -10.007   0.603  26.045  1.00  0.00     0.189 C
BRANCH  13  14
HETATM   14  C11 UNL     1     -11.255   0.912  26.786  1.00  0.00     0.069 A
HETATM   15  N2  UNL     1     -12.148   1.876  26.660  1.00  0.00    -0.361 N
HETATM   16  C12 UNL     1     -13.171   1.923  27.450  1.00  0.00     0.103 A
ATOM     17  H2  UNL     1     -12.030   2.587  25.938  1.00  0.00     0.165 HD
HETATM   18  C13 UNL     1     -13.280   0.939  28.407  1.00  0.00    -0.001 A
HETATM   19  S1  UNL     1     -11.879   0.009  28.092  1.00  0.00    -0.078 SA
BRANCH  18  20
HETATM   20  C14 UNL     1     -14.369   0.776  29.437  1.00  0.00     0.043 C
HETATM   21  C15 UNL     1     -15.543   1.598  28.988  1.00  0.00     0.010 C
ENDBRANCH  18  20
ENDBRANCH  13  14
ENDBRANCH   7  13
BRANCH  11  22
HETATM   22  C19 UNL     1      -9.765  -1.966  21.854  1.00  0.00     0.110 C
BRANCH  22  23
HETATM   23  C20 UNL     1      -8.866  -1.928  20.707  1.00  0.00     0.220 C
HETATM   24  O3  UNL     1      -9.258  -1.434  19.621  1.00  0.00    -0.273 OA
HETATM   25  N4  UNL     1      -7.542  -2.434  20.760  1.00  0.00    -0.352 N
HETATM   26  C21 UNL     1      -7.040  -3.016  21.990  1.00  0.00     0.125 C
HETATM   27  C25 UNL     1      -6.631  -2.407  19.634  1.00  0.00     0.125 C
HETATM   28  C22 UNL     1      -5.575  -3.376  21.874  1.00  0.00     0.020 C
HETATM   29  C23 UNL     1      -5.238  -4.140  20.638  1.00  0.00     0.003 C
HETATM   30  C24 UNL     1      -6.122  -3.822  19.453  1.00  0.00     0.020 C
ENDBRANCH  22  23
ENDBRANCH  11  22
BRANCH   1  31
HETATM   31  C3  UNL     1     -12.136   2.168  22.483  1.00  0.00     0.273 C
HETATM   32  O2  UNL     1     -12.831   2.134  23.557  1.00  0.00    -0.264 OA
BRANCH  31  33
HETATM   33  O1  UNL     1     -12.791   2.689  21.382  1.00  0.00    -0.321 OA
BRANCH  33  34
HETATM   34  C2  UNL     1     -13.791   1.993  20.689  1.00  0.00     0.174 C
HETATM   35  C1  UNL     1     -13.231   1.556  19.355  1.00  0.00     0.034 C
ENDBRANCH  33  34
ENDBRANCH  31  33
ENDBRANCH   1  31
TORSDOF 8
ENDMDL