MODEL 5
REMARK VINA RESULT: -8.131404556      1.905      2.831
REMARK  9 active torsions:
REMARK  status: ('A' for Active; 'I' for Inactive)
REMARK    1  A    between atoms: C2_2  and  O2_4
REMARK    2  A    between atoms: O2_4  and  C3_5
REMARK    3  A    between atoms: C14_17  and  C15_18
REMARK    4  A    between atoms: C15_18  and  O4_20
REMARK    5  A    between atoms: O4_20  and  C16_21
REMARK    6  A    between atoms: C16_21  and  C17_22
REMARK    7  A    between atoms: C16_21  and  C21_26
REMARK    8  A    between atoms: C17_22  and  C18_23
REMARK    9  A    between atoms: C21_26  and  C22_28
ROOT
HETATM    1  C3  UNL     1     -11.027   1.531  24.180  1.00  0.00     0.174 C
HETATM    2  C4  UNL     1     -10.203   2.706  23.787  1.00  0.00     0.255 C
HETATM    3  C5  UNL     1     -11.010   3.949  24.196  1.00  0.00     0.075 C
HETATM    4  C6  UNL     1     -11.448   3.849  22.749  1.00  0.00     0.243 C
HETATM    5  C7  UNL     1     -12.762   3.266  22.536  1.00  0.00     0.135 C
HETATM    6  C8  UNL     1     -13.686   3.962  23.481  1.00  0.00     0.067 C
HETATM    7  N1  UNL     1     -14.404   4.496  24.224  1.00  0.00    -0.197 NA
HETATM    8  C9  UNL     1     -12.935   1.789  22.542  1.00  0.00    -0.011 C
HETATM    9  C10 UNL     1     -14.275   1.555  23.261  1.00  0.00     0.018 C
HETATM   10  C11 UNL     1     -13.083   1.298  21.137  1.00  0.00     0.014 A
HETATM   11  C12 UNL     1     -14.097   0.318  20.764  1.00  0.00     0.008 A
HETATM   12  C13 UNL     1     -12.991  -0.699  20.485  1.00  0.00     0.020 A
HETATM   13  C14 UNL     1     -11.969   0.352  20.811  1.00  0.00     0.053 A
HETATM   14  C24 UNL     1     -11.169   0.196  22.053  1.00  0.00     0.032 C
HETATM   15  C25 UNL     1     -11.916   0.941  23.164  1.00  0.00    -0.005 C
HETATM   16  C26 UNL     1     -12.597  -0.187  23.973  1.00  0.00     0.019 C
HETATM   17  N3  UNL     1     -10.296   3.115  22.425  1.00  0.00     0.097 N
HETATM   18  C27 UNL     1      -9.140   3.939  22.069  1.00  0.00     0.311 C
ENDROOT
BRANCH  13  19
HETATM   19  C15 UNL     1     -11.130   0.719  19.615  1.00  0.00     0.268 C
HETATM   20  O3  UNL     1     -10.620   1.864  19.553  1.00  0.00    -0.264 OA
BRANCH  19  21
HETATM   21  O4  UNL     1     -10.893  -0.142  18.583  1.00  0.00    -0.308 OA
BRANCH  21  22
HETATM   22  C16 UNL     1      -9.620  -0.823  18.432  1.00  0.00     0.202 C
BRANCH  22  23
HETATM   23  C17 UNL     1      -9.500  -1.914  19.436  1.00  0.00     0.044 C
BRANCH  23  24
HETATM   24  C18 UNL     1      -8.412  -1.720  20.448  1.00  0.00    -0.020 C
HETATM   25  C19 UNL     1      -8.764  -2.346  21.789  1.00  0.00     0.009 C
HETATM   26  C20 UNL     1      -7.168  -2.459  19.897  1.00  0.00     0.009 C
ENDBRANCH  23  24
ENDBRANCH  22  23
BRANCH  22  27
HETATM   27  C21 UNL     1      -9.572  -1.370  17.067  1.00  0.00     0.169 C
HETATM   28  O5  UNL     1     -10.429  -1.129  16.252  1.00  0.00    -0.294 OA
BRANCH  27  29
HETATM   29  C22 UNL     1      -8.447  -2.247  16.657  1.00  0.00     0.204 C
HETATM   30  C23 UNL     1      -7.790  -1.779  15.453  1.00  0.00     0.066 C
HETATM   31  N2  UNL     1      -7.252  -1.409  14.494  1.00  0.00    -0.197 NA
ENDBRANCH  27  29
ENDBRANCH  22  27
ENDBRANCH  21  22
ENDBRANCH  19  21
ENDBRANCH  13  19
BRANCH   1  32
HETATM   32  O2  UNL     1     -11.762   1.818  25.356  1.00  0.00    -0.313 OA
BRANCH  32  33
HETATM   33  C2  UNL     1     -11.329   1.621  26.638  1.00  0.00     0.255 C
HETATM   34  C1  UNL     1     -10.276   0.641  27.017  1.00  0.00     0.126 C
HETATM   35  O1  UNL     1     -11.838   2.295  27.567  1.00  0.00    -0.266 OA
ENDBRANCH  32  33
ENDBRANCH   1  32
TORSDOF 9
ENDMDL