MODEL 2
REMARK VINA RESULT: -8.557244945      1.373      2.066
REMARK  8 active torsions:
REMARK  status: ('A' for Active; 'I' for Inactive)
REMARK    1  A    between atoms: O1_2  and  C2_3
REMARK    2  A    between atoms: C6_7  and  C7_8
REMARK    3  A    between atoms: C7_8  and  C8_10
REMARK    4  A    between atoms: C8_10  and  O4_12
REMARK    5  A    between atoms: O4_12  and  C9_13
REMARK    6  A    between atoms: C11_15  and  C12_16
REMARK    7  A    between atoms: C12_16  and  O5_17
REMARK    8  A    between atoms: O5_17  and  C13_18
ROOT
HETATM    1  C9  UNL     1     -11.700   0.657  19.236  1.00  0.00     0.141 C
HETATM    2  C10 UNL     1     -11.518   0.081  17.900  1.00  0.00     0.041 C
HETATM    3  C11 UNL     1     -10.047  -0.424  18.030  1.00  0.00     0.021 C
HETATM    4  C17 UNL     1     -10.191  -1.242  19.292  1.00  0.00    -0.025 C
HETATM    5  C18 UNL     1     -10.745  -2.616  18.970  1.00  0.00     0.017 C
HETATM    6  C19 UNL     1      -8.957  -1.362  20.114  1.00  0.00    -0.001 C
HETATM    7  C20 UNL     1      -7.948  -2.371  19.651  1.00  0.00     0.006 C
HETATM    8  C21 UNL     1      -7.311  -2.968  20.918  1.00  0.00     0.005 C
HETATM    9  C22 UNL     1      -7.903  -2.151  22.036  1.00  0.00    -0.014 C
HETATM   10  C23 UNL     1      -8.065  -2.933  23.305  1.00  0.00     0.010 C
HETATM   11  C24 UNL     1      -9.298  -1.856  21.495  1.00  0.00    -0.006 C
HETATM   12  C25 UNL     1      -9.956  -0.758  22.266  1.00  0.00     0.006 C
HETATM   13  C26 UNL     1     -10.614   0.195  21.335  1.00  0.00     0.013 C
HETATM   14  C27 UNL     1     -11.223  -0.482  20.129  1.00  0.00    -0.009 C
HETATM   15  C28 UNL     1     -12.395  -1.301  20.537  1.00  0.00     0.018 C
ENDROOT
BRANCH   1  16
HETATM   16  O4  UNL     1     -12.923   1.184  19.574  1.00  0.00    -0.309 OA
BRANCH  16  17
HETATM   17  C8  UNL     1     -13.240   2.524  19.694  1.00  0.00     0.330 C
HETATM   18  O3  UNL     1     -13.786   3.047  18.706  1.00  0.00    -0.256 OA
BRANCH  17  19
HETATM   19  C7  UNL     1     -12.962   3.298  20.902  1.00  0.00     0.234 C
HETATM   20  O2  UNL     1     -13.325   4.495  21.018  1.00  0.00    -0.286 OA
BRANCH  19  21
HETATM   21  C6  UNL     1     -12.248   2.675  22.001  1.00  0.00     0.117 C
HETATM   22  C2  UNL     1     -13.091   2.229  23.172  1.00  0.00     0.139 C
HETATM   23  C3  UNL     1     -11.968   1.942  24.162  1.00  0.00     0.060 C
HETATM   24  C4  UNL     1     -11.108   3.129  23.932  1.00  0.00    -0.027 C
HETATM   25  C5  UNL     1     -11.266   3.557  22.684  1.00  0.00    -0.015 C
BRANCH  22  26
HETATM   26  O1  UNL     1     -13.995   3.125  23.633  1.00  0.00    -0.389 OA
HETATM   27  C1  UNL     1     -14.531   2.932  24.865  1.00  0.00     0.202 C
ENDBRANCH  22  26
ENDBRANCH  19  21
ENDBRANCH  17  19
ENDBRANCH  16  17
ENDBRANCH   1  16
BRANCH   3  28
HETATM   28  C12 UNL     1      -9.754  -1.165  16.780  1.00  0.00     0.176 C
BRANCH  28  29
HETATM   29  O5  UNL     1      -8.651  -0.768  16.083  1.00  0.00    -0.359 OA
BRANCH  29  30
HETATM   30  C13 UNL     1      -7.580  -1.620  16.174  1.00  0.00     0.283 C
HETATM   31  C14 UNL     1      -6.737  -1.643  14.917  1.00  0.00     0.228 C
HETATM   32  O6  UNL     1      -5.536  -2.262  15.228  1.00  0.00    -0.384 OA
HETATM   33  C15 UNL     1      -5.769  -3.388  15.987  1.00  0.00     0.194 C
HETATM   34  C16 UNL     1      -7.195  -3.878  15.915  1.00  0.00     0.197 C
HETATM   35  O7  UNL     1      -8.109  -2.923  16.308  1.00  0.00    -0.357 OA
ENDBRANCH  29  30
ENDBRANCH  28  29
ENDBRANCH   3  28
TORSDOF 8
ENDMDL