MODEL 2
REMARK VINA RESULT: -8.020976492      2.227      5.289
REMARK  10 active torsions:
REMARK  status: ('A' for Active; 'I' for Inactive)
REMARK    1  A    between atoms: C2_2  and  C4_4
REMARK    2  A    between atoms: C5_6  and  O2_7
REMARK    3  A    between atoms: O2_7  and  C6_8
REMARK    4  A    between atoms: C6_8  and  C7_10
REMARK    5  A    between atoms: C8_11  and  C9_12
REMARK    6  A    between atoms: C9_12  and  N1_13
REMARK    7  A    between atoms: C20_25  and  O5_26
REMARK    8  A    between atoms: C23_30  and  C24_31
REMARK    9  A    between atoms: C24_31  and  C25_32
REMARK   10  A    between atoms: C24_31  and  C27_34
ROOT
HETATM    1  C4  UNL     1     -11.652   1.376  22.181  1.00  0.00     0.242 C
HETATM    2  O1  UNL     1     -12.337   0.282  22.640  1.00  0.00    -0.314 OA
HETATM    3  C5  UNL     1     -12.192   0.046  24.058  1.00  0.00     0.288 C
HETATM    4  C15 UNL     1     -12.828   1.224  24.594  1.00  0.00     0.060 C
HETATM    5  C16 UNL     1     -14.197   1.135  24.022  1.00  0.00     0.026 C
HETATM    6  C17 UNL     1     -11.834   2.260  24.164  1.00  0.00     0.151 C
HETATM    7  O4  UNL     1     -10.900   1.857  23.216  1.00  0.00    -0.339 OA
HETATM    8  C18 UNL     1     -12.435   3.581  23.898  1.00  0.00     0.065 C
HETATM    9  C19 UNL     1     -12.835   3.556  22.508  1.00  0.00     0.021 C
HETATM   10  C20 UNL     1     -12.469   2.542  21.734  1.00  0.00     0.109 C
HETATM   11  C22 UNL     1     -13.346   3.829  25.004  1.00  0.00     0.179 C
HETATM   12  O6  UNL     1     -13.827   2.863  25.792  1.00  0.00    -0.384 OA
HETATM   13  C23 UNL     1     -13.105   1.653  25.962  1.00  0.00     0.141 C
ENDROOT
BRANCH   3  14
HETATM   14  O2  UNL     1     -10.905  -0.288  24.156  1.00  0.00    -0.278 OA
BRANCH  14  15
HETATM   15  C6  UNL     1     -10.272  -1.498  24.197  1.00  0.00     0.341 C
HETATM   16  O3  UNL     1     -10.830  -2.250  24.982  1.00  0.00    -0.249 OA
BRANCH  15  17
HETATM   17  C7  UNL     1      -9.118  -1.880  23.448  1.00  0.00     0.004 C
HETATM   18  C8  UNL     1      -8.129  -2.205  22.836  1.00  0.00    -0.066 C
BRANCH  18  19
HETATM   19  C9  UNL     1      -6.916  -2.601  22.118  1.00  0.00     0.366 C
BRANCH  19  20
HETATM   20  N1  UNL     1      -7.319  -3.173  20.871  1.00  0.00     0.099 N
HETATM   21  C10 UNL     1      -7.707  -2.117  19.970  1.00  0.00     0.273 C
HETATM   22  C11 UNL     1      -7.675  -2.562  18.524  1.00  0.00     0.030 C
HETATM   23  C12 UNL     1      -6.247  -2.783  18.099  1.00  0.00     0.003 C
HETATM   24  C13 UNL     1      -5.409  -2.941  19.349  1.00  0.00     0.030 C
HETATM   25  C14 UNL     1      -6.166  -3.843  20.296  1.00  0.00     0.273 C
ENDBRANCH  19  20
ENDBRANCH  18  19
ENDBRANCH  15  17
ENDBRANCH  14  15
ENDBRANCH   3  14
BRANCH   1  26
HETATM   26  C2  UNL     1     -10.715   1.000  21.069  1.00  0.00    -0.025 C
HETATM   27  C1  UNL     1      -9.690   1.793  20.789  1.00  0.00     0.020 C
HETATM   28  C3  UNL     1     -10.903  -0.241  20.272  1.00  0.00     0.049 C
ENDBRANCH   1  26
BRANCH  13  29
HETATM   29  C24 UNL     1     -13.880   0.888  26.933  1.00  0.00     0.015 C
BRANCH  29  30
HETATM   30  C25 UNL     1     -14.128   1.859  28.116  1.00  0.00     0.002 C
HETATM   31  C26 UNL     1     -15.424   1.483  28.803  1.00  0.00     0.005 C
ENDBRANCH  29  30
BRANCH  29  32
HETATM   32  C27 UNL     1     -13.173  -0.283  27.567  1.00  0.00     0.002 C
HETATM   33  C28 UNL     1     -13.646  -1.612  27.053  1.00  0.00     0.005 C
ENDBRANCH  29  32
ENDBRANCH  13  29
BRANCH  10  34
HETATM   34  O5  UNL     1     -12.876   2.546  20.377  1.00  0.00    -0.355 OA
HETATM   35  C21 UNL     1     -14.041   1.863  19.966  1.00  0.00     0.209 C
ENDBRANCH  10  34
TORSDOF 10
ENDMDL