MODEL 5
REMARK VINA RESULT: -7.006942003      1.350      1.630
REMARK  10 active torsions:
REMARK  status: ('A' for Active; 'I' for Inactive)
REMARK    1  A    between atoms: C2_2  and  O1_3
REMARK    2  A    between atoms: O1_3  and  C3_4
REMARK    3  A    between atoms: C3_4  and  O3_6
REMARK    4  A    between atoms: O3_6  and  C4_7
REMARK    5  A    between atoms: C5_8  and  C6_9
REMARK    6  A    between atoms: N1_23  and  C18_24
REMARK    7  A    between atoms: C18_24  and  C19_25
REMARK    8  A    between atoms: C19_25  and  N2_26
REMARK    9  A    between atoms: N2_26  and  C20_27
REMARK   10  A    between atoms: N2_26  and  C22_29
ROOT
HETATM    1  C6  UNL     1     -11.203   0.753  21.354  1.00  0.00     0.107 C
HETATM    2  C7  UNL     1     -10.835   0.812  19.857  1.00  0.00     0.053 C
HETATM    3  O4  UNL     1     -12.600   0.569  21.456  1.00  0.00    -0.335 OA
HETATM    4  C8  UNL     1     -13.188   1.814  21.639  1.00  0.00     0.181 C
HETATM    5  C9  UNL     1     -13.551   2.250  20.198  1.00  0.00     0.084 C
HETATM    6  C10 UNL     1     -14.444   1.740  22.428  1.00  0.00     0.041 C
HETATM    7  C11 UNL     1     -14.775   2.048  23.643  1.00  0.00     0.009 C
HETATM    8  C12 UNL     1     -14.082   2.615  24.824  1.00  0.00    -0.049 C
HETATM    9  C13 UNL     1     -13.214   3.786  24.605  1.00  0.00    -0.017 C
HETATM   10  C14 UNL     1     -11.798   3.656  24.272  1.00  0.00     0.053 C
HETATM   11  C15 UNL     1     -11.227   2.268  24.248  1.00  0.00     0.093 C
HETATM   12  C16 UNL     1     -10.176   2.089  23.259  1.00  0.00     0.061 C
HETATM   13  C17 UNL     1     -10.938   2.097  21.907  1.00  0.00     0.165 C
HETATM   14  O5  UNL     1     -12.209   2.624  22.028  1.00  0.00    -0.343 OA
HETATM   15  N1  UNL     1     -11.108   1.903  25.634  1.00  0.00    -0.345 N
HETATM   16  C24 UNL     1     -12.307   1.709  26.408  1.00  0.00     0.228 C
HETATM   17  O6  UNL     1     -12.116   1.569  27.647  1.00  0.00    -0.273 OA
HETATM   18  C25 UNL     1     -13.735   1.652  25.914  1.00  0.00     0.106 C
HETATM   19  C26 UNL     1     -14.066   0.225  25.496  1.00  0.00     0.025 C
ENDROOT
BRANCH   1  20
HETATM   20  C5  UNL     1     -10.487  -0.377  21.937  1.00  0.00     0.038 C
HETATM   21  C4  UNL     1      -9.580  -1.152  21.414  1.00  0.00     0.147 C
BRANCH  21  22
HETATM   22  O3  UNL     1      -8.996  -2.209  22.142  1.00  0.00    -0.268 OA
BRANCH  22  23
HETATM   23  C3  UNL     1      -7.769  -2.704  21.707  1.00  0.00     0.410 C
HETATM   24  O2  UNL     1      -7.161  -3.490  22.478  1.00  0.00    -0.229 OA
BRANCH  23  25
HETATM   25  O1  UNL     1      -7.175  -2.399  20.508  1.00  0.00    -0.298 OA
BRANCH  25  26
HETATM   26  C2  UNL     1      -6.608  -3.413  19.681  1.00  0.00     0.176 C
HETATM   27  C1  UNL     1      -6.753  -3.101  18.224  1.00  0.00     0.034 C
ENDBRANCH  25  26
ENDBRANCH  23  25
ENDBRANCH  22  23
ENDBRANCH  21  22
ENDBRANCH   1  20
BRANCH  15  28
HETATM   28  C18 UNL     1      -9.846   1.770  26.274  1.00  0.00     0.156 C
BRANCH  28  29
HETATM   29  C19 UNL     1      -9.431   0.366  26.605  1.00  0.00     0.292 C
BRANCH  29  30
HETATM   30  N2  UNL     1      -9.122   0.383  28.092  1.00  0.00     0.089 N
BRANCH  30  31
HETATM   31  C20 UNL     1      -8.441  -0.924  28.272  1.00  0.00     0.268 C
HETATM   32  C21 UNL     1      -8.916  -1.871  27.217  1.00  0.00     0.037 C
ENDBRANCH  30  31
BRANCH  30  33
HETATM   33  C22 UNL     1      -8.072   1.432  28.218  1.00  0.00     0.268 C
HETATM   34  C23 UNL     1      -7.704   1.584  29.662  1.00  0.00     0.037 C
ENDBRANCH  30  33
ENDBRANCH  29  30
ENDBRANCH  28  29
ENDBRANCH  15  28
TORSDOF 10
ENDMDL