MODEL 2
REMARK VINA RESULT: -9.071493563      6.217     11.325
REMARK  7 active torsions:
REMARK  status: ('A' for Active; 'I' for Inactive)
REMARK    1  A    between atoms: C1_2  and  C2_3
REMARK       I    between atoms: C1_2  and  N1_8
REMARK    2  A    between atoms: N2_11  and  C9_12
REMARK    3  A    between atoms: C9_12  and  C10_13
REMARK    4  A    between atoms: N3_15  and  C12_16
REMARK    5  A    between atoms: N4_18  and  C14_19
REMARK    6  A    between atoms: C14_19  and  C15_20
REMARK    7  A    between atoms: C19_25  and  C20_26
ROOT
HETATM    1  C10 UNL     1     -11.630  -0.378  18.376  1.00  0.00     0.073 A
HETATM    2  C11 UNL     1     -10.560  -1.131  18.906  1.00  0.00     0.146 A
HETATM    3  N3  UNL     1      -9.646  -1.360  17.950  1.00  0.00    -0.254 N
HETATM    4  N5  UNL     1     -10.117  -0.779  16.867  1.00  0.00    -0.236 N
ATOM      5  H5  UNL     1      -9.646  -0.777  15.963  1.00  0.00     0.209 HD
HETATM    6  N6  UNL     1     -11.271  -0.204  17.100  1.00  0.00    -0.287 N
ATOM      7  H6  UNL     1     -11.818   0.305  16.406  1.00  0.00     0.188 HD
ENDROOT
BRANCH   3   8
HETATM    8  C12 UNL     1      -8.422  -2.078  18.049  1.00  0.00     0.052 C
HETATM    9  C13 UNL     1      -7.373  -1.814  18.815  1.00  0.00     0.113 C
HETATM   10  N4  UNL     1      -6.332  -2.750  18.646  1.00  0.00    -0.378 N
HETATM   11  C19 UNL     1      -6.605  -3.442  17.413  1.00  0.00     0.094 C
HETATM   12  C25 UNL     1      -8.110  -3.302  17.263  1.00  0.00     0.086 C
BRANCH  10  13
HETATM   13  C14 UNL     1      -5.191  -3.001  19.536  1.00  0.00     0.168 C
BRANCH  13  14
HETATM   14  C15 UNL     1      -5.709  -3.587  20.828  1.00  0.00     0.000 A
HETATM   15  C16 UNL     1      -6.790  -3.187  21.556  1.00  0.00     0.017 A
HETATM   16  C17 UNL     1      -7.058  -3.874  22.689  1.00  0.00     0.008 A
HETATM   17  C18 UNL     1      -6.217  -4.910  23.001  1.00  0.00     0.050 A
HETATM   18  S1  UNL     1      -5.093  -4.895  21.722  1.00  0.00    -0.105 SA
ENDBRANCH  13  14
ENDBRANCH  10  13
BRANCH  11  19
HETATM   19  C20 UNL     1      -5.870  -2.939  16.221  1.00  0.00     0.009 C
HETATM   20  C21 UNL     1      -5.427  -3.998  15.248  1.00  0.00     0.007 C
HETATM   21  C22 UNL     1      -5.140  -3.228  13.961  1.00  0.00     0.000 C
HETATM   22  C23 UNL     1      -5.703  -1.834  14.162  1.00  0.00     0.000 C
HETATM   23  C24 UNL     1      -6.662  -2.016  15.332  1.00  0.00     0.007 C
ENDBRANCH  11  19
ENDBRANCH   3   8
BRANCH   1  24
HETATM   24  C9  UNL     1     -12.823   0.074  19.089  1.00  0.00     0.332 C
BRANCH  24  25
HETATM   25  N2  UNL     1     -12.626   1.366  19.671  1.00  0.00     0.097 N
HETATM   26  C8  UNL     1     -13.846   1.833  20.323  1.00  0.00     0.292 C
HETATM   27  C7  UNL     1     -13.925   1.277  21.744  1.00  0.00     0.156 C
HETATM   28  N1  UNL     1     -12.872   1.898  22.500  1.00  0.00    -0.348 N
HETATM   29  C1  UNL     1     -12.818   2.097  23.885  1.00  0.00     0.224 C
HETATM   30  C27 UNL     1     -11.743   2.374  21.687  1.00  0.00     0.156 C
HETATM   31  O1  UNL     1     -11.734   2.669  24.317  1.00  0.00    -0.273 OA
HETATM   32  C26 UNL     1     -11.478   1.500  20.502  1.00  0.00     0.292 C
BRANCH  29  33
HETATM   33  C2  UNL     1     -13.792   1.765  24.910  1.00  0.00     0.078 C
HETATM   34  C3  UNL     1     -13.728   2.587  26.154  1.00  0.00     0.014 C
HETATM   35  C4  UNL     1     -14.326   1.642  27.197  1.00  0.00     0.001 C
HETATM   36  C5  UNL     1     -13.725   0.312  26.848  1.00  0.00     0.001 C
HETATM   37  C6  UNL     1     -13.664   0.323  25.333  1.00  0.00     0.014 C
ENDBRANCH  29  33
ENDBRANCH  24  25
ENDBRANCH   1  24
TORSDOF 7
ENDMDL