MODEL 1
REMARK VINA RESULT: -5.996140384      0.000      0.000
REMARK  4 active torsions:
REMARK  status: ('A' for Active; 'I' for Inactive)
REMARK    1  A    between atoms: N1_2  and  N2_4
REMARK    2  A    between atoms: C2_6  and  N3_7
REMARK    3  A    between atoms: C2_6  and  C3_12
REMARK    4  A    between atoms: N3_7  and  N4_9
ROOT
HETATM    1  N2  UNL     1     -48.245 -62.985 -42.136  1.00  0.00    -0.286 N
ATOM      2  H2  UNL     1     -47.743 -62.429 -41.444  1.00  0.00     0.188 HD
HETATM    3  C2  UNL     1     -49.410 -62.587 -42.503  1.00  0.00     0.180 C
ENDROOT
BRANCH   3   4
HETATM    4  N3  UNL     1     -49.928 -61.405 -41.927  1.00  0.00    -0.288 N
ATOM      5  H3  UNL     1     -50.845 -61.445 -41.482  1.00  0.00     0.188 HD
BRANCH   4   6
HETATM    6  N4  UNL     1     -49.251 -60.188 -41.933  1.00  0.00    -0.343 N
ATOM      7  H42 UNL     1     -48.623 -60.008 -42.716  1.00  0.00     0.176 HD
ATOM      8  H41 UNL     1     -49.354 -59.484 -41.203  1.00  0.00     0.176 HD
ENDBRANCH   4   6
ENDBRANCH   3   4
BRANCH   3   9
HETATM    9  C3  UNL     1     -50.209 -63.307 -43.483  1.00  0.00     0.168 A
HETATM   10  N5  UNL     1     -49.959 -63.477 -44.804  1.00  0.00    -0.333 N
HETATM   11  C4  UNL     1     -50.946 -64.210 -45.366  1.00  0.00     0.199 A
ATOM     12  H5  UNL     1     -49.148 -63.108 -45.299  1.00  0.00     0.168 HD
HETATM   13  N6  UNL     1     -51.822 -64.500 -44.379  1.00  0.00    -0.294 N
HETATM   14  N7  UNL     1     -51.371 -63.956 -43.261  1.00  0.00    -0.281 N
ATOM     15  H6  UNL     1     -52.680 -65.043 -44.479  1.00  0.00     0.187 HD
ATOM     16  H7  UNL     1     -51.837 -64.019 -42.356  1.00  0.00     0.188 HD
ENDBRANCH   3   9
BRANCH   1  17
HETATM   17  N1  UNL     1     -47.625 -64.133 -42.629  1.00  0.00    -0.339 N
HETATM   18  C1  UNL     1     -48.219 -65.408 -42.267  1.00  0.00     0.167 C
ATOM     19  H1  UNL     1     -46.792 -64.080 -43.215  1.00  0.00     0.179 HD
ENDBRANCH   1  17
TORSDOF 4
ENDMDL