MODEL 4
REMARK VINA RESULT: -5.143089072      8.154      8.931
REMARK  4 active torsions:
REMARK  status: ('A' for Active; 'I' for Inactive)
REMARK    1  A    between atoms: C4_4  and  N1_5
REMARK    2  A    between atoms: N1_5  and  N2_7
REMARK    3  A    between atoms: N3_9  and  N4_11
REMARK    4  A    between atoms: N4_11  and  N5_13
ROOT
HETATM    1  N1  UNL     1     -55.775 -62.544 -38.268  1.00  0.00    -0.269 N
ATOM      2  H1  UNL     1     -55.216 -61.862 -38.781  1.00  0.00     0.190 HD
ENDROOT
BRANCH   1   3
HETATM    3  C4  UNL     1     -55.228 -63.624 -37.779  1.00  0.00     0.137 A
HETATM    4  C3  UNL     1     -54.156 -63.705 -36.915  1.00  0.00     0.077 A
HETATM    5  C2  UNL     1     -53.903 -65.034 -36.651  1.00  0.00     0.025 A
HETATM    6  C1  UNL     1     -52.830 -65.604 -35.762  1.00  0.00     0.070 C
HETATM    7  N7  UNL     1     -54.812 -65.734 -37.350  1.00  0.00    -0.304 N
HETATM    8  N6  UNL     1     -55.594 -64.897 -38.016  1.00  0.00    -0.284 N
ATOM      9  H7  UNL     1     -54.889 -66.751 -37.365  1.00  0.00     0.186 HD
ATOM     10  H6  UNL     1     -56.364 -65.178 -38.622  1.00  0.00     0.188 HD
ENDBRANCH   1   3
BRANCH   1  11
HETATM   11  N2  UNL     1     -57.146 -62.344 -38.072  1.00  0.00    -0.225 N
HETATM   12  N3  UNL     1     -57.600 -61.328 -37.498  1.00  0.00    -0.214 N
ATOM     13  H3  UNL     1     -58.605 -61.210 -37.369  1.00  0.00     0.211 HD
ATOM     14  H2  UNL     1     -57.799 -63.052 -38.408  1.00  0.00     0.210 HD
BRANCH  12  15
HETATM   15  N4  UNL     1     -56.711 -60.365 -37.042  1.00  0.00    -0.234 N
ATOM     16  H4  UNL     1     -55.940 -60.628 -36.426  1.00  0.00     0.209 HD
BRANCH  15  17
HETATM   17  N5  UNL     1     -56.878 -59.043 -37.428  1.00  0.00    -0.330 N
ATOM     18  H52 UNL     1     -56.750 -58.790 -38.409  1.00  0.00     0.178 HD
ATOM     19  H51 UNL     1     -57.125 -58.343 -36.729  1.00  0.00     0.178 HD
ENDBRANCH  15  17
ENDBRANCH  12  15
ENDBRANCH   1  11
TORSDOF 4
ENDMDL