MODEL 1
REMARK VINA RESULT: -4.419090198      0.000      0.000
REMARK  2 active torsions:
REMARK  status: ('A' for Active; 'I' for Inactive)
REMARK       I    between atoms: C2_2  and  N1_4
REMARK       I    between atoms: N1_4  and  C3_6
REMARK    1  A    between atoms: N3_8  and  O2_10
REMARK    2  A    between atoms: O2_10  and  C4_11
ROOT
HETATM    1  C1  UNL     1     -58.792 -62.602 -38.206  1.00  0.00     0.117 C
HETATM    2  C2  UNL     1     -57.497 -62.469 -37.522  1.00  0.00     0.220 C
HETATM    3  O1  UNL     1     -57.347 -61.576 -36.662  1.00  0.00    -0.274 OA
HETATM    4  N1  UNL     1     -56.435 -63.334 -37.826  1.00  0.00    -0.300 N
ATOM      5  H1  UNL     1     -56.572 -64.060 -38.530  1.00  0.00     0.171 HD
HETATM    6  C3  UNL     1     -55.180 -63.226 -37.180  1.00  0.00     0.215 C
HETATM    7  N2  UNL     1     -54.934 -62.227 -36.183  1.00  0.00    -0.061 NA
HETATM    8  N3  UNL     1     -54.208 -64.020 -37.461  1.00  0.00    -0.228 N
ATOM      9  H3  UNL     1     -54.372 -64.734 -38.170  1.00  0.00     0.198 HD
ENDROOT
BRANCH   8  10
HETATM   10  O2  UNL     1     -52.983 -63.979 -36.886  1.00  0.00    -0.181 OA
BRANCH  10  11
HETATM   11  C4  UNL     1     -52.445 -64.969 -36.080  1.00  0.00     0.394 C
HETATM   12  N4  UNL     1     -53.164 -66.121 -35.676  1.00  0.00    -0.031 NA
HETATM   13  O3  UNL     1     -51.243 -64.797 -35.704  1.00  0.00    -0.240 OA
ENDBRANCH  10  11
ENDBRANCH   8  10
TORSDOF 2
ENDMDL