MODEL 4
REMARK VINA RESULT: -3.880885111      8.948      9.287
REMARK  3 active torsions:
REMARK  status: ('A' for Active; 'I' for Inactive)
REMARK    1  A    between atoms: N1_1  and  N2_4
REMARK    2  A    between atoms: C1_6  and  C2_7
REMARK       I    between atoms: C2_7  and  N3_9
REMARK    3  A    between atoms: N3_9  and  N4_11
REMARK       I    between atoms: N4_11  and  C3_13
ROOT
HETATM    1  C2  UNL     1     -55.444 -66.216 -36.333  1.00  0.00     0.276 C
HETATM    2  O1  UNL     1     -54.523 -66.756 -35.677  1.00  0.00    -0.265 OA
HETATM    3  N3  UNL     1     -55.223 -65.177 -37.217  1.00  0.00    -0.262 N
ATOM      4  H3  UNL     1     -56.078 -64.848 -37.668  1.00  0.00     0.190 HD
ENDROOT
BRANCH   1   5
HETATM    5  C1  UNL     1     -56.821 -66.757 -36.114  1.00  0.00     0.182 C
HETATM    6  N2  UNL     1     -57.822 -66.205 -36.643  1.00  0.00    -0.313 N
ATOM      7  H2  UNL     1     -57.703 -65.379 -37.231  1.00  0.00     0.185 HD
BRANCH   6   8
HETATM    8  N1  UNL     1     -59.118 -66.738 -36.417  1.00  0.00    -0.345 N
ATOM      9  H12 UNL     1     -59.710 -66.320 -35.700  1.00  0.00     0.176 HD
ATOM     10  H11 UNL     1     -59.441 -67.530 -36.973  1.00  0.00     0.176 HD
ENDBRANCH   6   8
ENDBRANCH   1   5
BRANCH   3  11
HETATM   11  N4  UNL     1     -54.126 -64.504 -37.614  1.00  0.00    -0.251 N
HETATM   12  C3  UNL     1     -53.751 -63.207 -37.249  1.00  0.00     0.347 C
HETATM   13  N5  UNL     1     -52.510 -62.713 -37.815  1.00  0.00    -0.038 NA
HETATM   14  O2  UNL     1     -54.318 -62.402 -36.506  1.00  0.00    -0.249 OA
ATOM     15  H4  UNL     1     -53.499 -64.994 -38.252  1.00  0.00     0.191 HD
ENDBRANCH   3  11
TORSDOF 3
ENDMDL