MODEL 1
REMARK VINA RESULT: -5.221586534      0.000      0.000
REMARK  1 active torsions:
REMARK  status: ('A' for Active; 'I' for Inactive)
REMARK       I    between atoms: C1_4  and  N2_5
REMARK       I    between atoms: C1_4  and  N4_9
REMARK       I    between atoms: N2_5  and  C2_6
REMARK    1  A    between atoms: N4_9  and  N5_11
ROOT
HETATM    1  N1  UNL     1     -50.682 -62.225 -43.321  1.00  0.00    -0.358 N
ATOM      2  H11 UNL     1     -51.575 -61.907 -43.699  1.00  0.00     0.160 HD
ATOM      3  H12 UNL     1     -49.879 -61.672 -43.024  1.00  0.00     0.160 HD
HETATM    4  C1  UNL     1     -50.454 -63.558 -43.200  1.00  0.00     0.277 C
HETATM    5  N2  UNL     1     -49.257 -63.984 -42.693  1.00  0.00    -0.318 NA
HETATM    6  C2  UNL     1     -48.091 -64.401 -42.199  1.00  0.00     0.408 C
HETATM    7  N3  UNL     1     -47.059 -63.444 -41.779  1.00  0.00    -0.025 NA
HETATM    8  O1  UNL     1     -47.714 -65.595 -42.022  1.00  0.00    -0.234 OA
HETATM    9  N4  UNL     1     -51.564 -64.321 -43.611  1.00  0.00    -0.199 N
ATOM     10  H4  UNL     1     -52.001 -64.917 -42.907  1.00  0.00     0.197 HD
ENDROOT
BRANCH   9  11
HETATM   11  N5  UNL     1     -52.115 -64.338 -44.878  1.00  0.00    -0.035 N
HETATM   12  O2  UNL     1     -51.367 -64.269 -45.895  1.00  0.00    -0.516 OA
HETATM   13  O3  UNL     1     -53.469 -64.430 -45.123  1.00  0.00    -0.516 OA
ENDBRANCH   9  11
TORSDOF 1
ENDMDL