MODEL 4
REMARK VINA RESULT: -3.957158950      8.099      8.759
REMARK  2 active torsions:
REMARK  status: ('A' for Active; 'I' for Inactive)
REMARK       I    between atoms: C2_2  and  N1_4
REMARK       I    between atoms: C3_6  and  N3_8
REMARK    1  A    between atoms: N3_8  and  O2_10
REMARK    2  A    between atoms: O2_10  and  C4_11
ROOT
HETATM    1  C1  UNL     1     -52.926 -64.398 -45.371  1.00  0.00     0.117 C
HETATM    2  C2  UNL     1     -51.563 -63.972 -45.028  1.00  0.00     0.220 C
HETATM    3  O1  UNL     1     -51.365 -62.820 -44.607  1.00  0.00    -0.274 OA
HETATM    4  N1  UNL     1     -50.492 -64.869 -45.178  1.00  0.00    -0.300 N
ATOM      5  H1  UNL     1     -50.291 -65.225 -46.112  1.00  0.00     0.171 HD
HETATM    6  C3  UNL     1     -49.754 -65.267 -44.209  1.00  0.00     0.215 C
HETATM    7  N2  UNL     1     -48.690 -66.170 -44.418  1.00  0.00    -0.061 NA
HETATM    8  N3  UNL     1     -50.022 -64.781 -42.911  1.00  0.00    -0.229 N
ATOM      9  H3  UNL     1     -50.975 -64.562 -42.619  1.00  0.00     0.197 HD
ENDROOT
BRANCH   8  10
HETATM   10  O2  UNL     1     -48.950 -64.609 -42.040  1.00  0.00    -0.202 OA
BRANCH  10  11
HETATM   11  C4  UNL     1     -48.206 -63.443 -42.038  1.00  0.00     0.249 C
HETATM   12  N4  UNL     1     -48.812 -62.343 -42.279  1.00  0.00    -0.366 N
ATOM     13  H42 UNL     1     -49.814 -62.317 -42.469  1.00  0.00     0.159 HD
ATOM     14  H41 UNL     1     -48.263 -61.483 -42.277  1.00  0.00     0.159 HD
HETATM   15  N5  UNL     1     -46.805 -63.479 -41.773  1.00  0.00    -0.055 NA
ENDBRANCH  10  11
ENDBRANCH   8  10
TORSDOF 2
ENDMDL