MODEL 1
REMARK VINA RESULT: -4.741779454      0.000      0.000
REMARK  3 active torsions:
REMARK  status: ('A' for Active; 'I' for Inactive)
REMARK    1  A    between atoms: N1_1  and  N2_4
REMARK    2  A    between atoms: N2_4  and  O1_5
REMARK    3  A    between atoms: N2_4  and  C1_7
REMARK       I    between atoms: N5_13  and  C3_15
ROOT
HETATM    1  C1  UNL     1     -54.579 -64.207 -36.969  1.00  0.00     0.265 A
HETATM    2  N3  UNL     1     -53.783 -65.273 -36.773  1.00  0.00    -0.263 N
ATOM      3  H3  UNL     1     -52.763 -65.256 -36.755  1.00  0.00     0.190 HD
HETATM    4  N4  UNL     1     -54.545 -66.359 -36.604  1.00  0.00    -0.262 N
ATOM      5  H4  UNL     1     -54.216 -67.310 -36.438  1.00  0.00     0.190 HD
HETATM    6  C2  UNL     1     -55.817 -65.962 -36.695  1.00  0.00     0.248 A
HETATM    7  N5  UNL     1     -56.867 -66.736 -36.583  1.00  0.00    -0.295 N
ATOM      8  H5  UNL     1     -56.767 -67.736 -36.412  1.00  0.00     0.172 HD
HETATM    9  C3  UNL     1     -58.167 -66.134 -36.710  1.00  0.00     0.189 C
HETATM   10  N6  UNL     1     -58.894 -65.876 -35.677  1.00  0.00    -0.373 N
ATOM     11  H61 UNL     1     -59.816 -65.450 -35.768  1.00  0.00     0.158 HD
ATOM     12  H62 UNL     1     -58.519 -66.114 -34.759  1.00  0.00     0.158 HD
HETATM   13  N7  UNL     1     -58.690 -65.802 -37.992  1.00  0.00    -0.064 NA
HETATM   14  O2  UNL     1     -55.801 -64.669 -36.914  1.00  0.00    -0.246 OA
ENDROOT
BRANCH   1  15
HETATM   15  N2  UNL     1     -54.141 -62.856 -37.189  1.00  0.00    -0.033 NA
BRANCH  15  16
HETATM   16  N1  UNL     1     -52.741 -62.852 -37.301  1.00  0.00    -0.333 NA
ATOM     17  H12 UNL     1     -52.481 -62.265 -38.094  1.00  0.00     0.173 HD
ATOM     18  H11 UNL     1     -52.344 -63.787 -37.385  1.00  0.00     0.173 HD
ENDBRANCH  15  16
BRANCH  15  19
HETATM   19  O1  UNL     1     -54.590 -62.040 -36.238  1.00  0.00    -0.287 OA
ATOM     20  H1  UNL     1     -55.505 -61.811 -36.346  1.00  0.00     0.239 HD
ENDBRANCH  15  19
ENDBRANCH   1  15
TORSDOF 3
ENDMDL