MODEL 5
REMARK VINA RESULT: -4.264848621      7.197      8.543
REMARK  4 active torsions:
REMARK  status: ('A' for Active; 'I' for Inactive)
REMARK    1  A    between atoms: N1_1  and  C1_4
REMARK    2  A    between atoms: C4_9  and  N3_10
REMARK    3  A    between atoms: N3_10  and  N4_12
REMARK    4  A    between atoms: N4_12  and  C5_14
ROOT
HETATM    1  C1  UNL     1     -58.466 -63.712 -43.315  1.00  0.00     0.677 A
HETATM    2  N2  UNL     1     -58.732 -62.624 -44.048  1.00  0.00    -0.202 N
ATOM      3  H2  UNL     1     -59.565 -62.080 -43.827  1.00  0.00     0.183 HD
HETATM    4  C2  UNL     1     -57.951 -62.216 -45.063  1.00  0.00     0.110 A
HETATM    5  C3  UNL     1     -56.829 -62.979 -45.332  1.00  0.00     0.068 A
HETATM    6  C4  UNL     1     -56.522 -64.105 -44.598  1.00  0.00     0.136 A
HETATM    7  N5  UNL     1     -57.370 -64.430 -43.602  1.00  0.00    -0.176 N
ATOM      8  H5  UNL     1     -57.168 -65.257 -43.041  1.00  0.00     0.186 HD
ENDROOT
BRANCH   6   9
HETATM    9  N3  UNL     1     -55.466 -64.786 -44.885  1.00  0.00    -0.283 N
ATOM     10  H3  UNL     1     -54.551 -64.358 -44.742  1.00  0.00     0.188 HD
BRANCH   9  11
HETATM   11  N4  UNL     1     -55.529 -66.089 -45.385  1.00  0.00    -0.276 N
ATOM     12  H4  UNL     1     -54.781 -66.472 -45.964  1.00  0.00     0.189 HD
BRANCH  11  13
HETATM   13  C5  UNL     1     -56.664 -66.855 -45.058  1.00  0.00     0.368 C
HETATM   14  O1  UNL     1     -56.673 -67.624 -44.081  1.00  0.00    -0.282 OA
ENDBRANCH  11  13
ENDBRANCH   9  11
ENDBRANCH   6   9
BRANCH   1  15
HETATM   15  N1  UNL     1     -59.250 -64.063 -42.347  1.00  0.00    -0.234 N
ATOM     16  H12 UNL     1     -59.898 -63.392 -41.933  1.00  0.00     0.174 HD
ATOM     17  H11 UNL     1     -59.234 -65.017 -41.983  1.00  0.00     0.174 HD
ENDBRANCH   1  15
TORSDOF 4
ENDMDL