MODEL 1
REMARK VINA RESULT: -4.119212081      0.000      0.000
REMARK  4 active torsions:
REMARK  status: ('A' for Active; 'I' for Inactive)
REMARK       I    between atoms: C2_2  and  N1_4
REMARK    1  A    between atoms: N1_4  and  N2_6
REMARK    2  A    between atoms: N2_6  and  C3_8
REMARK    3  A    between atoms: C3_8  and  N3_10
REMARK    4  A    between atoms: N3_10  and  N4_12
ROOT
HETATM    1  N2  UNL     1     -50.265 -62.635 -42.050  1.00  0.00    -0.273 N
ATOM      2  H2  UNL     1     -50.581 -63.012 -41.157  1.00  0.00     0.189 HD
ENDROOT
BRANCH   1   3
HETATM    3  N1  UNL     1     -50.968 -62.910 -43.213  1.00  0.00    -0.268 N
HETATM    4  C2  UNL     1     -50.732 -64.087 -43.960  1.00  0.00     0.232 C
HETATM    5  C1  UNL     1     -51.535 -64.302 -45.199  1.00  0.00     0.119 C
HETATM    6  O1  UNL     1     -49.865 -64.889 -43.550  1.00  0.00    -0.272 OA
ATOM      7  H1  UNL     1     -51.672 -62.248 -43.536  1.00  0.00     0.190 HD
ENDBRANCH   1   3
BRANCH   1   8
HETATM    8  C3  UNL     1     -49.104 -61.827 -42.113  1.00  0.00     0.205 C
HETATM    9  S1  UNL     1     -49.262 -60.219 -42.344  1.00  0.00    -0.038 SA
BRANCH   8  10
HETATM   10  N3  UNL     1     -47.795 -62.355 -41.982  1.00  0.00    -0.282 N
ATOM     11  H3  UNL     1     -47.025 -61.759 -41.679  1.00  0.00     0.189 HD
BRANCH  10  12
HETATM   12  N4  UNL     1     -47.575 -63.695 -42.272  1.00  0.00    -0.343 N
ATOM     13  H42 UNL     1     -48.289 -64.384 -42.035  1.00  0.00     0.176 HD
ATOM     14  H41 UNL     1     -46.700 -63.970 -42.718  1.00  0.00     0.176 HD
ENDBRANCH  10  12
ENDBRANCH   8  10
ENDBRANCH   1   8
TORSDOF 4
ENDMDL