MODEL 4
REMARK VINA RESULT: -4.587693192      0.756      1.811
REMARK  3 active torsions:
REMARK  status: ('A' for Active; 'I' for Inactive)
REMARK    1  A    between atoms: N2_4  and  N3_6
REMARK    2  A    between atoms: N3_6  and  S1_8
REMARK    3  A    between atoms: S1_8  and  N4_9
ROOT
HETATM    1  N3  UNL     1     -49.766 -63.950 -42.342  1.00  0.00    -0.209 N
ATOM      2  H3  UNL     1     -50.044 -63.258 -41.647  1.00  0.00     0.201 HD
ENDROOT
BRANCH   1   3
HETATM    3  N2  UNL     1     -50.656 -64.426 -43.297  1.00  0.00    -0.281 N
HETATM    4  C2  UNL     1     -51.141 -63.693 -44.231  1.00  0.00     0.104 C
HETATM    5  C1  UNL     1     -50.716 -62.268 -44.278  1.00  0.00     0.086 C
HETATM    6  N1  UNL     1     -52.042 -64.240 -45.171  1.00  0.00    -0.087 NA
ATOM      7  H2  UNL     1     -50.937 -65.405 -43.253  1.00  0.00     0.188 HD
ENDBRANCH   1   3
BRANCH   1   8
HETATM    8  S1  UNL     1     -48.170 -64.589 -42.395  1.00  0.00     0.330 S
HETATM    9  O1  UNL     1     -47.211 -63.605 -41.771  1.00  0.00    -0.181 OA
HETATM   10  O2  UNL     1     -48.047 -65.867 -41.632  1.00  0.00    -0.181 OA
BRANCH   8  11
HETATM   11  N4  UNL     1     -47.801 -64.893 -44.044  1.00  0.00    -0.310 N
ATOM     12  H42 UNL     1     -46.866 -64.903 -44.452  1.00  0.00     0.170 HD
ATOM     13  H41 UNL     1     -48.685 -65.058 -44.525  1.00  0.00     0.170 HD
ENDBRANCH   8  11
ENDBRANCH   1   8
TORSDOF 3
ENDMDL