MODEL 5
REMARK VINA RESULT: -6.676915942      3.724      6.142
REMARK  7 active torsions:
REMARK  status: ('A' for Active; 'I' for Inactive)
REMARK    1  A    between atoms: C2_2  and  C3_3
REMARK    2  A    between atoms: C4_6  and  N2_7
REMARK    3  A    between atoms: C5_12  and  N4_13
REMARK    4  A    between atoms: N4_13  and  C7_15
REMARK    5  A    between atoms: C7_15  and  C8_16
REMARK    6  A    between atoms: C8_16  and  N5_17
REMARK    7  A    between atoms: C12_21  and  C13_22
ROOT
HETATM    1  C3  UNL     1     -17.058  10.442  24.616  1.00  0.00     0.054 A
HETATM    2  N1  UNL     1     -17.819   9.717  23.778  1.00  0.00    -0.194 N
ATOM      3  H1  UNL     1     -17.513   8.783  23.503  1.00  0.00     0.184 HD
HETATM    4  C4  UNL     1     -18.977  10.204  23.298  1.00  0.00     0.677 A
HETATM    5  N3  UNL     1     -19.391  11.428  23.651  1.00  0.00    -0.175 N
ATOM      6  H3  UNL     1     -20.273  11.769  23.269  1.00  0.00     0.186 HD
HETATM    7  C5  UNL     1     -18.714  12.219  24.469  1.00  0.00     0.145 A
HETATM    8  C15 UNL     1     -17.517  11.710  24.962  1.00  0.00     0.113 A
HETATM    9  N6  UNL     1     -16.751  12.510  25.841  1.00  0.00    -0.096 NA
ENDROOT
BRANCH   7  10
HETATM   10  N4  UNL     1     -19.184  13.513  24.812  1.00  0.00    -0.368 N
HETATM   11  C6  UNL     1     -20.010  13.615  26.010  1.00  0.00     0.151 C
BRANCH  10  12
HETATM   12  C7  UNL     1     -18.931  14.717  24.087  1.00  0.00     0.143 C
BRANCH  12  13
HETATM   13  C8  UNL     1     -18.089  15.730  24.876  1.00  0.00     0.137 C
BRANCH  13  14
HETATM   14  N5  UNL     1     -16.858  15.825  24.292  1.00  0.00    -0.401 N
HETATM   15  C9  UNL     1     -16.522  15.041  23.152  1.00  0.00     0.117 C
HETATM   16  C10 UNL     1     -15.092  14.613  23.444  1.00  0.00     0.022 C
HETATM   17  C11 UNL     1     -14.608  15.599  24.487  1.00  0.00     0.032 C
HETATM   18  C12 UNL     1     -15.780  16.616  24.584  1.00  0.00     0.151 C
BRANCH  18  19
HETATM   19  C13 UNL     1     -15.683  17.380  25.854  1.00  0.00     0.259 C
HETATM   20  C14 UNL     1     -14.354  18.030  26.076  1.00  0.00     0.092 C
HETATM   21  F1  UNL     1     -15.880  16.445  26.886  1.00  0.00    -0.204 F
HETATM   22  F2  UNL     1     -16.724  18.284  26.012  1.00  0.00    -0.204 F
ENDBRANCH  18  19
ENDBRANCH  13  14
ENDBRANCH  12  13
ENDBRANCH  10  12
ENDBRANCH   7  10
BRANCH   4  23
HETATM   23  N2  UNL     1     -19.680   9.485  22.501  1.00  0.00    -0.234 N
ATOM     24  H22 UNL     1     -19.291   8.636  22.091  1.00  0.00     0.174 HD
ATOM     25  H21 UNL     1     -20.634   9.770  22.279  1.00  0.00     0.174 HD
ENDBRANCH   4  23
BRANCH   1  26
HETATM   26  C2  UNL     1     -15.778   9.952  25.171  1.00  0.00     0.055 C
HETATM   27  C1  UNL     1     -15.050   9.208  24.084  1.00  0.00     0.011 C
ENDBRANCH   1  26
TORSDOF 7
ENDMDL