MODEL 4
REMARK VINA RESULT: -6.748162001      1.511      2.008
REMARK  10 active torsions:
REMARK  status: ('A' for Active; 'I' for Inactive)
REMARK    1  A    between atoms: C2_2  and  C3_5
REMARK    2  A    between atoms: C3_5  and  C4_6
REMARK    3  A    between atoms: C4_6  and  C5_7
REMARK    4  A    between atoms: C5_7  and  N1_8
REMARK    5  A    between atoms: N1_8  and  C6_10
REMARK    6  A    between atoms: C9_17  and  N4_18
REMARK    7  A    between atoms: N4_18  and  C10_20
REMARK    8  A    between atoms: C10_20  and  C11_21
REMARK    9  A    between atoms: C11_21  and  C12_22
REMARK   10  A    between atoms: C12_22  and  N5_23
ROOT
HETATM    1  C6  UNL     1     -16.986  15.762  24.042  1.00  0.00     0.131 A
HETATM    2  N2  UNL     1     -17.918  16.038  24.971  1.00  0.00    -0.337 N
ATOM      3  H2  UNL     1     -18.847  15.625  24.892  1.00  0.00     0.168 HD
HETATM    4  C7  UNL     1     -17.635  16.864  26.017  1.00  0.00     0.182 A
HETATM    5  N3  UNL     1     -16.435  17.443  26.182  1.00  0.00    -0.347 N
ATOM      6  H3  UNL     1     -16.260  18.058  26.977  1.00  0.00     0.167 HD
HETATM    7  C8  UNL     1     -15.451  17.197  25.266  1.00  0.00     0.108 A
HETATM    8  C9  UNL     1     -14.201  17.783  25.413  1.00  0.00     0.131 A
HETATM    9  N6  UNL     1     -13.240  17.537  24.509  1.00  0.00    -0.337 N
ATOM     10  H6  UNL     1     -12.314  17.956  24.598  1.00  0.00     0.168 HD
HETATM   11  C13 UNL     1     -13.537  16.720  23.485  1.00  0.00     0.182 A
HETATM   12  N7  UNL     1     -14.742  16.144  23.327  1.00  0.00    -0.347 N
ATOM     13  H7  UNL     1     -14.900  15.533  22.526  1.00  0.00     0.167 HD
HETATM   14  C14 UNL     1     -15.753  16.357  24.210  1.00  0.00     0.108 A
ENDROOT
BRANCH   1  15
HETATM   15  N1  UNL     1     -17.217  14.990  23.046  1.00  0.00    -0.374 N
ATOM     16  H1  UNL     1     -16.515  14.965  22.307  1.00  0.00     0.161 HD
BRANCH  15  17
HETATM   17  C5  UNL     1     -18.362  14.164  22.876  1.00  0.00     0.121 C
BRANCH  17  18
HETATM   18  C4  UNL     1     -18.087  12.754  23.317  1.00  0.00     0.025 C
BRANCH  18  19
HETATM   19  C3  UNL     1     -19.360  11.933  23.316  1.00  0.00     0.080 C
BRANCH  19  20
HETATM   20  C2  UNL     1     -19.006  10.501  23.634  1.00  0.00     0.240 C
HETATM   21  C1  UNL     1     -17.512  10.364  23.916  1.00  0.00     0.090 C
HETATM   22  F1  UNL     1     -19.722  10.131  24.756  1.00  0.00    -0.207 F
HETATM   23  F2  UNL     1     -19.281   9.688  22.548  1.00  0.00    -0.207 F
ENDBRANCH  19  20
ENDBRANCH  18  19
ENDBRANCH  17  18
ENDBRANCH  15  17
ENDBRANCH   1  15
BRANCH   8  24
HETATM   24  N4  UNL     1     -13.960  18.551  26.395  1.00  0.00    -0.374 N
ATOM     25  H4  UNL     1     -14.476  19.429  26.435  1.00  0.00     0.161 HD
BRANCH  24  26
HETATM   26  C10 UNL     1     -13.031  18.296  27.447  1.00  0.00     0.123 C
BRANCH  26  27
HETATM   27  C11 UNL     1     -13.556  17.411  28.527  1.00  0.00     0.047 C
BRANCH  27  28
HETATM   28  C12 UNL     1     -13.344  15.942  28.249  1.00  0.00     0.231 C
BRANCH  28  29
HETATM   29  N5  UNL     1     -11.976  15.545  28.348  1.00  0.00    -0.079 N
ATOM     30  H53 UNL     1     -11.842  14.891  29.119  1.00  0.00     0.274 HD
ATOM     31  H52 UNL     1     -11.715  14.940  27.569  1.00  0.00     0.274 HD
ATOM     32  H51 UNL     1     -11.334  16.335  28.426  1.00  0.00     0.274 HD
ENDBRANCH  28  29
ENDBRANCH  27  28
ENDBRANCH  26  27
ENDBRANCH  24  26
ENDBRANCH   8  24
TORSDOF 10
ENDMDL