MODEL 3
REMARK VINA RESULT: -6.956743600      3.591      6.101
REMARK  8 active torsions:
REMARK  status: ('A' for Active; 'I' for Inactive)
REMARK    1  A    between atoms: N1_1  and  C1_4
REMARK    2  A    between atoms: C2_7  and  O1_8
REMARK    3  A    between atoms: O1_8  and  C3_9
REMARK    4  A    between atoms: C3_9  and  C4_10
REMARK    5  A    between atoms: C8_14  and  N3_15
REMARK    6  A    between atoms: C11_18  and  C12_19
REMARK    7  A    between atoms: C12_19  and  C13_20
REMARK    8  A    between atoms: C13_20  and  N4_21
ROOT
HETATM    1  C1  UNL     1     -12.235  14.292  28.148  1.00  0.00     0.679 A
HETATM    2  N2  UNL     1     -12.173  15.617  28.416  1.00  0.00    -0.171 N
ATOM      3  H2  UNL     1     -11.392  15.982  28.961  1.00  0.00     0.186 HD
HETATM    4  C2  UNL     1     -13.131  16.472  27.973  1.00  0.00     0.161 A
HETATM    5  C7  UNL     1     -14.164  15.936  27.241  1.00  0.00     0.105 A
HETATM    6  C8  UNL     1     -14.263  14.602  26.950  1.00  0.00     0.123 A
HETATM    7  N5  UNL     1     -13.266  13.818  27.430  1.00  0.00    -0.177 N
ATOM      8  H5  UNL     1     -13.301  12.817  27.235  1.00  0.00     0.185 HD
ENDROOT
BRANCH   6   9
HETATM    9  N3  UNL     1     -15.285  13.982  26.201  1.00  0.00    -0.361 N
HETATM   10  C9  UNL     1     -15.665  14.485  24.873  1.00  0.00     0.125 C
HETATM   11  C10 UNL     1     -15.597  13.235  23.986  1.00  0.00     0.030 C
HETATM   12  C11 UNL     1     -16.871  12.441  24.269  1.00  0.00     0.063 C
HETATM   13  C14 UNL     1     -17.198  12.556  25.715  1.00  0.00     0.263 C
HETATM   14  F1  UNL     1     -17.756  11.334  26.100  1.00  0.00    -0.204 F
HETATM   15  F2  UNL     1     -18.166  13.496  26.005  1.00  0.00    -0.204 F
HETATM   16  C15 UNL     1     -16.037  12.822  26.632  1.00  0.00     0.203 C
BRANCH  12  17
HETATM   17  C12 UNL     1     -17.902  12.960  23.325  1.00  0.00     0.038 C
BRANCH  17  18
HETATM   18  C13 UNL     1     -19.127  12.130  23.168  1.00  0.00     0.230 C
BRANCH  18  19
HETATM   19  N4  UNL     1     -20.319  12.695  23.700  1.00  0.00    -0.079 N
ATOM     20  H43 UNL     1     -20.353  13.695  23.497  1.00  0.00     0.274 HD
ATOM     21  H42 UNL     1     -21.127  12.375  23.166  1.00  0.00     0.274 HD
ATOM     22  H41 UNL     1     -20.471  12.535  24.695  1.00  0.00     0.274 HD
ENDBRANCH  18  19
ENDBRANCH  17  18
ENDBRANCH  12  17
ENDBRANCH   6   9
BRANCH   4  23
HETATM   23  O1  UNL     1     -13.040  17.840  28.271  1.00  0.00    -0.335 OA
BRANCH  23  24
HETATM   24  C3  UNL     1     -12.990  18.771  27.207  1.00  0.00     0.182 C
BRANCH  24  25
HETATM   25  C4  UNL     1     -11.590  19.017  26.731  1.00  0.00     0.010 A
HETATM   26  C5  UNL     1     -11.516  19.664  25.310  1.00  0.00     0.007 A
HETATM   27  C6  UNL     1     -11.013  20.344  26.530  1.00  0.00     0.007 A
ENDBRANCH  24  25
ENDBRANCH  23  24
ENDBRANCH   4  23
BRANCH   1  28
HETATM   28  N1  UNL     1     -11.351  13.442  28.545  1.00  0.00    -0.234 N
ATOM     29  H12 UNL     1     -11.676  12.503  28.776  1.00  0.00     0.174 HD
ATOM     30  H11 UNL     1     -10.359  13.660  28.637  1.00  0.00     0.174 HD
ENDBRANCH   1  28
TORSDOF 8
ENDMDL