MODEL 5
REMARK VINA RESULT: -6.826604542      1.851      2.236
REMARK  7 active torsions:
REMARK  status: ('A' for Active; 'I' for Inactive)
REMARK    1  A    between atoms: N1_1  and  C1_4
REMARK    2  A    between atoms: C5_11  and  N3_12
REMARK    3  A    between atoms: N5_22  and  C12_23
REMARK    4  A    between atoms: C12_23  and  O1_24
REMARK    5  A    between atoms: O1_24  and  C13_25
REMARK    6  A    between atoms: C13_25  and  C14_26
REMARK    7  A    between atoms: C14_26  and  C15_27
ROOT
HETATM    1  C1  UNL     1     -18.942  12.743  23.723  1.00  0.00     0.680 A
HETATM    2  N2  UNL     1     -19.509  13.906  24.086  1.00  0.00    -0.190 N
ATOM      3  H2  UNL     1     -20.479  14.154  23.896  1.00  0.00     0.184 HD
HETATM    4  C2  UNL     1     -18.637  14.705  24.732  1.00  0.00     0.079 A
HETATM    5  C3  UNL     1     -18.699  15.962  25.297  1.00  0.00     0.077 A
HETATM    6  C4  UNL     1     -17.584  16.501  25.900  1.00  0.00     0.145 A
HETATM    7  F1  UNL     1     -17.709  17.741  26.437  1.00  0.00    -0.204 F
HETATM    8  C5  UNL     1     -16.409  15.781  25.936  1.00  0.00     0.071 A
HETATM    9  C10 UNL     1     -16.346  14.524  25.371  1.00  0.00     0.065 A
HETATM   10  C11 UNL     1     -17.451  13.961  24.760  1.00  0.00     0.083 A
HETATM   11  N5  UNL     1     -17.669  12.786  24.144  1.00  0.00    -0.160 N
ENDROOT
BRANCH   8  12
HETATM   12  N3  UNL     1     -15.290  16.388  26.570  1.00  0.00    -0.375 N
HETATM   13  C6  UNL     1     -14.418  17.295  25.849  1.00  0.00     0.150 C
HETATM   14  C7  UNL     1     -13.924  18.322  26.842  1.00  0.00     0.252 C
HETATM   15  N4  UNL     1     -13.104  17.725  27.865  1.00  0.00    -0.072 N
HETATM   16  C8  UNL     1     -13.485  16.377  28.185  1.00  0.00     0.252 C
ATOM     17  H42 UNL     1     -12.117  17.771  27.611  1.00  0.00     0.277 HD
ATOM     18  H41 UNL     1     -13.089  18.306  28.703  1.00  0.00     0.277 HD
HETATM   19  C9  UNL     1     -14.973  16.129  27.960  1.00  0.00     0.150 C
ENDBRANCH   8  12
BRANCH  11  20
HETATM   20  C12 UNL     1     -16.680  11.721  23.961  1.00  0.00     0.317 C
BRANCH  20  21
HETATM   21  O1  UNL     1     -17.147  10.587  24.615  1.00  0.00    -0.371 OA
BRANCH  21  22
HETATM   22  C13 UNL     1     -16.210   9.592  24.768  1.00  0.00     0.172 C
BRANCH  22  23
HETATM   23  C14 UNL     1     -14.985   9.801  23.906  1.00  0.00     0.057 C
BRANCH  23  24
HETATM   24  C15 UNL     1     -14.325   8.465  23.607  1.00  0.00     0.224 C
HETATM   25  F2  UNL     1     -14.308   8.283  22.252  1.00  0.00    -0.255 F
ENDBRANCH  23  24
ENDBRANCH  22  23
ENDBRANCH  21  22
ENDBRANCH  20  21
ENDBRANCH  11  20
BRANCH   1  26
HETATM   26  N1  UNL     1     -19.541  11.777  23.086  1.00  0.00    -0.234 N
ATOM     27  H12 UNL     1     -19.798  10.857  23.443  1.00  0.00     0.174 HD
ATOM     28  H11 UNL     1     -19.847  11.809  22.113  1.00  0.00     0.174 HD
ENDBRANCH   1  26
TORSDOF 7
ENDMDL