MODEL 3
REMARK VINA RESULT: -6.603860280      4.430      6.460
REMARK  7 active torsions:
REMARK  status: ('A' for Active; 'I' for Inactive)
REMARK    1  A    between atoms: N1_1  and  C1_4
REMARK    2  A    between atoms: N3_8  and  C3_10
REMARK    3  A    between atoms: C3_10  and  C4_11
REMARK    4  A    between atoms: N5_18  and  C7_19
REMARK    5  A    between atoms: C7_19  and  C8_20
REMARK    6  A    between atoms: C8_20  and  C9_21
REMARK    7  A    between atoms: C9_21  and  N6_22
ROOT
HETATM    1  C1  UNL     1     -17.588  14.575  22.694  1.00  0.00     0.679 A
HETATM    2  N2  UNL     1     -17.984  13.462  23.313  1.00  0.00    -0.175 N
ATOM      3  H2  UNL     1     -18.955  13.166  23.214  1.00  0.00     0.186 HD
HETATM    4  C2  UNL     1     -17.155  12.717  24.061  1.00  0.00     0.147 A
HETATM    5  N3  UNL     1     -17.524  11.634  24.659  1.00  0.00    -0.369 N
ATOM      6  H3  UNL     1     -16.828  11.130  25.208  1.00  0.00     0.161 HD
HETATM    7  C5  UNL     1     -15.834  13.127  24.192  1.00  0.00     0.123 A
HETATM    8  N4  UNL     1     -14.776  12.610  24.852  1.00  0.00    -0.346 N
ATOM      9  H4  UNL     1     -14.766  11.762  25.418  1.00  0.00     0.167 HD
HETATM   10  C6  UNL     1     -13.740  13.430  24.618  1.00  0.00     0.185 A
HETATM   11  N5  UNL     1     -14.129  14.445  23.830  1.00  0.00    -0.327 N
HETATM   12  C14 UNL     1     -15.413  14.295  23.545  1.00  0.00     0.155 A
HETATM   13  N7  UNL     1     -16.321  14.976  22.815  1.00  0.00    -0.174 N
ATOM     14  H7  UNL     1     -16.029  15.829  22.339  1.00  0.00     0.186 HD
ENDROOT
BRANCH  11  15
HETATM   15  C7  UNL     1     -13.287  15.579  23.339  1.00  0.00     0.133 C
BRANCH  15  16
HETATM   16  C8  UNL     1     -13.832  16.854  23.867  1.00  0.00     0.050 C
BRANCH  16  17
HETATM   17  C9  UNL     1     -13.872  17.081  25.330  1.00  0.00     0.274 C
BRANCH  17  18
HETATM   18  N6  UNL     1     -15.133  17.229  25.907  1.00  0.00     0.088 N
HETATM   19  C10 UNL     1     -15.821  16.224  26.564  1.00  0.00     0.272 C
HETATM   20  C11 UNL     1     -17.275  16.726  26.650  1.00  0.00     0.032 C
HETATM   21  C12 UNL     1     -17.275  18.061  25.902  1.00  0.00     0.032 C
HETATM   22  C13 UNL     1     -16.102  17.820  24.978  1.00  0.00     0.272 C
ENDBRANCH  17  18
ENDBRANCH  16  17
ENDBRANCH  15  16
ENDBRANCH  11  15
BRANCH   1  23
HETATM   23  N1  UNL     1     -18.416  15.284  21.968  1.00  0.00    -0.234 N
ATOM     24  H12 UNL     1     -18.947  16.034  22.409  1.00  0.00     0.174 HD
ATOM     25  H11 UNL     1     -18.539  15.102  20.972  1.00  0.00     0.174 HD
ENDBRANCH   1  23
BRANCH   5  26
HETATM   26  C3  UNL     1     -18.860  11.095  24.598  1.00  0.00     0.192 C
BRANCH  26  27
HETATM   27  C4  UNL     1     -18.946   9.973  23.559  1.00  0.00     0.370 C
HETATM   28  F1  UNL     1     -19.373   8.830  24.191  1.00  0.00    -0.213 F
HETATM   29  F2  UNL     1     -19.789  10.391  22.560  1.00  0.00    -0.213 F
ENDBRANCH  26  27
ENDBRANCH   5  26
TORSDOF 7
ENDMDL