MODEL 3
REMARK VINA RESULT: -7.077091565      2.431      4.772
REMARK  9 active torsions:
REMARK  status: ('A' for Active; 'I' for Inactive)
REMARK    1  A    between atoms: C5_10  and  N3_11
REMARK    2  A    between atoms: N3_11  and  C6_13
REMARK    3  A    between atoms: C6_13  and  C7_14
REMARK    4  A    between atoms: C7_14  and  N4_15
REMARK    5  A    between atoms: N6_21  and  C8_22
REMARK    6  A    between atoms: C8_22  and  C9_23
REMARK    7  A    between atoms: C9_23  and  C10_24
REMARK    8  A    between atoms: C10_24  and  C11_25
REMARK    9  A    between atoms: C11_25  and  C12_26
ROOT
HETATM    1  C1  UNL     1     -19.094   9.670  23.978  1.00  0.00     0.072 C
HETATM    2  C2  UNL     1     -18.842  11.075  23.654  1.00  0.00     0.051 A
HETATM    3  N1  UNL     1     -19.854  11.932  23.348  1.00  0.00    -0.300 N
ATOM      4  H1  UNL     1     -20.801  11.554  23.335  1.00  0.00     0.186 HD
HETATM    5  N2  UNL     1     -19.711  13.192  23.072  1.00  0.00    -0.265 N
ATOM      6  H2  UNL     1     -20.521  13.771  22.850  1.00  0.00     0.190 HD
HETATM    7  C3  UNL     1     -18.483  13.718  23.081  1.00  0.00     0.276 A
HETATM    8  O1  UNL     1     -18.264  14.934  22.823  1.00  0.00    -0.266 OA
HETATM    9  C4  UNL     1     -17.376  12.954  23.376  1.00  0.00     0.108 A
HETATM   10  C5  UNL     1     -16.025  13.219  23.464  1.00  0.00     0.134 A
HETATM   11  N5  UNL     1     -15.419  12.089  23.792  1.00  0.00    -0.282 N
ATOM     12  H5  UNL     1     -14.415  11.974  23.930  1.00  0.00     0.189 HD
HETATM   13  N6  UNL     1     -16.350  11.111  23.915  1.00  0.00    -0.288 N
HETATM   14  C13 UNL     1     -17.564  11.586  23.672  1.00  0.00     0.094 A
ENDROOT
BRANCH  10  15
HETATM   15  N3  UNL     1     -15.513  14.381  23.253  1.00  0.00    -0.373 N
ATOM     16  H3  UNL     1     -15.637  14.808  22.335  1.00  0.00     0.161 HD
BRANCH  15  17
HETATM   17  C6  UNL     1     -14.771  15.111  24.257  1.00  0.00     0.148 C
BRANCH  17  18
HETATM   18  C7  UNL     1     -15.719  16.016  25.015  1.00  0.00     0.249 C
BRANCH  18  19
HETATM   19  N4  UNL     1     -16.419  16.892  24.088  1.00  0.00    -0.078 N
ATOM     20  H43 UNL     1     -15.788  17.300  23.398  1.00  0.00     0.274 HD
ATOM     21  H42 UNL     1     -17.021  16.370  23.451  1.00  0.00     0.274 HD
ATOM     22  H41 UNL     1     -16.935  17.605  24.604  1.00  0.00     0.274 HD
ENDBRANCH  18  19
ENDBRANCH  17  18
ENDBRANCH  15  17
ENDBRANCH  10  15
BRANCH  13  23
HETATM   23  C8  UNL     1     -15.972   9.743  24.236  1.00  0.00     0.149 C
BRANCH  23  24
HETATM   24  C9  UNL     1     -15.057   9.757  25.445  1.00  0.00     0.022 C
BRANCH  24  25
HETATM   25  C10 UNL     1     -15.759  10.242  26.662  1.00  0.00     0.010 C
BRANCH  25  26
HETATM   26  C11 UNL     1     -14.953  11.105  27.543  1.00  0.00     0.117 C
BRANCH  26  27
HETATM   27  C12 UNL     1     -14.923  12.568  27.227  1.00  0.00     0.387 C
HETATM   28  F1  UNL     1     -14.603  13.225  28.427  1.00  0.00    -0.171 F
HETATM   29  F2  UNL     1     -16.077  13.099  26.768  1.00  0.00    -0.171 F
HETATM   30  F3  UNL     1     -13.854  12.843  26.389  1.00  0.00    -0.171 F
ENDBRANCH  26  27
ENDBRANCH  25  26
ENDBRANCH  24  25
ENDBRANCH  23  24
ENDBRANCH  13  23
TORSDOF 9
ENDMDL