MODEL 5
REMARK VINA RESULT: -6.525319782      3.370      3.820
REMARK  7 active torsions:
REMARK  status: ('A' for Active; 'I' for Inactive)
REMARK    1  A    between atoms: O1_2  and  C2_3
REMARK    2  A    between atoms: C3_4  and  C4_5
REMARK    3  A    between atoms: N3_18  and  C11_20
REMARK    4  A    between atoms: C11_20  and  C12_21
REMARK    5  A    between atoms: C12_21  and  C13_22
REMARK    6  A    between atoms: C13_22  and  O2_23
REMARK    7  A    between atoms: O2_23  and  N4_24
ROOT
HETATM    1  C2  UNL     1     -15.061  15.449  26.192  1.00  0.00     0.118 A
HETATM    2  C3  UNL     1     -15.692  15.280  25.016  1.00  0.00     0.001 A
HETATM    3  C9  UNL     1     -15.500  16.331  24.097  1.00  0.00     0.100 A
HETATM    4  N2  UNL     1     -14.751  17.408  24.381  1.00  0.00    -0.349 N
ATOM      5  H2  UNL     1     -14.653  18.134  23.671  1.00  0.00     0.167 HD
HETATM    6  C10 UNL     1     -14.113  17.575  25.577  1.00  0.00     0.143 A
HETATM    7  N3  UNL     1     -13.415  18.609  25.805  1.00  0.00    -0.374 N
ATOM      8  H3  UNL     1     -13.364  19.293  25.049  1.00  0.00     0.161 HD
HETATM    9  C14 UNL     1     -14.270  16.585  26.494  1.00  0.00     0.193 A
HETATM   10  F2  UNL     1     -13.692  16.628  27.719  1.00  0.00    -0.199 F
ENDROOT
BRANCH   2  11
HETATM   11  C4  UNL     1     -16.552  14.215  24.652  1.00  0.00     0.060 C
HETATM   12  C5  UNL     1     -17.864  14.213  25.479  1.00  0.00     0.040 C
HETATM   13  C6  UNL     1     -18.845  15.199  24.959  1.00  0.00     0.233 C
HETATM   14  N1  UNL     1     -19.208  14.830  23.603  1.00  0.00    -0.072 N
HETATM   15  C7  UNL     1     -18.051  14.802  22.730  1.00  0.00     0.270 C
ATOM     16  H12 UNL     1     -19.713  13.944  23.581  1.00  0.00     0.277 HD
ATOM     17  H11 UNL     1     -19.939  15.438  23.235  1.00  0.00     0.277 HD
HETATM   18  C8  UNL     1     -16.997  13.877  23.307  1.00  0.00     0.204 C
HETATM   19  F1  UNL     1     -17.788  12.688  23.487  1.00  0.00    -0.247 F
ENDBRANCH   2  11
BRANCH   1  20
HETATM   20  O1  UNL     1     -15.138  14.515  27.181  1.00  0.00    -0.352 OA
HETATM   21  C1  UNL     1     -14.108  13.502  27.159  1.00  0.00     0.210 C
ENDBRANCH   1  20
BRANCH   7  22
HETATM   22  C11 UNL     1     -12.704  18.925  26.977  1.00  0.00     0.123 C
BRANCH  22  23
HETATM   23  C12 UNL     1     -11.201  18.758  26.699  1.00  0.00     0.048 C
BRANCH  23  24
HETATM   24  C13 UNL     1     -10.875  19.737  25.586  1.00  0.00     0.202 C
BRANCH  24  25
HETATM   25  O2  UNL     1     -10.438  20.938  26.175  1.00  0.00    -0.287 OA
BRANCH  25  26
HETATM   26  N4  UNL     1      -9.078  20.966  26.129  1.00  0.00    -0.311 N
ATOM     27  H42 UNL     1      -8.514  20.707  25.320  1.00  0.00     0.184 HD
ATOM     28  H41 UNL     1      -8.734  21.287  27.034  1.00  0.00     0.184 HD
ENDBRANCH  25  26
ENDBRANCH  24  25
ENDBRANCH  23  24
ENDBRANCH  22  23
ENDBRANCH   7  22
TORSDOF 7
ENDMDL