MODEL 5
REMARK VINA RESULT: -6.869859019      1.182      2.083
REMARK  7 active torsions:
REMARK  status: ('A' for Active; 'I' for Inactive)
REMARK    1  A    between atoms: C2_2  and  O1_3
REMARK    2  A    between atoms: O1_3  and  C3_4
REMARK    3  A    between atoms: C3_4  and  C4_5
REMARK    4  A    between atoms: C7_10  and  C8_11
REMARK    5  A    between atoms: C11_18  and  N4_19
REMARK    6  A    between atoms: N6_25  and  C13_27
REMARK    7  A    between atoms: C13_27  and  C14_28
ROOT
HETATM    1  C4  UNL     1     -16.816  13.750  23.300  1.00  0.00     0.009 A
HETATM    2  C5  UNL     1     -15.890  14.768  23.031  1.00  0.00     0.099 A
HETATM    3  N1  UNL     1     -14.574  14.605  23.202  1.00  0.00    -0.374 N
ATOM      4  H1  UNL     1     -13.929  15.369  22.996  1.00  0.00     0.164 HD
HETATM    5  C6  UNL     1     -14.111  13.427  23.646  1.00  0.00     0.105 A
HETATM    6  C7  UNL     1     -14.961  12.376  23.934  1.00  0.00     0.051 A
HETATM    7  C12 UNL     1     -16.344  12.554  23.753  1.00  0.00     0.057 A
HETATM    8  N6  UNL     1     -17.058  11.592  24.057  1.00  0.00    -0.360 N
ATOM      9  H6  UNL     1     -16.523  10.784  24.373  1.00  0.00     0.165 HD
ENDROOT
BRANCH   6  10
HETATM   10  C8  UNL     1     -14.423  11.133  24.394  1.00  0.00     0.136 A
HETATM   11  N2  UNL     1     -14.272  10.070  23.532  1.00  0.00    -0.331 N
HETATM   12  C9  UNL     1     -13.788   8.888  23.915  1.00  0.00     0.095 A
ATOM     13  H2  UNL     1     -14.544  10.191  22.557  1.00  0.00     0.168 HD
HETATM   14  C10 UNL     1     -13.624   7.737  22.986  1.00  0.00     0.089 C
HETATM   15  N3  UNL     1     -13.430   8.710  25.181  1.00  0.00    -0.181 N
HETATM   16  C11 UNL     1     -13.555   9.721  26.078  1.00  0.00     0.678 A
ATOM     17  H3  UNL     1     -13.059   7.808  25.481  1.00  0.00     0.185 HD
HETATM   18  N5  UNL     1     -14.049  10.893  25.637  1.00  0.00    -0.176 N
ATOM     19  H5  UNL     1     -14.142  11.651  26.313  1.00  0.00     0.186 HD
BRANCH  16  20
HETATM   20  N4  UNL     1     -13.191   9.485  27.290  1.00  0.00    -0.234 N
ATOM     21  H42 UNL     1     -12.392   9.914  27.754  1.00  0.00     0.174 HD
ATOM     22  H41 UNL     1     -13.747   8.816  27.823  1.00  0.00     0.174 HD
ENDBRANCH  16  20
ENDBRANCH   6  10
BRANCH   1  23
HETATM   23  C3  UNL     1     -18.211  14.072  23.033  1.00  0.00     0.210 C
BRANCH  23  24
HETATM   24  O1  UNL     1     -18.520  15.387  23.493  1.00  0.00    -0.387 OA
BRANCH  24  25
HETATM   25  C2  UNL     1     -18.844  15.336  24.848  1.00  0.00     0.163 C
HETATM   26  C1  UNL     1     -17.999  16.305  25.655  1.00  0.00     0.033 C
ENDBRANCH  24  25
ENDBRANCH  23  24
ENDBRANCH   1  23
BRANCH   8  27
HETATM   27  C13 UNL     1     -18.432  11.371  24.060  1.00  0.00     0.177 C
BRANCH  27  28
HETATM   28  C14 UNL     1     -19.079  11.277  25.456  1.00  0.00     0.422 C
HETATM   29  F1  UNL     1     -19.847  12.401  25.620  1.00  0.00    -0.166 F
HETATM   30  F2  UNL     1     -19.954  10.184  25.416  1.00  0.00    -0.166 F
HETATM   31  F3  UNL     1     -18.172  11.180  26.455  1.00  0.00    -0.166 F
ENDBRANCH  27  28
ENDBRANCH   8  27
TORSDOF 7
ENDMDL