MODEL 2
REMARK VINA RESULT: -6.361712354      3.056      5.844
REMARK  7 active torsions:
REMARK  status: ('A' for Active; 'I' for Inactive)
REMARK    1  A    between atoms: S1_2  and  C2_3
REMARK    2  A    between atoms: C3_6  and  C4_7
REMARK    3  A    between atoms: C4_7  and  C5_8
REMARK    4  A    between atoms: C7_12  and  C8_13
REMARK    5  A    between atoms: C8_13  and  C9_14
REMARK    6  A    between atoms: C9_14  and  C10_15
REMARK    7  A    between atoms: C12_21  and  N4_22
ROOT
HETATM    1  C2  UNL     1     -17.325  11.458  23.811  1.00  0.00     0.160 A
HETATM    2  N1  UNL     1     -16.780  12.671  23.617  1.00  0.00    -0.325 N
ATOM      3  H1  UNL     1     -15.766  12.766  23.671  1.00  0.00     0.169 HD
HETATM    4  C3  UNL     1     -17.518  13.768  23.353  1.00  0.00     0.105 A
HETATM    5  N3  UNL     1     -18.847  13.626  23.286  1.00  0.00    -0.180 N
ATOM      6  H3  UNL     1     -19.437  14.435  23.090  1.00  0.00     0.185 HD
HETATM    7  C12 UNL     1     -19.411  12.403  23.481  1.00  0.00     0.679 A
HETATM    8  N5  UNL     1     -18.647  11.331  23.741  1.00  0.00    -0.171 N
ATOM      9  H5  UNL     1     -19.081  10.419  23.886  1.00  0.00     0.186 HD
ENDROOT
BRANCH   4  10
HETATM   10  C4  UNL     1     -16.924  15.106  23.140  1.00  0.00     0.139 C
BRANCH  10  11
HETATM   11  C5  UNL     1     -16.585  15.731  24.444  1.00  0.00     0.084 A
HETATM   12  C6  UNL     1     -17.523  16.146  25.375  1.00  0.00     0.255 A
HETATM   13  F1  UNL     1     -18.868  16.066  25.286  1.00  0.00    -0.176 F
HETATM   14  O1  UNL     1     -16.867  16.635  26.370  1.00  0.00    -0.269 OA
HETATM   15  C7  UNL     1     -15.577  16.567  26.151  1.00  0.00     0.129 A
HETATM   16  N2  UNL     1     -15.379  16.004  24.954  1.00  0.00    -0.334 N
HETATM   17  C11 UNL     1     -14.103  15.727  24.288  1.00  0.00     0.158 C
BRANCH  15  18
HETATM   18  C8  UNL     1     -14.565  17.045  27.101  1.00  0.00     0.087 C
BRANCH  18  19
HETATM   19  C9  UNL     1     -14.681  16.405  28.460  1.00  0.00     0.039 C
BRANCH  19  20
HETATM   20  C10 UNL     1     -14.280  14.939  28.282  1.00  0.00     0.222 C
HETATM   21  F2  UNL     1     -14.681  14.173  29.343  1.00  0.00    -0.255 F
ENDBRANCH  19  20
ENDBRANCH  18  19
ENDBRANCH  15  18
ENDBRANCH  10  11
ENDBRANCH   4  10
BRANCH   1  22
HETATM   22  S1  UNL     1     -16.344  10.004  24.160  1.00  0.00    -0.098 SA
HETATM   23  C1  UNL     1     -15.807   9.997  25.876  1.00  0.00     0.099 C
ENDBRANCH   1  22
BRANCH   7  24
HETATM   24  N4  UNL     1     -20.679  12.298  23.410  1.00  0.00    -0.234 N
ATOM     25  H42 UNL     1     -21.284  13.038  23.769  1.00  0.00     0.174 HD
ATOM     26  H41 UNL     1     -21.077  11.460  22.988  1.00  0.00     0.174 HD
ENDBRANCH   7  24
TORSDOF 7
ENDMDL