MODEL 1
REMARK VINA RESULT: -8.937162991      0.000      0.000
REMARK  7 active torsions:
REMARK  status: ('A' for Active; 'I' for Inactive)
REMARK    1  A    between atoms: N1_4  and  O1_6
REMARK    2  A    between atoms: O1_6  and  C4_7
REMARK    3  A    between atoms: C4_7  and  C5_8
REMARK    4  A    between atoms: C12_16  and  O3_17
REMARK    5  A    between atoms: C13_19  and  O4_20
REMARK    6  A    between atoms: C17_25  and  C18_26
REMARK    7  A    between atoms: C18_26  and  C19_27
ROOT
HETATM    1  C1  UNL     1      26.092   3.293  -1.102  1.00  0.00     0.021 C
HETATM    2  C2  UNL     1      26.030   4.482  -1.656  1.00  0.00    -0.034 C
HETATM    3  C3  UNL     1      27.122   5.007  -2.464  1.00  0.00     0.071 C
HETATM    4  N1  UNL     1      27.898   4.295  -3.148  1.00  0.00    -0.265 N
ATOM      5  H1  UNL     1      28.563   4.916  -3.610  1.00  0.00     0.194 HD
HETATM    6  C10 UNL     1      27.281   6.465  -2.470  1.00  0.00     0.002 A
HETATM    7  C11 UNL     1      28.308   7.049  -3.230  1.00  0.00     0.053 A
HETATM    8  C12 UNL     1      28.501   8.412  -3.278  1.00  0.00     0.099 A
HETATM    9  C13 UNL     1      27.627   9.174  -2.535  1.00  0.00     0.099 A
HETATM   10  C14 UNL     1      26.617   8.648  -1.783  1.00  0.00     0.047 A
HETATM   11  C15 UNL     1      26.439   7.241  -1.751  1.00  0.00    -0.042 A
HETATM   12  C16 UNL     1      25.359   6.684  -0.939  1.00  0.00     0.049 C
HETATM   13  C17 UNL     1      24.800   5.361  -1.445  1.00  0.00     0.025 C
ENDROOT
BRANCH   4  14
HETATM   14  O1  UNL     1      28.169   3.142  -3.479  1.00  0.00    -0.275 OA
BRANCH  14  15
HETATM   15  C4  UNL     1      28.474   1.927  -3.907  1.00  0.00     0.242 C
BRANCH  15  16
HETATM   16  C5  UNL     1      29.669   1.873  -4.808  1.00  0.00    -0.001 A
HETATM   17  C6  UNL     1      30.463   2.913  -5.240  1.00  0.00     0.036 A
HETATM   18  C7  UNL     1      31.427   2.373  -6.044  1.00  0.00     0.142 A
HETATM   19  O2  UNL     1      31.227   1.080  -6.094  1.00  0.00    -0.327 OA
HETATM   20  C8  UNL     1      30.184   0.731  -5.370  1.00  0.00     0.057 A
HETATM   21  C9  UNL     1      29.668  -0.651  -5.197  1.00  0.00     0.077 C
ENDBRANCH  15  16
ENDBRANCH  14  15
ENDBRANCH   4  14
BRANCH  13  22
HETATM   22  C18 UNL     1      24.131   5.415  -2.753  1.00  0.00     0.014 C
BRANCH  22  23
HETATM   23  C19 UNL     1      23.983   6.670  -3.485  1.00  0.00    -0.008 C
HETATM   24  C20 UNL     1      24.485   6.695  -4.898  1.00  0.00     0.005 C
HETATM   25  C21 UNL     1      24.057   8.033  -5.527  1.00  0.00     0.006 C
HETATM   26  C22 UNL     1      24.071   9.138  -4.499  1.00  0.00     0.079 C
HETATM   27  C23 UNL     1      22.932   8.883  -3.509  1.00  0.00     0.244 C
HETATM   28  F1  UNL     1      21.824   9.580  -3.886  1.00  0.00    -0.206 F
HETATM   29  F2  UNL     1      23.390   9.318  -2.278  1.00  0.00    -0.206 F
HETATM   30  C24 UNL     1      22.650   7.364  -3.442  1.00  0.00     0.083 C
ENDBRANCH  22  23
ENDBRANCH  13  22
BRANCH   8  31
HETATM   31  O3  UNL     1      29.522   8.979  -4.035  1.00  0.00    -0.358 OA
ATOM     32  H3  UNL     1      29.803   9.877  -3.902  1.00  0.00     0.217 HD
ENDBRANCH   8  31
BRANCH   9  33
HETATM   33  O4  UNL     1      27.807  10.549  -2.572  1.00  0.00    -0.358 OA
ATOM     34  H4  UNL     1      27.332  11.026  -3.242  1.00  0.00     0.217 HD
ENDBRANCH   9  33
TORSDOF 7
ENDMDL