MODEL 5
REMARK VINA RESULT: -7.677551071      3.712      6.948
REMARK  7 active torsions:
REMARK  status: ('A' for Active; 'I' for Inactive)
REMARK    1  A    between atoms: C2_2  and  C3_3
REMARK    2  A    between atoms: C3_3  and  C4_4
REMARK    3  A    between atoms: C4_4  and  N1_6
REMARK    4  A    between atoms: N1_6  and  C6_8
REMARK    5  A    between atoms: C7_12  and  C8_13
REMARK    6  A    between atoms: C11_18  and  N5_19
REMARK    7  A    between atoms: N5_19  and  C12_21
ROOT
HETATM    1  C6  UNL     1      31.447   5.157  -5.940  1.00  0.00     0.159 A
HETATM    2  N2  UNL     1      30.733   6.198  -5.379  1.00  0.00    -0.276 N
ATOM      3  H2  UNL     1      29.853   5.983  -4.909  1.00  0.00     0.189 HD
HETATM    4  N3  UNL     1      31.126   7.445  -5.418  1.00  0.00    -0.249 N
HETATM    5  C7  UNL     1      30.558   8.554  -4.930  1.00  0.00     0.091 A
HETATM    6  C18 UNL     1      31.350   9.640  -5.220  1.00  0.00     0.037 A
HETATM    7  C19 UNL     1      32.452   9.204  -5.913  1.00  0.00     0.037 A
HETATM    8  C20 UNL     1      32.278   7.823  -6.017  1.00  0.00     0.099 A
HETATM    9  C21 UNL     1      33.041   6.839  -6.598  1.00  0.00     0.187 A
HETATM   10  F1  UNL     1      34.192   7.193  -7.200  1.00  0.00    -0.200 F
HETATM   11  C22 UNL     1      32.617   5.510  -6.554  1.00  0.00     0.202 A
HETATM   12  F2  UNL     1      33.428   4.591  -7.152  1.00  0.00    -0.199 F
ENDROOT
BRANCH   5  13
HETATM   13  C8  UNL     1      29.276   8.667  -4.185  1.00  0.00     0.105 A
HETATM   14  N4  UNL     1      28.983   8.328  -2.966  1.00  0.00    -0.350 N
HETATM   15  C9  UNL     1      27.790   8.503  -2.471  1.00  0.00     0.040 A
ATOM     16  H4  UNL     1      29.707   7.912  -2.379  1.00  0.00     0.166 HD
HETATM   17  C10 UNL     1      27.484   8.053  -1.049  1.00  0.00     0.071 C
HETATM   18  C11 UNL     1      26.846   9.061  -3.276  1.00  0.00     0.094 A
HETATM   19  S1  UNL     1      27.794   9.295  -4.739  1.00  0.00    -0.051 SA
BRANCH  18  20
HETATM   20  N5  UNL     1      25.491   9.444  -3.125  1.00  0.00    -0.378 N
ATOM     21  H5  UNL     1      25.363  10.347  -2.669  1.00  0.00     0.160 HD
BRANCH  20  22
HETATM   22  C12 UNL     1      24.279   8.805  -3.489  1.00  0.00     0.082 C
HETATM   23  C13 UNL     1      24.417   7.310  -3.666  1.00  0.00     0.025 C
HETATM   24  C14 UNL     1      24.318   6.543  -2.364  1.00  0.00     0.002 C
HETATM   25  C15 UNL     1      22.936   6.800  -1.800  1.00  0.00     0.000 C
HETATM   26  C16 UNL     1      22.941   8.271  -1.406  1.00  0.00     0.002 C
HETATM   27  C17 UNL     1      23.125   9.170  -2.570  1.00  0.00     0.025 C
ENDBRANCH  20  22
ENDBRANCH  18  20
ENDBRANCH   5  13
BRANCH   1  28
HETATM   28  N1  UNL     1      31.018   4.016  -5.866  1.00  0.00    -0.368 N
ATOM     29  H1  UNL     1      31.022   3.666  -6.825  1.00  0.00     0.161 HD
BRANCH  28  30
HETATM   30  C4  UNL     1      30.538   2.990  -5.114  1.00  0.00     0.079 C
HETATM   31  C5  UNL     1      31.232   2.662  -3.807  1.00  0.00     0.032 C
BRANCH  30  32
HETATM   32  C3  UNL     1      29.033   3.093  -4.902  1.00  0.00     0.024 C
BRANCH  32  33
HETATM   33  C2  UNL     1      28.724   3.744  -3.566  1.00  0.00    -0.003 C
HETATM   34  C1  UNL     1      27.791   4.908  -3.687  1.00  0.00     0.005 C
ENDBRANCH  32  33
ENDBRANCH  30  32
ENDBRANCH  28  30
ENDBRANCH   1  28
TORSDOF 7
ENDMDL