MODEL 2
REMARK VINA RESULT: -8.673428563      3.869      6.727
REMARK  5 active torsions:
REMARK  status: ('A' for Active; 'I' for Inactive)
REMARK    1  A    between atoms: C2_3  and  C3_4
REMARK    2  A    between atoms: C7_9  and  O1_10
REMARK    3  A    between atoms: O1_10  and  C8_11
REMARK    4  A    between atoms: C8_11  and  C9_12
REMARK    5  A    between atoms: C9_12  and  C10_13
ROOT
HETATM    1  C3  UNL     1      26.760   9.781  -4.439  1.00  0.00     0.034 A
HETATM    2  C4  UNL     1      27.777   9.940  -5.349  1.00  0.00     0.019 A
HETATM    3  C5  UNL     1      29.041   9.367  -5.145  1.00  0.00     0.030 A
HETATM    4  C6  UNL     1      29.267   8.633  -4.011  1.00  0.00     0.081 A
HETATM    5  N2  UNL     1      30.525   8.036  -3.761  1.00  0.00    -0.099 NA
HETATM    6  C7  UNL     1      28.273   8.440  -3.053  1.00  0.00     0.115 A
HETATM    7  C19 UNL     1      27.058   9.012  -3.292  1.00  0.00     0.083 A
HETATM    8 CL1  UNL     1      25.703   8.790  -2.171  1.00  0.00    -0.080 Cl
ENDROOT
BRANCH   6   9
HETATM    9  O1  UNL     1      28.561   7.709  -1.967  1.00  0.00    -0.347 OA
BRANCH   9  10
HETATM   10  C8  UNL     1      28.148   6.438  -1.558  1.00  0.00     0.176 C
BRANCH  10  11
HETATM   11  C9  UNL     1      28.532   5.350  -2.468  1.00  0.00     0.032 C
BRANCH  11  12
HETATM   12  C10 UNL     1      27.406   4.664  -3.183  1.00  0.00    -0.006 C
HETATM   13  C11 UNL     1      27.763   3.511  -4.042  1.00  0.00     0.042 C
HETATM   14  C12 UNL     1      26.529   2.820  -4.518  1.00  0.00     0.174 C
HETATM   15  F1  UNL     1      26.901   2.078  -5.649  1.00  0.00    -0.249 F
HETATM   16  C13 UNL     1      25.377   3.658  -4.899  1.00  0.00     0.020 C
HETATM   17  C14 UNL     1      25.404   4.216  -6.282  1.00  0.00     0.007 C
HETATM   18  C18 UNL     1      25.133   4.855  -3.983  1.00  0.00     0.012 C
HETATM   19  C15 UNL     1      26.076   5.524  -6.446  1.00  0.00     0.001 C
HETATM   20  C16 UNL     1      26.945   5.961  -5.310  1.00  0.00     0.005 C
HETATM   21  C17 UNL     1      26.492   5.573  -3.955  1.00  0.00    -0.010 C
ENDBRANCH  11  12
ENDBRANCH  10  11
ENDBRANCH   9  10
ENDBRANCH   6   9
BRANCH   1  22
HETATM   22  C2  UNL     1      25.416  10.302  -4.584  1.00  0.00     0.136 A
HETATM   23  N1  UNL     1      24.314   9.724  -5.055  1.00  0.00    -0.311 N
HETATM   24  C1  UNL     1      24.099   8.400  -5.579  1.00  0.00     0.160 C
HETATM   25  C20 UNL     1      23.278  10.621  -4.956  1.00  0.00     0.194 A
HETATM   26  N4  UNL     1      23.759  11.738  -4.423  1.00  0.00    -0.274 N
HETATM   27  S1  UNL     1      21.723  10.425  -5.389  1.00  0.00    -0.039 SA
HETATM   28  N3  UNL     1      25.020  11.537  -4.207  1.00  0.00    -0.282 N
ATOM     29  H4  UNL     1      23.236  12.591  -4.223  1.00  0.00     0.189 HD
ATOM     30  H3  UNL     1      25.644  12.233  -3.799  1.00  0.00     0.188 HD
ENDBRANCH   1  22
TORSDOF 5
ENDMDL