MODEL 5
REMARK VINA RESULT: -7.843788986      2.109      2.704
REMARK  7 active torsions:
REMARK  status: ('A' for Active; 'I' for Inactive)
REMARK    1  A    between atoms: C6_6  and  O1_7
REMARK    2  A    between atoms: C8_9  and  C9_10
REMARK    3  A    between atoms: C9_10  and  C10_11
REMARK    4  A    between atoms: C14_15  and  O2_16
REMARK    5  A    between atoms: C16_19  and  C17_20
REMARK    6  A    between atoms: C20_23  and  O4_24
REMARK    7  A    between atoms: C21_26  and  O5_27
ROOT
HETATM    1  C1  UNL     1      29.937   2.720  -4.355  1.00  0.00     0.021 C
HETATM    2  C2  UNL     1      29.479   3.918  -4.406  1.00  0.00    -0.030 C
HETATM    3  C3  UNL     1      30.351   5.059  -4.626  1.00  0.00     0.038 A
HETATM    4  C4  UNL     1      29.966   6.233  -3.960  1.00  0.00     0.086 A
HETATM    5  C5  UNL     1      30.779   7.353  -4.139  1.00  0.00     0.075 A
HETATM    6  C6  UNL     1      31.899   7.308  -4.926  1.00  0.00     0.080 A
HETATM    7  C8  UNL     1      32.240   6.112  -5.568  1.00  0.00     0.013 A
HETATM    8  C14 UNL     1      31.469   4.988  -5.423  1.00  0.00     0.091 A
HETATM    9  O3  UNL     1      28.839   6.282  -3.165  1.00  0.00    -0.338 OA
HETATM   10  C16 UNL     1      28.056   5.148  -2.948  1.00  0.00     0.188 C
HETATM   11  C23 UNL     1      28.027   4.266  -4.171  1.00  0.00     0.149 C
HETATM   12 CL1  UNL     1      27.461   5.219  -5.543  1.00  0.00    -0.117 Cl
ENDROOT
BRANCH  10  13
HETATM   13  C17 UNL     1      26.694   5.451  -2.443  1.00  0.00     0.015 A
HETATM   14  C18 UNL     1      26.121   6.701  -2.480  1.00  0.00     0.016 A
HETATM   15  C19 UNL     1      24.849   6.956  -2.004  1.00  0.00     0.040 A
HETATM   16  C20 UNL     1      24.113   5.928  -1.470  1.00  0.00     0.102 A
HETATM   17  C21 UNL     1      24.680   4.658  -1.426  1.00  0.00     0.138 A
HETATM   18  C22 UNL     1      25.946   4.433  -1.905  1.00  0.00     0.161 A
HETATM   19  F1  UNL     1      26.452   3.193  -1.843  1.00  0.00    -0.202 F
BRANCH  16  20
HETATM   20  O4  UNL     1      22.835   6.131  -0.980  1.00  0.00    -0.358 OA
ATOM     21  H4  UNL     1      22.650   6.107  -0.048  1.00  0.00     0.217 HD
ENDBRANCH  16  20
BRANCH  17  22
HETATM   22  O5  UNL     1      23.920   3.624  -0.880  1.00  0.00    -0.355 OA
ATOM     23  H5  UNL     1      24.233   2.735  -0.994  1.00  0.00     0.218 HD
ENDBRANCH  17  22
ENDBRANCH  10  13
BRANCH   8  24
HETATM   24  O2  UNL     1      31.747   3.777  -6.040  1.00  0.00    -0.354 OA
HETATM   25  C15 UNL     1      32.841   2.961  -5.579  1.00  0.00     0.210 C
ENDBRANCH   8  24
BRANCH   6  26
HETATM   26  O1  UNL     1      32.737   8.387  -5.134  1.00  0.00    -0.355 OA
HETATM   27  C7  UNL     1      32.175   9.535  -5.746  1.00  0.00     0.210 C
ENDBRANCH   6  26
BRANCH   7  28
HETATM   28  C9  UNL     1      33.473   6.114  -6.359  1.00  0.00     0.072 C
BRANCH  28  29
HETATM   29  C10 UNL     1      33.312   5.916  -7.796  1.00  0.00    -0.020 C
HETATM   30  C11 UNL     1      34.047   5.125  -8.539  1.00  0.00    -0.091 C
HETATM   31  C12 UNL     1      33.767   5.008 -10.034  1.00  0.00     0.042 C
HETATM   32  C13 UNL     1      35.189   4.329  -8.052  1.00  0.00     0.042 C
ENDBRANCH  28  29
ENDBRANCH   7  28
TORSDOF 7
ENDMDL