MODEL 2
REMARK VINA RESULT: -8.886585234      1.533      1.781
REMARK  7 active torsions:
REMARK  status: ('A' for Active; 'I' for Inactive)
REMARK    1  A    between atoms: C6_6  and  C8_8
REMARK    2  A    between atoms: C11_11  and  O1_12
REMARK    3  A    between atoms: O1_12  and  C12_13
REMARK    4  A    between atoms: C13_15  and  C14_16
REMARK    5  A    between atoms: C14_16  and  N2_21
REMARK    6  A    between atoms: N1_17  and  O2_19
REMARK    7  A    between atoms: N2_21  and  C15_23
ROOT
HETATM    1  C15 UNL     1      23.034  10.612  -4.830  1.00  0.00     0.245 C
HETATM    2  C16 UNL     1      21.942  11.133  -5.658  1.00  0.00     0.078 C
HETATM    3  N3  UNL     1      21.083  11.529  -6.334  1.00  0.00    -0.196 NA
ENDROOT
BRANCH   1   4
HETATM    4  N2  UNL     1      22.517  10.186  -3.535  1.00  0.00    -0.361 N
ATOM      5  H2  UNL     1      21.697  10.651  -3.144  1.00  0.00     0.162 HD
BRANCH   4   6
HETATM    6  C14 UNL     1      23.133   9.139  -2.811  1.00  0.00     0.139 C
HETATM    7  N1  UNL     1      23.052   9.063  -1.553  1.00  0.00    -0.252 N
ATOM      8  H1  UNL     1      22.511   9.787  -1.081  1.00  0.00     0.196 HD
BRANCH   6   9
HETATM    9  C13 UNL     1      23.905   8.125  -3.576  1.00  0.00     0.056 A
HETATM   10  S1  UNL     1      25.572   7.932  -3.739  1.00  0.00    -0.058 SA
HETATM   11  C12 UNL     1      25.598   6.533  -4.815  1.00  0.00     0.156 A
HETATM   12  C18 UNL     1      24.260   6.307  -4.976  1.00  0.00     0.158 A
HETATM   13  C17 UNL     1      23.394   7.118  -4.344  1.00  0.00     0.068 A
HETATM   14  F1  UNL     1      23.842   5.271  -5.817  1.00  0.00    -0.203 F
BRANCH  11  15
HETATM   15  O1  UNL     1      26.724   5.949  -5.286  1.00  0.00    -0.297 OA
BRANCH  15  16
HETATM   16  C11 UNL     1      27.462   4.860  -5.086  1.00  0.00     0.115 A
HETATM   17  C10 UNL     1      28.872   5.080  -5.131  1.00  0.00     0.041 A
HETATM   18  C9  UNL     1      29.743   4.069  -4.958  1.00  0.00     0.011 A
HETATM   19  C8  UNL     1      29.356   2.762  -4.728  1.00  0.00    -0.047 A
HETATM   20  C20 UNL     1      27.995   2.556  -4.682  1.00  0.00     0.053 A
HETATM   21  C19 UNL     1      27.083   3.565  -4.855  1.00  0.00     0.150 A
HETATM   22  F2  UNL     1      25.792   3.212  -4.783  1.00  0.00    -0.203 F
BRANCH  19  23
HETATM   23  C6  UNL     1      30.387   1.709  -4.607  1.00  0.00    -0.017 C
HETATM   24  C5  UNL     1      31.501   1.997  -3.678  1.00  0.00     0.015 C
HETATM   25  C4  UNL     1      32.760   2.524  -4.236  1.00  0.00     0.010 C
HETATM   26  C2  UNL     1      33.145   2.119  -5.608  1.00  0.00    -0.048 C
HETATM   27  C1  UNL     1      33.966   3.253  -6.201  1.00  0.00     0.015 C
HETATM   28  C3  UNL     1      34.100   0.912  -5.548  1.00  0.00     0.015 C
HETATM   29  C22 UNL     1      32.014   1.841  -6.557  1.00  0.00     0.010 C
HETATM   30  C21 UNL     1      30.826   1.214  -5.964  1.00  0.00     0.015 C
HETATM   31  C7  UNL     1      29.640   0.489  -4.012  1.00  0.00     0.020 C
ENDBRANCH  19  23
ENDBRANCH  15  16
ENDBRANCH  11  15
ENDBRANCH   6   9
BRANCH   7  32
HETATM   32  O2  UNL     1      23.622   8.100  -0.763  1.00  0.00    -0.288 OA
ATOM     33  H2  UNL     1      23.516   8.011   0.177  1.00  0.00     0.244 HD
ENDBRANCH   7  32
ENDBRANCH   4   6
ENDBRANCH   1   4
TORSDOF 7
ENDMDL