MODEL 5
REMARK VINA RESULT: -8.005485300      2.881      5.412
REMARK  7 active torsions:
REMARK  status: ('A' for Active; 'I' for Inactive)
REMARK    1  A    between atoms: N1_2  and  C2_4
REMARK    2  A    between atoms: C7_10  and  C8_11
REMARK    3  A    between atoms: C8_11  and  C11_15
REMARK    4  A    between atoms: C13_17  and  O1_18
REMARK    5  A    between atoms: C16_21  and  O2_22
REMARK    6  A    between atoms: N3_26  and  C20_27
REMARK    7  A    between atoms: C23_30  and  O3_31
ROOT
HETATM    1  C8  UNL     1      26.607   6.529  -5.277  1.00  0.00    -0.003 C
HETATM    2  C9  UNL     1      26.449   5.838  -6.370  1.00  0.00     0.106 C
HETATM    3  C10 UNL     1      25.328   4.957  -6.582  1.00  0.00     0.088 C
HETATM    4  N2  UNL     1      24.414   4.246  -6.776  1.00  0.00    -0.192 NA
ENDROOT
BRANCH   1   5
HETATM    5  C7  UNL     1      25.666   6.455  -4.177  1.00  0.00     0.006 A
HETATM    6  C6  UNL     1      24.556   7.182  -3.832  1.00  0.00     0.039 A
HETATM    7  C5  UNL     1      24.141   6.829  -2.551  1.00  0.00     0.051 A
HETATM    8  C23 UNL     1      23.821   8.115  -4.531  1.00  0.00     0.108 A
HETATM    9  C4  UNL     1      23.024   7.417  -2.017  1.00  0.00     0.075 A
HETATM   10  N3  UNL     1      25.003   5.873  -2.116  1.00  0.00    -0.350 N
HETATM   11  C3  UNL     1      22.267   8.355  -2.678  1.00  0.00     0.147 A
HETATM   12  C2  UNL     1      22.687   8.692  -3.946  1.00  0.00     0.101 A
HETATM   13  F1  UNL     1      21.159   8.929  -2.128  1.00  0.00    -0.204 F
HETATM   14  C19 UNL     1      25.908   5.632  -3.051  1.00  0.00     0.105 A
BRANCH  12  15
HETATM   15  N1  UNL     1      21.931   9.655  -4.662  1.00  0.00    -0.390 N
HETATM   16  C1  UNL     1      22.293  11.052  -4.746  1.00  0.00     0.146 C
ATOM     17  H1  UNL     1      21.087   9.346  -5.144  1.00  0.00     0.159 HD
ENDBRANCH  12  15
BRANCH  10  18
HETATM   18  C20 UNL     1      24.860   5.268  -0.797  1.00  0.00     0.090 A
HETATM   19  C21 UNL     1      24.493   3.814  -0.831  1.00  0.00     0.028 A
HETATM   20  C22 UNL     1      25.822   4.254  -0.329  1.00  0.00     0.028 A
ENDBRANCH  10  18
BRANCH   8  21
HETATM   21  O3  UNL     1      24.175   8.490  -5.806  1.00  0.00    -0.357 OA
ATOM     22  H3  UNL     1      24.996   8.949  -5.938  1.00  0.00     0.217 HD
ENDBRANCH   8  21
ENDBRANCH   1   5
BRANCH   1  23
HETATM   23  C11 UNL     1      27.749   7.410  -5.132  1.00  0.00    -0.019 A
HETATM   24  C12 UNL     1      29.036   6.962  -5.042  1.00  0.00     0.049 A
HETATM   25  C13 UNL     1      30.124   7.797  -4.892  1.00  0.00     0.071 A
HETATM   26  C15 UNL     1      29.899   9.154  -4.829  1.00  0.00     0.073 A
HETATM   27  C16 UNL     1      28.620   9.678  -4.915  1.00  0.00     0.071 A
HETATM   28  C18 UNL     1      27.564   8.781  -5.065  1.00  0.00     0.049 A
BRANCH  25  29
HETATM   29  O1  UNL     1      31.399   7.284  -4.807  1.00  0.00    -0.356 OA
HETATM   30  C14 UNL     1      32.336   7.612  -5.810  1.00  0.00     0.210 C
ENDBRANCH  25  29
BRANCH  27  31
HETATM   31  O2  UNL     1      28.469  11.034  -4.846  1.00  0.00    -0.356 OA
HETATM   32  C17 UNL     1      27.520  11.730  -4.098  1.00  0.00     0.210 C
ENDBRANCH  27  31
ENDBRANCH   1  23
TORSDOF 7
ENDMDL