MODEL 2
REMARK VINA RESULT: -8.321268399      3.184      5.919
REMARK  9 active torsions:
REMARK  status: ('A' for Active; 'I' for Inactive)
REMARK    1  A    between atoms: C2_2  and  C3_3
REMARK    2  A    between atoms: C3_3  and  C4_4
REMARK    3  A    between atoms: C4_4  and  O1_5
REMARK    4  A    between atoms: C4_4  and  C5_7
REMARK    5  A    between atoms: C8_10  and  C9_11
REMARK    6  A    between atoms: C9_11  and  C10_12
REMARK    7  A    between atoms: C10_12  and  C11_13
REMARK    8  A    between atoms: C16_20  and  O2_21
REMARK    9  A    between atoms: C22_29  and  O4_30
ROOT
HETATM    1  C5  UNL     1      25.967   7.018  -2.452  1.00  0.00     0.038 A
HETATM    2  C6  UNL     1      27.221   6.461  -2.645  1.00  0.00    -0.033 A
HETATM    3  C7  UNL     1      27.686   5.215  -1.965  1.00  0.00     0.050 C
HETATM    4  C8  UNL     1      28.061   7.019  -3.579  1.00  0.00     0.017 A
HETATM    5  C16 UNL     1      27.700   8.090  -4.314  1.00  0.00     0.086 A
HETATM    6  C17 UNL     1      26.445   8.679  -4.152  1.00  0.00     0.017 A
HETATM    7  C18 UNL     1      25.608   8.136  -3.232  1.00  0.00     0.093 A
HETATM    8  O3  UNL     1      24.332   8.711  -3.052  1.00  0.00    -0.337 OA
HETATM    9  C19 UNL     1      23.692   9.226  -4.224  1.00  0.00     0.087 C
HETATM   10  C20 UNL     1      23.270   8.094  -5.126  1.00  0.00     0.049 C
HETATM   11  C21 UNL     1      22.446   9.937  -3.747  1.00  0.00     0.049 C
HETATM   12  C22 UNL     1      24.618  10.188  -4.873  1.00  0.00     0.160 C
HETATM   13  C23 UNL     1      26.052   9.868  -4.932  1.00  0.00     0.052 C
HETATM   14  C24 UNL     1      26.811  11.108  -4.431  1.00  0.00     0.018 C
ENDROOT
BRANCH   4  15
HETATM   15  C9  UNL     1      29.429   6.486  -3.751  1.00  0.00     0.027 C
HETATM   16  C15 UNL     1      30.395   6.764  -2.951  1.00  0.00     0.274 C
HETATM   17  F1  UNL     1      31.637   6.293  -3.084  1.00  0.00    -0.172 F
HETATM   18  F2  UNL     1      30.210   7.616  -1.883  1.00  0.00    -0.172 F
BRANCH  15  19
HETATM   19  C10 UNL     1      29.615   5.589  -4.905  1.00  0.00     0.072 C
BRANCH  19  20
HETATM   20  C11 UNL     1      29.697   4.153  -4.638  1.00  0.00    -0.020 C
HETATM   21  C12 UNL     1      28.687   3.304  -4.797  1.00  0.00    -0.091 C
HETATM   22  C13 UNL     1      28.820   1.853  -4.513  1.00  0.00     0.042 C
HETATM   23  C14 UNL     1      27.393   3.826  -5.269  1.00  0.00     0.042 C
ENDBRANCH  19  20
ENDBRANCH  15  19
ENDBRANCH   4  15
BRANCH   5  24
HETATM   24  O2  UNL     1      28.535   8.664  -5.261  1.00  0.00    -0.359 OA
ATOM     25  H2  UNL     1      28.447   9.567  -5.542  1.00  0.00     0.217 HD
ENDBRANCH   5  24
BRANCH   1  26
HETATM   26  C4  UNL     1      25.041   6.575  -1.463  1.00  0.00     0.079 C
BRANCH  26  27
HETATM   27  C3  UNL     1      23.988   5.621  -1.497  1.00  0.00     0.033 C
BRANCH  27  28
HETATM   28  C2  UNL     1      24.385   4.305  -1.486  1.00  0.00    -0.028 C
HETATM   29  C1  UNL     1      24.786   3.697  -0.206  1.00  0.00     0.036 C
ENDBRANCH  27  28
ENDBRANCH  26  27
BRANCH  26  30
HETATM   30  O1  UNL     1      25.211   7.176  -0.293  1.00  0.00    -0.360 OA
ATOM     31  H1  UNL     1      25.846   7.883  -0.295  1.00  0.00     0.217 HD
ENDBRANCH  26  30
ENDBRANCH   1  26
BRANCH  12  32
HETATM   32  O4  UNL     1      24.375  11.464  -4.283  1.00  0.00    -0.392 OA
ATOM     33  H4  UNL     1      25.171  11.719  -3.833  1.00  0.00     0.210 HD
ENDBRANCH  12  32
TORSDOF 9
ENDMDL