MODEL 1
REMARK VINA RESULT: -9.270406715      0.000      0.000
REMARK  6 active torsions:
REMARK  status: ('A' for Active; 'I' for Inactive)
REMARK    1  A    between atoms: C4_5  and  N1_6
REMARK    2  A    between atoms: N1_6  and  C5_8
REMARK    3  A    between atoms: C9_13  and  N3_14
REMARK    4  A    between atoms: N3_14  and  C10_16
REMARK    5  A    between atoms: C16_24  and  O1_25
REMARK    6  A    between atoms: O1_25  and  C17_26
ROOT
HETATM    1  C5  UNL     1      28.910   7.327  -2.101  1.00  0.00     0.038 A
HETATM    2  C6  UNL     1      28.502   8.489  -2.696  1.00  0.00     0.054 A
HETATM    3  C7  UNL     1      27.203   8.940  -2.647  1.00  0.00     0.075 A
HETATM    4  C8  UNL     1      26.868  10.191  -3.333  1.00  0.00     0.102 C
HETATM    5  N2  UNL     1      26.621  11.176  -3.894  1.00  0.00    -0.191 NA
HETATM    6  C9  UNL     1      26.250   8.208  -1.974  1.00  0.00     0.083 A
HETATM    7  C16 UNL     1      26.610   7.029  -1.360  1.00  0.00     0.099 A
HETATM    8  C22 UNL     1      27.966   6.600  -1.436  1.00  0.00     0.068 A
ENDROOT
BRANCH   6   9
HETATM    9  N3  UNL     1      24.920   8.698  -1.937  1.00  0.00    -0.382 N
ATOM     10  H3  UNL     1      24.560   8.972  -1.023  1.00  0.00     0.160 HD
BRANCH   9  11
HETATM   11  C10 UNL     1      24.034   8.848  -3.040  1.00  0.00     0.082 C
HETATM   12  C11 UNL     1      23.911   7.525  -3.808  1.00  0.00     0.031 C
HETATM   13  C12 UNL     1      22.899   7.654  -4.909  1.00  0.00     0.081 C
HETATM   14  C13 UNL     1      22.542   9.059  -5.262  1.00  0.00     0.243 C
HETATM   15  F1  UNL     1      21.429   8.991  -6.112  1.00  0.00    -0.206 F
HETATM   16  F2  UNL     1      23.532   9.683  -6.020  1.00  0.00    -0.206 F
HETATM   17  C14 UNL     1      22.125   9.902  -4.090  1.00  0.00     0.081 C
HETATM   18  C15 UNL     1      22.667   9.351  -2.777  1.00  0.00     0.031 C
ENDBRANCH   9  11
ENDBRANCH   6   9
BRANCH   1  19
HETATM   19  N1  UNL     1      30.275   6.934  -2.199  1.00  0.00    -0.336 N
ATOM     20  H1  UNL     1      30.762   6.463  -1.437  1.00  0.00     0.168 HD
BRANCH  19  21
HETATM   21  C4  UNL     1      30.867   7.221  -3.339  1.00  0.00     0.149 A
HETATM   22  S1  UNL     1      31.268   6.189  -4.636  1.00  0.00    -0.064 SA
HETATM   23  C3  UNL     1      31.982   7.351  -5.665  1.00  0.00     0.077 A
HETATM   24  C2  UNL     1      31.864   8.497  -4.925  1.00  0.00     0.014 A
HETATM   25  C1  UNL     1      32.392   9.802  -5.492  1.00  0.00     0.068 C
HETATM   26  N4  UNL     1      31.300   8.411  -3.757  1.00  0.00    -0.340 N
ATOM     27  H4  UNL     1      31.190   9.239  -3.171  1.00  0.00     0.167 HD
ENDBRANCH  19  21
ENDBRANCH   1  19
BRANCH   7  28
HETATM   28  O1  UNL     1      25.823   6.181  -0.673  1.00  0.00    -0.344 OA
BRANCH  28  29
HETATM   29  C17 UNL     1      24.940   5.185  -0.808  1.00  0.00     0.129 C
HETATM   30  C18 UNL     1      25.025   4.092   0.249  1.00  0.00     0.032 C
HETATM   31  C19 UNL     1      25.742   2.925  -0.388  1.00  0.00     0.002 C
HETATM   32  C20 UNL     1      26.181   3.426  -1.723  1.00  0.00     0.002 C
HETATM   33  C21 UNL     1      25.090   4.390  -2.112  1.00  0.00     0.032 C
ENDBRANCH  28  29
ENDBRANCH   7  28
TORSDOF 6
ENDMDL