MODEL 2
REMARK VINA RESULT: -7.684892030      3.495      9.041
REMARK  7 active torsions:
REMARK  status: ('A' for Active; 'I' for Inactive)
REMARK    1  A    between atoms: O1_2  and  C2_3
REMARK    2  A    between atoms: C5_6  and  N1_7
REMARK    3  A    between atoms: N1_7  and  C6_9
REMARK    4  A    between atoms: C7_12  and  C8_13
REMARK    5  A    between atoms: C10_15  and  C11_16
REMARK    6  A    between atoms: C11_16  and  N3_17
REMARK    7  A    between atoms: N3_17  and  C12_19
ROOT
HETATM    1  C6  UNL     1      29.643   5.072  -4.182  1.00  0.00     0.152 A
HETATM    2  N2  UNL     1      28.443   5.491  -3.857  1.00  0.00    -0.332 N
ATOM      3  H2  UNL     1      28.335   6.394  -3.396  1.00  0.00     0.168 HD
HETATM    4  C7  UNL     1      27.359   4.756  -4.120  1.00  0.00     0.098 A
HETATM    5  C18 UNL     1      27.599   3.558  -4.731  1.00  0.00     0.188 A
HETATM    6  F1  UNL     1      26.718   2.584  -5.143  1.00  0.00    -0.196 F
HETATM    7  S2  UNL     1      29.298   3.560  -4.900  1.00  0.00    -0.021 SA
ENDROOT
BRANCH   4   8
HETATM    8  C8  UNL     1      26.031   5.418  -4.065  1.00  0.00     0.036 A
HETATM    9  C9  UNL     1      25.353   6.387  -4.682  1.00  0.00     0.035 A
HETATM   10  C10 UNL     1      24.124   6.765  -4.173  1.00  0.00    -0.007 A
HETATM   11  C16 UNL     1      23.738   6.064  -3.003  1.00  0.00    -0.009 A
HETATM   12  C17 UNL     1      22.516   6.373  -2.156  1.00  0.00     0.057 C
HETATM   13  S1  UNL     1      24.978   5.004  -2.720  1.00  0.00    -0.092 SA
BRANCH  10  14
HETATM   14  C11 UNL     1      23.076   7.568  -4.849  1.00  0.00     0.096 C
BRANCH  14  15
HETATM   15  N3  UNL     1      23.422   8.722  -5.568  1.00  0.00    -0.390 N
ATOM     16  H3  UNL     1      23.690   8.705  -6.553  1.00  0.00     0.159 HD
BRANCH  15  17
HETATM   17  C12 UNL     1      23.364   9.942  -4.785  1.00  0.00     0.018 C
HETATM   18  C13 UNL     1      22.493  10.969  -5.589  1.00  0.00     0.037 C
HETATM   19  C14 UNL     1      22.523   9.760  -3.540  1.00  0.00     0.037 C
HETATM   20  C15 UNL     1      24.604  10.631  -4.430  1.00  0.00     0.037 C
ENDBRANCH  15  17
ENDBRANCH  14  15
ENDBRANCH  10  14
ENDBRANCH   4   8
BRANCH   1  21
HETATM   21  N1  UNL     1      30.744   5.663  -4.024  1.00  0.00    -0.336 N
ATOM     22  H1  UNL     1      31.080   5.664  -3.062  1.00  0.00     0.168 HD
BRANCH  21  23
HETATM   23  C5  UNL     1      31.588   6.315  -4.920  1.00  0.00     0.037 A
HETATM   24  C4  UNL     1      32.487   5.452  -5.620  1.00  0.00     0.032 A
HETATM   25  C3  UNL     1      33.392   5.949  -6.476  1.00  0.00     0.042 A
HETATM   26  C2  UNL     1      33.512   7.304  -6.737  1.00  0.00     0.106 A
HETATM   27  C20 UNL     1      32.638   8.121  -6.060  1.00  0.00     0.151 A
HETATM   28  C19 UNL     1      31.689   7.638  -5.155  1.00  0.00     0.074 A
HETATM   29  F2  UNL     1      32.740   9.485  -6.307  1.00  0.00    -0.203 F
BRANCH  26  30
HETATM   30  O1  UNL     1      34.458   7.654  -7.609  1.00  0.00    -0.353 OA
HETATM   31  C1  UNL     1      35.562   7.329  -8.249  1.00  0.00     0.210 C
ENDBRANCH  26  30
ENDBRANCH  21  23
ENDBRANCH   1  21
TORSDOF 7
ENDMDL