MODEL 5
REMARK VINA RESULT: -7.746922196      1.438      1.919
REMARK  7 active torsions:
REMARK  status: ('A' for Active; 'I' for Inactive)
REMARK    1  A    between atoms: C2_2  and  C3_3
REMARK    2  A    between atoms: C2_2  and  C5_5
REMARK    3  A    between atoms: C9_9  and  O1_10
REMARK    4  A    between atoms: C10_12  and  O2_13
REMARK    5  A    between atoms: C14_18  and  O3_19
REMARK    6  A    between atoms: C15_21  and  O4_22
REMARK    7  A    between atoms: C17_24  and  O5_25
ROOT
HETATM    1  C5  UNL     1      30.931   4.297  -5.172  1.00  0.00     0.006 A
HETATM    2  C6  UNL     1      29.589   3.849  -5.113  1.00  0.00     0.026 A
HETATM    3  C7  UNL     1      28.567   4.677  -4.932  1.00  0.00    -0.004 A
HETATM    4  C8  UNL     1      28.872   6.059  -4.793  1.00  0.00     0.022 A
HETATM    5  C9  UNL     1      30.118   6.570  -4.847  1.00  0.00     0.111 A
HETATM    6  C10 UNL     1      31.139   5.660  -5.037  1.00  0.00     0.113 A
HETATM    7  C12 UNL     1      27.868   7.080  -4.503  1.00  0.00     0.011 A
HETATM    8  C13 UNL     1      28.299   7.929  -3.546  1.00  0.00     0.082 A
HETATM    9 CL1  UNL     1      29.644   7.486  -2.537  1.00  0.00    -0.080 Cl
HETATM   10  C14 UNL     1      27.494   9.002  -3.242  1.00  0.00     0.124 A
HETATM   11  C15 UNL     1      26.268   9.166  -3.922  1.00  0.00     0.137 A
HETATM   12  C17 UNL     1      25.879   8.250  -4.891  1.00  0.00     0.111 A
HETATM   13  C19 UNL     1      26.646   7.187  -5.216  1.00  0.00    -0.009 A
HETATM   14  C20 UNL     1      26.126   6.215  -6.205  1.00  0.00     0.046 C
HETATM   15  C21 UNL     1      26.303   4.789  -5.994  1.00  0.00     0.053 C
HETATM   16  C22 UNL     1      27.167   4.155  -4.982  1.00  0.00     0.128 C
HETATM   17  C23 UNL     1      26.564   4.099  -3.597  1.00  0.00     0.057 C
HETATM   18  F1  UNL     1      27.322   2.810  -5.367  1.00  0.00    -0.238 F
ENDROOT
BRANCH   1  19
HETATM   19  C2  UNL     1      31.963   3.300  -5.390  1.00  0.00    -0.055 C
HETATM   20  C1  UNL     1      32.300   2.878  -6.573  1.00  0.00     0.020 C
BRANCH  19  21
HETATM   21  C3  UNL     1      32.632   2.727  -4.195  1.00  0.00     0.034 C
HETATM   22  C4  UNL     1      32.083   1.352  -3.860  1.00  0.00     0.010 C
ENDBRANCH  19  21
ENDBRANCH   1  19
BRANCH   6  23
HETATM   23  O2  UNL     1      32.467   6.116  -5.102  1.00  0.00    -0.352 OA
HETATM   24  C11 UNL     1      33.010   6.622  -6.308  1.00  0.00     0.210 C
ENDBRANCH   6  23
BRANCH   5  25
HETATM   25  O1  UNL     1      30.325   7.901  -4.746  1.00  0.00    -0.357 OA
ATOM     26  H1  UNL     1      30.420   8.315  -3.896  1.00  0.00     0.217 HD
ENDBRANCH   5  25
BRANCH  10  27
HETATM   27  O3  UNL     1      27.865   9.908  -2.292  1.00  0.00    -0.356 OA
ATOM     28  H3  UNL     1      28.124  10.788  -2.535  1.00  0.00     0.218 HD
ENDBRANCH  10  27
BRANCH  12  29
HETATM   29  O5  UNL     1      24.658   8.392  -5.579  1.00  0.00    -0.352 OA
HETATM   30  C18 UNL     1      23.507   7.938  -4.850  1.00  0.00     0.210 C
ENDBRANCH  12  29
BRANCH  11  31
HETATM   31  O4  UNL     1      25.432  10.234  -3.645  1.00  0.00    -0.351 OA
HETATM   32  C16 UNL     1      25.485  11.474  -4.292  1.00  0.00     0.210 C
ENDBRANCH  11  31
TORSDOF 7
ENDMDL