MODEL 1
REMARK VINA RESULT: -8.687724667      0.000      0.000
REMARK  13 active torsions:
REMARK  status: ('A' for Active; 'I' for Inactive)
REMARK    1  A    between atoms: C3_4  and  N2_5
REMARK    2  A    between atoms: N2_5  and  C4_7
REMARK    3  A    between atoms: C6_11  and  C7_12
REMARK    4  A    between atoms: C7_12  and  O1_13
REMARK    5  A    between atoms: C10_20  and  N6_21
REMARK    6  A    between atoms: C11_26  and  N8_27
REMARK    7  A    between atoms: N10_33  and  C13_34
REMARK    8  A    between atoms: C13_34  and  C14_35
REMARK       I    between atoms: C14_35  and  N11_37
REMARK    9  A    between atoms: N11_37  and  C15_39
REMARK   10  A    between atoms: C15_39  and  C16_40
REMARK   11  A    between atoms: C19_43  and  N12_44
REMARK   12  A    between atoms: N13_47  and  O5_48
REMARK   13  A    between atoms: O5_48  and  O6_49
ROOT
HETATM    1  C1  UNL     1      24.815 -19.512 -44.446  1.00  0.00     0.231 C
HETATM    2  N1  UNL     1      25.751 -19.606 -43.770  1.00  0.00    -0.407 NA
HETATM    3  C2  UNL     1      26.868 -19.708 -42.937  1.00  0.00     0.226 A
HETATM    4  C3  UNL     1      26.670 -20.378 -41.747  1.00  0.00     0.180 A
HETATM    5  N5  UNL     1      27.698 -20.521 -40.885  1.00  0.00    -0.332 N
ATOM      6  H5  UNL     1      27.564 -21.014 -40.001  1.00  0.00     0.168 HD
HETATM    7  C9  UNL     1      28.900 -20.008 -41.201  1.00  0.00     0.124 A
HETATM    8  C10 UNL     1      29.998 -20.113 -40.374  1.00  0.00     0.145 A
HETATM    9  N7  UNL     1      31.202 -19.583 -40.723  1.00  0.00    -0.175 N
ATOM     10  H7  UNL     1      31.992 -19.681 -40.086  1.00  0.00     0.186 HD
HETATM   11  C11 UNL     1      31.373 -18.934 -41.889  1.00  0.00     0.679 A
HETATM   12  N9  UNL     1      30.330 -18.804 -42.731  1.00  0.00    -0.174 N
ATOM     13  H9  UNL     1      30.475 -18.309 -43.611  1.00  0.00     0.186 HD
HETATM   14  C12 UNL     1      29.103 -19.300 -42.465  1.00  0.00     0.157 A
HETATM   15  N10 UNL     1      28.059 -19.186 -43.278  1.00  0.00    -0.294 N
ENDROOT
BRANCH   4  16
HETATM   16  N2  UNL     1      25.418 -20.933 -41.377  1.00  0.00    -0.171 N
ATOM     17  H2  UNL     1      24.538 -20.482 -41.630  1.00  0.00     0.186 HD
BRANCH  16  18
HETATM   18  C4  UNL     1      25.440 -22.048 -40.697  1.00  0.00     0.686 A
HETATM   19  N3  UNL     1      25.492 -23.310 -41.160  1.00  0.00    -0.200 N
HETATM   20  C5  UNL     1      25.497 -24.146 -40.124  1.00  0.00     0.134 A
ATOM     21  H3  UNL     1      25.523 -23.582 -42.143  1.00  0.00     0.183 HD
HETATM   22  C6  UNL     1      25.447 -23.414 -38.955  1.00  0.00     0.068 A
HETATM   23  N4  UNL     1      25.413 -22.126 -39.342  1.00  0.00    -0.188 N
HETATM   24  C8  UNL     1      25.354 -21.012 -38.409  1.00  0.00     0.175 C
BRANCH  22  25
HETATM   25  C7  UNL     1      25.433 -23.953 -37.573  1.00  0.00     0.223 C
BRANCH  25  26
HETATM   26  O1  UNL     1      26.724 -24.011 -37.050  1.00  0.00    -0.395 OA
ATOM     27  H1  UNL     1      26.723 -24.411 -36.188  1.00  0.00     0.209 HD
ENDBRANCH  25  26
ENDBRANCH  22  25
ENDBRANCH  16  18
ENDBRANCH   4  16
BRANCH  15  28
HETATM   28  C13 UNL     1      28.198 -18.499 -44.537  1.00  0.00     0.236 C
BRANCH  28  29
HETATM   29  C14 UNL     1      27.807 -17.065 -44.413  1.00  0.00     0.236 C
HETATM   30  O2  UNL     1      28.641 -16.268 -43.913  1.00  0.00    -0.272 OA
HETATM   31  N11 UNL     1      26.550 -16.604 -44.837  1.00  0.00    -0.354 N
ATOM     32  H11 UNL     1      25.901 -17.283 -45.235  1.00  0.00     0.162 HD
BRANCH  31  33
HETATM   33  C15 UNL     1      26.123 -15.244 -44.746  1.00  0.00     0.182 C
BRANCH  33  34
HETATM   34  C16 UNL     1      24.659 -15.107 -45.054  1.00  0.00     0.063 A
HETATM   35  C17 UNL     1      23.731 -14.261 -44.485  1.00  0.00     0.033 A
HETATM   36  C18 UNL     1      22.504 -14.476 -45.074  1.00  0.00     0.059 A
HETATM   37  C19 UNL     1      22.681 -15.465 -46.017  1.00  0.00     0.203 A
HETATM   38  N13 UNL     1      23.977 -15.817 -45.979  1.00  0.00    -0.171 N
BRANCH  37  39
HETATM   39  N12 UNL     1      21.663 -16.013 -46.880  1.00  0.00    -0.096 N
HETATM   40  O3  UNL     1      20.988 -16.959 -46.485  1.00  0.00    -0.530 OA
HETATM   41  O4  UNL     1      21.451 -15.491 -48.116  1.00  0.00    -0.530 OA
ENDBRANCH  37  39
BRANCH  38  42
HETATM   42  O5  UNL     1      24.534 -16.782 -46.781  1.00  0.00    -0.106 OA
BRANCH  42  43
HETATM   43  O6  UNL     1      23.931 -17.953 -47.029  1.00  0.00    -0.226 OA
ATOM     44  H6  UNL     1      24.070 -18.442 -47.831  1.00  0.00     0.256 HD
ENDBRANCH  42  43
ENDBRANCH  38  42
ENDBRANCH  33  34
ENDBRANCH  31  33
ENDBRANCH  28  29
ENDBRANCH  15  28
BRANCH   8  45
HETATM   45  N6  UNL     1      29.863 -20.726 -39.257  1.00  0.00    -0.383 N
ATOM     46  H62 UNL     1      29.354 -21.609 -39.216  1.00  0.00     0.157 HD
ATOM     47  H61 UNL     1      30.274 -20.309 -38.422  1.00  0.00     0.157 HD
ENDBRANCH   8  45
BRANCH  11  48
HETATM   48  N8  UNL     1      32.540 -18.428 -42.210  1.00  0.00    -0.234 N
ATOM     49  H82 UNL     1      32.837 -18.418 -43.186  1.00  0.00     0.174 HD
ATOM     50  H81 UNL     1      33.157 -18.043 -41.495  1.00  0.00     0.174 HD
ENDBRANCH  11  48
TORSDOF 13
ENDMDL