MODEL 4
REMARK VINA RESULT: -8.685011700      3.694      8.249
REMARK  11 active torsions:
REMARK  status: ('A' for Active; 'I' for Inactive)
REMARK    1  A    between atoms: S1_2  and  C2_3
REMARK    2  A    between atoms: C2_3  and  N1_4
REMARK    3  A    between atoms: C2_3  and  C3_8
REMARK       I    between atoms: C3_8  and  N2_10
REMARK    4  A    between atoms: N2_10  and  C4_12
REMARK    5  A    between atoms: C7_15  and  N3_16
REMARK    6  A    between atoms: C8_19  and  C9_20
REMARK       I    between atoms: C9_20  and  N4_22
REMARK    7  A    between atoms: N4_22  and  N5_24
REMARK    8  A    between atoms: C10_25  and  O5_26
REMARK    9  A    between atoms: C13_30  and  C14_31
REMARK   10  A    between atoms: C15_32  and  O6_33
REMARK       I    between atoms: N6_35  and  C16_36
REMARK   11  A    between atoms: N8_41  and  N9_42
ROOT
HETATM    1  C9  UNL     1      26.420 -16.071 -45.156  1.00  0.00     0.273 C
HETATM    2  O4  UNL     1      26.752 -15.095 -44.467  1.00  0.00    -0.266 OA
HETATM    3  N4  UNL     1      27.307 -16.959 -45.752  1.00  0.00    -0.257 N
ATOM      4  H4  UNL     1      26.862 -17.718 -46.268  1.00  0.00     0.191 HD
ENDROOT
BRANCH   3   5
HETATM    5  N5  UNL     1      28.673 -16.990 -45.767  1.00  0.00    -0.229 N
HETATM    6  C10 UNL     1      29.429 -16.503 -46.787  1.00  0.00     0.162 A
HETATM    7  C11 UNL     1      30.756 -16.730 -46.520  1.00  0.00     0.060 A
HETATM    8  C12 UNL     1      30.783 -17.361 -45.321  1.00  0.00     0.038 A
HETATM    9  C13 UNL     1      29.488 -17.545 -44.807  1.00  0.00     0.092 A
BRANCH   6  10
HETATM   10  O5  UNL     1      29.071 -15.865 -47.956  1.00  0.00    -0.345 OA
ATOM     11  H5  UNL     1      29.237 -14.981 -48.260  1.00  0.00     0.219 HD
ENDBRANCH   6  10
BRANCH   9  12
HETATM   12  C14 UNL     1      29.207 -18.273 -43.586  1.00  0.00     0.141 A
HETATM   13  C15 UNL     1      29.346 -19.547 -43.139  1.00  0.00     0.186 A
HETATM   14  N6  UNL     1      29.104 -19.654 -41.792  1.00  0.00    -0.193 N
HETATM   15  C16 UNL     1      29.140 -20.842 -40.983  1.00  0.00     0.345 C
HETATM   16  C17 UNL     1      28.805 -18.431 -41.381  1.00  0.00     0.358 A
HETATM   17  N7  UNL     1      29.438 -22.077 -41.597  1.00  0.00    -0.039 NA
HETATM   18  O7  UNL     1      28.904 -20.743 -39.750  1.00  0.00    -0.250 OA
HETATM   19  O8  UNL     1      28.511 -18.108 -40.170  1.00  0.00    -0.244 OA
HETATM   20  N8  UNL     1      28.860 -17.598 -42.429  1.00  0.00    -0.205 N
BRANCH  13  21
HETATM   21  O6  UNL     1      29.675 -20.670 -43.870  1.00  0.00    -0.344 OA
ATOM     22  H6  UNL     1      30.480 -20.841 -44.345  1.00  0.00     0.219 HD
ENDBRANCH  13  21
BRANCH  20  23
HETATM   23  N9  UNL     1      28.616 -16.244 -42.248  1.00  0.00    -0.334 N
ATOM     24  H92 UNL     1      28.682 -15.838 -41.314  1.00  0.00     0.177 HD
ATOM     25  H91 UNL     1      28.392 -15.533 -42.944  1.00  0.00     0.177 HD
ENDBRANCH  20  23
ENDBRANCH   9  12
ENDBRANCH   3   5
BRANCH   1  26
HETATM   26  C8  UNL     1      24.933 -16.234 -45.294  1.00  0.00     0.068 A
HETATM   27  C7  UNL     1      24.271 -17.366 -45.055  1.00  0.00     0.118 A
HETATM   28  C6  UNL     1      22.850 -17.336 -45.064  1.00  0.00     0.039 A
HETATM   29  C5  UNL     1      22.216 -16.174 -45.318  1.00  0.00     0.032 A
HETATM   30  C4  UNL     1      22.874 -14.964 -45.581  1.00  0.00     0.035 A
HETATM   31  C18 UNL     1      24.236 -15.051 -45.555  1.00  0.00     0.049 A
BRANCH  27  32
HETATM   32  N3  UNL     1      24.870 -18.631 -44.840  1.00  0.00    -0.115 N
HETATM   33  O2  UNL     1      25.402 -19.253 -45.793  1.00  0.00    -0.532 OA
HETATM   34  O3  UNL     1      24.881 -19.207 -43.612  1.00  0.00    -0.532 OA
ENDBRANCH  27  32
BRANCH  30  35
HETATM   35  N2  UNL     1      22.089 -13.823 -45.841  1.00  0.00    -0.325 N
HETATM   36  C3  UNL     1      21.388 -13.024 -44.928  1.00  0.00     0.263 C
HETATM   37  O1  UNL     1      21.398 -13.278 -43.702  1.00  0.00    -0.270 OA
ATOM     38  H2  UNL     1      22.021 -13.544 -46.820  1.00  0.00     0.169 HD
BRANCH  36  39
HETATM   39  C2  UNL     1      20.595 -11.821 -45.386  1.00  0.00     0.336 C
BRANCH  39  40
HETATM   40  S1  UNL     1      21.275 -11.229 -46.937  1.00  0.00    -0.132 SA
HETATM   41  C1  UNL     1      21.127  -9.459 -47.187  1.00  0.00     0.092 C
ENDBRANCH  39  40
BRANCH  39  42
HETATM   42  N1  UNL     1      19.204 -12.139 -45.565  1.00  0.00    -0.058 N
ATOM     43  H13 UNL     1      18.597 -11.348 -45.350  1.00  0.00     0.276 HD
ATOM     44  H12 UNL     1      18.956 -12.249 -46.548  1.00  0.00     0.276 HD
ATOM     45  H11 UNL     1      18.972 -12.965 -45.013  1.00  0.00     0.276 HD
ENDBRANCH  39  42
ENDBRANCH  36  39
ENDBRANCH  30  35
ENDBRANCH   1  26
TORSDOF 11
ENDMDL