MODEL 3
REMARK VINA RESULT: -8.091352963      1.512      2.398
REMARK  13 active torsions:
REMARK  status: ('A' for Active; 'I' for Inactive)
REMARK    1  A    between atoms: O1_2  and  C2_3
REMARK    2  A    between atoms: C2_3  and  C3_5
REMARK    3  A    between atoms: C3_5  and  C16_39
REMARK    4  A    between atoms: N1_6  and  N2_8
REMARK    5  A    between atoms: N2_8  and  C4_10
REMARK    6  A    between atoms: C4_10  and  C5_15
REMARK    7  A    between atoms: N3_11  and  O3_13
REMARK    8  A    between atoms: C7_21  and  N6_22
REMARK    9  A    between atoms: C11_29  and  N8_30
REMARK   10  A    between atoms: N8_30  and  C12_32
REMARK   11  A    between atoms: C12_32  and  C13_33
REMARK   12  A    between atoms: C13_33  and  N9_34
REMARK       I    between atoms: N9_34  and  C14_36
REMARK   13  A    between atoms: C16_39  and  S1_43
ROOT
HETATM    1  C5  UNL     1      22.021 -12.708 -45.986  1.00  0.00     0.141 A
HETATM    2  N4  UNL     1      21.286 -13.161 -44.981  1.00  0.00    -0.183 N
ATOM      3  H4  UNL     1      21.441 -14.047 -44.500  1.00  0.00     0.184 HD
HETATM    4  C6  UNL     1      20.316 -12.294 -44.685  1.00  0.00     0.693 A
HETATM    5  N5  UNL     1      19.378 -12.395 -43.727  1.00  0.00    -0.176 N
ATOM      6  H5  UNL     1      19.363 -13.225 -43.134  1.00  0.00     0.186 HD
HETATM    7  C7  UNL     1      18.463 -11.441 -43.528  1.00  0.00     0.116 A
HETATM    8  C8  UNL     1      18.559 -10.363 -44.371  1.00  0.00     0.074 A
HETATM    9  C9  UNL     1      19.518 -10.232 -45.369  1.00  0.00     0.036 A
HETATM   10  C10 UNL     1      19.569  -9.003 -46.185  1.00  0.00     0.069 C
HETATM   11  N7  UNL     1      20.413 -11.225 -45.527  1.00  0.00    -0.134 N
HETATM   12  C11 UNL     1      21.452 -11.439 -46.349  1.00  0.00     0.156 A
ENDROOT
BRANCH   1  13
HETATM   13  C4  UNL     1      23.150 -13.380 -46.572  1.00  0.00     0.171 C
HETATM   14  N3  UNL     1      22.973 -14.258 -47.529  1.00  0.00    -0.250 N
ATOM     15  H3  UNL     1      23.762 -14.720 -47.981  1.00  0.00     0.196 HD
BRANCH  13  16
HETATM   16  N2  UNL     1      24.522 -13.144 -46.236  1.00  0.00    -0.281 N
ATOM     17  H2  UNL     1      24.850 -12.178 -46.249  1.00  0.00     0.188 HD
BRANCH  16  18
HETATM   18  N1  UNL     1      25.409 -14.099 -45.906  1.00  0.00    -0.291 N
HETATM   19  C3  UNL     1      25.414 -15.194 -45.287  1.00  0.00     0.164 C
ATOM     20  H1  UNL     1      26.339 -13.873 -46.257  1.00  0.00     0.187 HD
BRANCH  19  21
HETATM   21  C2  UNL     1      26.751 -15.846 -45.235  1.00  0.00     0.314 C
HETATM   22  O2  UNL     1      27.100 -16.819 -45.913  1.00  0.00    -0.257 OA
BRANCH  21  23
HETATM   23  O1  UNL     1      27.736 -15.352 -44.356  1.00  0.00    -0.321 OA
HETATM   24  C1  UNL     1      28.579 -16.251 -43.690  1.00  0.00     0.213 C
ENDBRANCH  21  23
ENDBRANCH  19  21
BRANCH  19  25
HETATM   25  C16 UNL     1      24.249 -15.845 -44.703  1.00  0.00     0.178 C
HETATM   26  N10 UNL     1      23.759 -15.382 -43.618  1.00  0.00    -0.386 N
ATOM     27 2H10 UNL     1      24.208 -14.539 -43.260  1.00  0.00     0.157 HD
ATOM     28 1H10 UNL     1      22.944 -15.839 -43.208  1.00  0.00     0.157 HD
BRANCH  25  29
HETATM   29  S1  UNL     1      23.483 -17.285 -45.313  1.00  0.00     0.156 S
HETATM   30  O5  UNL     1      22.052 -17.327 -44.721  1.00  0.00    -0.590 OA
HETATM   31  O6  UNL     1      24.158 -18.555 -45.014  1.00  0.00    -0.590 OA
HETATM   32  O7  UNL     1      23.231 -17.133 -46.962  1.00  0.00    -0.590 OA
ENDBRANCH  25  29
ENDBRANCH  19  25
ENDBRANCH  16  18
ENDBRANCH  13  16
BRANCH  14  33
HETATM   33  O3  UNL     1      21.682 -14.529 -47.897  1.00  0.00    -0.288 OA
ATOM     34  H3  UNL     1      21.016 -13.905 -47.634  1.00  0.00     0.244 HD
ENDBRANCH  14  33
ENDBRANCH   1  13
BRANCH  12  35
HETATM   35  N8  UNL     1      22.023 -10.692 -47.344  1.00  0.00    -0.372 N
ATOM     36  H8  UNL     1      21.286 -10.487 -48.019  1.00  0.00     0.161 HD
BRANCH  35  37
HETATM   37  C12 UNL     1      23.197 -10.090 -47.829  1.00  0.00     0.141 C
BRANCH  37  38
HETATM   38  C13 UNL     1      22.947  -9.281 -49.131  1.00  0.00     0.142 C
BRANCH  38  39
HETATM   39  N9  UNL     1      21.765  -8.485 -49.006  1.00  0.00    -0.360 N
HETATM   40  C14 UNL     1      20.760  -8.378 -49.981  1.00  0.00     0.213 C
HETATM   41  C15 UNL     1      19.547  -7.515 -49.757  1.00  0.00     0.117 C
HETATM   42  O4  UNL     1      20.790  -8.970 -51.081  1.00  0.00    -0.274 OA
ATOM     43  H9  UNL     1      21.644  -7.955 -48.144  1.00  0.00     0.162 HD
ENDBRANCH  38  39
ENDBRANCH  37  38
ENDBRANCH  35  37
ENDBRANCH  12  35
BRANCH   7  44
HETATM   44  N6  UNL     1      17.572 -11.556 -42.609  1.00  0.00    -0.385 N
ATOM     45  H62 UNL     1      17.498 -10.933 -41.805  1.00  0.00     0.157 HD
ATOM     46  H61 UNL     1      16.874 -12.299 -42.642  1.00  0.00     0.157 HD
ENDBRANCH   7  44
TORSDOF 13
ENDMDL