MODEL 2
REMARK VINA RESULT: -8.637251443      2.849      6.400
REMARK  11 active torsions:
REMARK  status: ('A' for Active; 'I' for Inactive)
REMARK    1  A    between atoms: O1_2  and  C2_3
REMARK    2  A    between atoms: C4_5  and  C5_6
REMARK       I    between atoms: C5_6  and  N1_8
REMARK    3  A    between atoms: N1_8  and  N2_10
REMARK    4  A    between atoms: N2_10  and  C6_12
REMARK    5  A    between atoms: C7_13  and  O3_14
REMARK    6  A    between atoms: N3_16  and  O4_17
REMARK    7  A    between atoms: O4_17  and  C8_18
REMARK    8  A    between atoms: C14_28  and  N5_29
REMARK    9  A    between atoms: N5_29  and  C15_31
REMARK   10  A    between atoms: C15_31  and  C16_32
REMARK   11  A    between atoms: C20_42  and  O10_43
ROOT
HETATM    1  C2  UNL     1      19.881 -10.040 -46.072  1.00  0.00     0.104 A
HETATM    2  C3  UNL     1      20.255 -11.218 -45.426  1.00  0.00     0.057 A
HETATM    3  C4  UNL     1      21.431 -11.852 -45.753  1.00  0.00     0.038 A
HETATM    4  C13 UNL     1      22.206 -11.271 -46.733  1.00  0.00     0.049 A
HETATM    5  C14 UNL     1      21.845 -10.097 -47.386  1.00  0.00     0.065 A
HETATM    6  C20 UNL     1      20.666  -9.473 -47.050  1.00  0.00     0.125 A
ENDROOT
BRANCH   3   7
HETATM    7  C5  UNL     1      21.873 -13.095 -45.104  1.00  0.00     0.270 C
HETATM    8  O2  UNL     1      21.473 -13.316 -43.941  1.00  0.00    -0.266 OA
HETATM    9  N1  UNL     1      22.718 -14.023 -45.752  1.00  0.00    -0.265 N
ATOM     10  H1  UNL     1      23.046 -13.850 -46.701  1.00  0.00     0.190 HD
BRANCH   9  11
HETATM   11  N2  UNL     1      23.096 -15.179 -45.071  1.00  0.00    -0.289 N
ATOM     12  H2  UNL     1      22.424 -15.597 -44.427  1.00  0.00     0.187 HD
BRANCH  11  13
HETATM   13  C6  UNL     1      24.352 -15.806 -45.218  1.00  0.00     0.170 A
HETATM   14  C7  UNL     1      24.481 -17.185 -45.019  1.00  0.00     0.207 A
HETATM   15  N3  UNL     1      25.662 -17.811 -45.150  1.00  0.00    -0.135 N
HETATM   16  C10 UNL     1      26.737 -17.074 -45.482  1.00  0.00     0.358 A
HETATM   17  O6  UNL     1      27.857 -17.643 -45.611  1.00  0.00    -0.244 OA
HETATM   18  N4  UNL     1      26.634 -15.732 -45.681  1.00  0.00    -0.267 N
HETATM   19  C11 UNL     1      27.819 -14.987 -46.037  1.00  0.00     0.165 C
HETATM   20  C12 UNL     1      25.468 -15.075 -45.558  1.00  0.00     0.283 A
HETATM   21  O7  UNL     1      25.393 -13.813 -45.749  1.00  0.00    -0.265 OA
BRANCH  14  22
HETATM   22  O3  UNL     1      23.370 -17.925 -44.680  1.00  0.00    -0.343 OA
ATOM     23  H3  UNL     1      22.936 -18.444 -45.347  1.00  0.00     0.219 HD
ENDBRANCH  14  22
BRANCH  15  24
HETATM   24  O4  UNL     1      25.699 -19.166 -44.935  1.00  0.00    -0.187 OA
BRANCH  24  25
HETATM   25  C8  UNL     1      25.847 -19.663 -43.639  1.00  0.00     0.278 C
HETATM   26  C9  UNL     1      27.181 -19.786 -42.986  1.00  0.00     0.128 C
HETATM   27  O5  UNL     1      24.798 -20.001 -43.043  1.00  0.00    -0.264 OA
ENDBRANCH  24  25
ENDBRANCH  15  24
ENDBRANCH  11  13
ENDBRANCH   9  11
ENDBRANCH   3   7
BRANCH   1  28
HETATM   28  O1  UNL     1      18.690  -9.395 -45.744  1.00  0.00    -0.353 OA
HETATM   29  C1  UNL     1      17.858  -9.976 -44.775  1.00  0.00     0.210 C
ENDBRANCH   1  28
BRANCH   5  30
HETATM   30  N5  UNL     1      22.651  -9.525 -48.408  1.00  0.00    -0.383 N
ATOM     31  H5  UNL     1      22.442  -8.573 -48.710  1.00  0.00     0.160 HD
BRANCH  30  32
HETATM   32  C15 UNL     1      23.736 -10.205 -49.036  1.00  0.00     0.165 C
BRANCH  32  33
HETATM   33  C16 UNL     1      25.023 -10.150 -48.340  1.00  0.00     0.043 A
HETATM   34  C17 UNL     1      25.622 -11.284 -47.854  1.00  0.00     0.107 A
HETATM   35  N6  UNL     1      26.815 -11.195 -47.188  1.00  0.00    -0.318 N
HETATM   36  C18 UNL     1      27.389 -10.004 -47.013  1.00  0.00     0.326 A
ATOM     37  H6  UNL     1      27.264 -12.037 -46.827  1.00  0.00     0.170 HD
HETATM   38  O8  UNL     1      28.494  -9.982 -46.388  1.00  0.00    -0.247 OA
HETATM   39  N7  UNL     1      26.844  -8.860 -47.467  1.00  0.00    -0.275 N
HETATM   40  C19 UNL     1      25.678  -8.935 -48.121  1.00  0.00     0.258 A
ATOM     41  H7  UNL     1      27.305  -7.962 -47.318  1.00  0.00     0.173 HD
HETATM   42  O9  UNL     1      25.121  -7.887 -48.571  1.00  0.00    -0.267 OA
ENDBRANCH  32  33
ENDBRANCH  30  32
ENDBRANCH   5  30
BRANCH   6  43
HETATM   43  O10 UNL     1      20.259  -8.286 -47.678  1.00  0.00    -0.356 OA
ATOM     44  H10 UNL     1      20.609  -7.451 -47.391  1.00  0.00     0.218 HD
ENDBRANCH   6  43
TORSDOF 11
ENDMDL