MODEL 3
REMARK VINA RESULT: -7.924988504      2.306      3.298
REMARK  12 active torsions:
REMARK  status: ('A' for Active; 'I' for Inactive)
REMARK    1  A    between atoms: C2_2  and  C3_3
REMARK    2  A    between atoms: C3_3  and  N1_4
REMARK    3  A    between atoms: C5_10  and  N3_11
REMARK    4  A    between atoms: N3_11  and  N4_13
REMARK    5  A    between atoms: N6_20  and  C7_21
REMARK    6  A    between atoms: C7_21  and  O3_22
REMARK    7  A    between atoms: C7_21  and  C8_24
REMARK    8  A    between atoms: C8_24  and  S2_25
REMARK    9  A    between atoms: S2_25  and  C9_26
REMARK   10  A    between atoms: C10_31  and  C11_32
REMARK   11  A    between atoms: C11_32  and  C12_33
REMARK   12  A    between atoms: C13_35  and  N9_36
ROOT
HETATM    1  C7  UNL     1      28.582 -16.696 -43.449  1.00  0.00     0.134 C
ENDROOT
BRANCH   1   2
HETATM    2  N6  UNL     1      28.555 -18.067 -43.354  1.00  0.00    -0.289 N
HETATM    3  C2  UNL     1      27.631 -19.095 -43.596  1.00  0.00     0.087 C
HETATM    4  C1  UNL     1      28.100 -19.862 -44.825  1.00  0.00     0.044 C
HETATM    5  C4  UNL     1      27.649 -20.042 -42.435  1.00  0.00     0.165 A
HETATM    6  N2  UNL     1      26.956 -19.572 -41.289  1.00  0.00    -0.215 N
HETATM    7  C6  UNL     1      29.026 -20.328 -41.969  1.00  0.00     0.209 A
HETATM    8  C5  UNL     1      27.818 -19.709 -40.169  1.00  0.00     0.689 A
ATOM      9  H2  UNL     1      26.006 -19.201 -41.273  1.00  0.00     0.178 HD
HETATM   10  N5  UNL     1      28.987 -20.136 -40.551  1.00  0.00    -0.208 N
ATOM     11  H5  UNL     1      29.772 -20.310 -39.924  1.00  0.00     0.179 HD
HETATM   12  S1  UNL     1      29.996 -19.006 -42.753  1.00  0.00    -0.022 SA
BRANCH   3  13
HETATM   13  C3  UNL     1      26.260 -18.598 -43.852  1.00  0.00     0.235 C
BRANCH  13  14
HETATM   14  N1  UNL     1      25.302 -19.563 -44.344  1.00  0.00    -0.153 N
HETATM   15  O1  UNL     1      24.885 -20.514 -43.701  1.00  0.00    -0.536 OA
HETATM   16  O2  UNL     1      24.860 -19.386 -45.633  1.00  0.00    -0.536 OA
ENDBRANCH  13  14
ENDBRANCH   3  13
BRANCH   8  17
HETATM   17  N3  UNL     1      27.533 -19.440 -38.794  1.00  0.00    -0.139 N
ATOM     18  H3  UNL     1      28.201 -18.889 -38.255  1.00  0.00     0.205 HD
BRANCH  17  19
HETATM   19  N4  UNL     1      26.381 -19.899 -38.161  1.00  0.00    -0.331 N
ATOM     20  H42 UNL     1      26.142 -20.885 -38.270  1.00  0.00     0.177 HD
ATOM     21  H41 UNL     1      25.781 -19.293 -37.602  1.00  0.00     0.177 HD
ENDBRANCH  17  19
ENDBRANCH   8  17
ENDBRANCH   1   2
BRANCH   1  22
HETATM   22  O3  UNL     1      28.318 -16.065 -42.331  1.00  0.00    -0.348 OA
ATOM     23  H3  UNL     1      28.248 -15.122 -42.416  1.00  0.00     0.219 HD
ENDBRANCH   1  22
BRANCH   1  24
HETATM   24  C8  UNL     1      28.847 -15.782 -44.556  1.00  0.00     0.167 C
BRANCH  24  25
HETATM   25  S2  UNL     1      27.631 -16.035 -45.906  1.00  0.00    -0.084 SA
BRANCH  25  26
HETATM   26  C9  UNL     1      25.972 -15.829 -45.328  1.00  0.00     0.160 A
HETATM   27  N7  UNL     1      25.631 -15.330 -44.116  1.00  0.00    -0.278 N
HETATM   28  N8  UNL     1      24.332 -15.303 -43.990  1.00  0.00    -0.287 N
ATOM     29  H7  UNL     1      26.293 -15.019 -43.404  1.00  0.00     0.189 HD
HETATM   30  C10 UNL     1      23.773 -15.793 -45.134  1.00  0.00     0.102 A
ATOM     31  H8  UNL     1      23.820 -14.972 -43.172  1.00  0.00     0.188 HD
HETATM   32  N12 UNL     1      24.797 -16.102 -45.925  1.00  0.00    -0.324 N
ATOM     33  H12 UNL     1      24.704 -16.494 -46.862  1.00  0.00     0.169 HD
BRANCH  30  34
HETATM   34  C11 UNL     1      22.323 -15.911 -45.347  1.00  0.00     0.127 C
BRANCH  34  35
HETATM   35  C12 UNL     1      21.815 -14.545 -45.746  1.00  0.00     0.034 A
HETATM   36  S3  UNL     1      21.407 -13.205 -44.773  1.00  0.00    -0.055 SA
HETATM   37  C13 UNL     1      20.946 -12.130 -46.012  1.00  0.00     0.143 A
HETATM   38  N10 UNL     1      21.127 -12.850 -47.122  1.00  0.00    -0.325 N
HETATM   39  C14 UNL     1      21.565 -14.073 -47.006  1.00  0.00     0.132 A
ATOM     40  H10 UNL     1      20.926 -12.453 -48.040  1.00  0.00     0.169 HD
HETATM   41  N11 UNL     1      21.799 -14.953 -48.151  1.00  0.00    -0.082 NA
BRANCH  37  42
HETATM   42  N9  UNL     1      20.514 -10.887 -45.935  1.00  0.00    -0.380 N
ATOM     43  H92 UNL     1      19.641 -10.566 -45.517  1.00  0.00     0.158 HD
ATOM     44  H91 UNL     1      20.946 -10.023 -46.264  1.00  0.00     0.158 HD
ENDBRANCH  37  42
ENDBRANCH  34  35
ENDBRANCH  30  34
ENDBRANCH  25  26
ENDBRANCH  24  25
ENDBRANCH   1  24
TORSDOF 12
ENDMDL