MODEL 1
REMARK VINA RESULT: -8.605298703      0.000      0.000
REMARK  12 active torsions:
REMARK  status: ('A' for Active; 'I' for Inactive)
REMARK    1  A    between atoms: C2_2  and  C3_3
REMARK    2  A    between atoms: C3_3  and  N1_4
REMARK    3  A    between atoms: N1_4  and  C4_5
REMARK    4  A    between atoms: C6_15  and  C7_16
REMARK       I    between atoms: C7_16  and  N5_18
REMARK    5  A    between atoms: N5_18  and  C8_20
REMARK    6  A    between atoms: C8_20  and  C9_21
REMARK    7  A    between atoms: C9_21  and  C10_22
REMARK    8  A    between atoms: C11_25  and  C12_26
REMARK    9  A    between atoms: C14_28  and  C15_29
REMARK   10  A    between atoms: C15_29  and  O4_31
REMARK   11  A    between atoms: C18_36  and  N8_37
REMARK   12  A    between atoms: C19_43  and  N11_44
ROOT
HETATM    1  C10 UNL     1      29.026 -17.042 -43.475  1.00  0.00     0.099 A
HETATM    2  N6  UNL     1      28.947 -18.301 -42.947  1.00  0.00    -0.328 N
ATOM      3  H6  UNL     1      29.091 -19.171 -43.458  1.00  0.00     0.169 HD
HETATM    4  C11 UNL     1      28.647 -18.197 -41.641  1.00  0.00     0.149 A
HETATM    5  N13 UNL     1      28.546 -16.889 -41.386  1.00  0.00    -0.282 N
ATOM      6  H13 UNL     1      28.325 -16.490 -40.474  1.00  0.00     0.188 HD
HETATM    7  N14 UNL     1      28.773 -16.181 -42.487  1.00  0.00    -0.287 N
ATOM      8  H14 UNL     1      28.757 -15.164 -42.564  1.00  0.00     0.188 HD
ENDROOT
BRANCH   4   9
HETATM    9  C12 UNL     1      28.477 -19.332 -40.748  1.00  0.00     0.095 C
HETATM   10  C13 UNL     1      29.222 -20.476 -41.033  1.00  0.00     0.055 C
HETATM   11  C14 UNL     1      28.941 -21.796 -40.747  1.00  0.00     0.088 C
HETATM   12  C17 UNL     1      27.742 -22.289 -40.224  1.00  0.00     0.177 A
HETATM   13  N7  UNL     1      27.343 -23.547 -40.382  1.00  0.00    -0.172 N
HETATM   14  N10 UNL     1      26.858 -21.572 -39.519  1.00  0.00    -0.054 N
HETATM   15  C18 UNL     1      26.148 -23.630 -39.744  1.00  0.00     0.693 A
ATOM     16  H7  UNL     1      27.833 -24.292 -40.876  1.00  0.00     0.186 HD
HETATM   17  N9  UNL     1      25.861 -22.422 -39.224  1.00  0.00    -0.110 N
ATOM     18  H9  UNL     1      25.023 -22.189 -38.691  1.00  0.00     0.207 HD
HETATM   19  C19 UNL     1      26.894 -20.265 -39.146  1.00  0.00     0.700 C
HETATM   20  N12 UNL     1      27.633 -19.253 -39.703  1.00  0.00    -0.186 N
ATOM     21  H12 UNL     1      27.531 -18.332 -39.276  1.00  0.00     0.184 HD
BRANCH  11  22
HETATM   22  C15 UNL     1      29.987 -22.767 -41.018  1.00  0.00     0.296 C
HETATM   23  O3  UNL     1      31.145 -22.520 -40.601  1.00  0.00    -0.259 OA
BRANCH  22  24
HETATM   24  O4  UNL     1      29.755 -23.923 -41.702  1.00  0.00    -0.322 OA
HETATM   25  C16 UNL     1      30.457 -25.136 -41.392  1.00  0.00     0.213 C
ENDBRANCH  22  24
ENDBRANCH  11  22
BRANCH  15  26
HETATM   26  N8  UNL     1      25.367 -24.664 -39.624  1.00  0.00    -0.233 N
ATOM     27  H82 UNL     1      25.427 -25.326 -38.850  1.00  0.00     0.174 HD
ATOM     28  H81 UNL     1      24.613 -24.964 -40.243  1.00  0.00     0.174 HD
ENDBRANCH  15  26
BRANCH  19  29
HETATM   29  N11 UNL     1      26.147 -19.957 -38.150  1.00  0.00    -0.233 N
ATOM     30 2H11 UNL     1      26.574 -19.991 -37.224  1.00  0.00     0.174 HD
ATOM     31 1H11 UNL     1      25.186 -19.708 -38.386  1.00  0.00     0.174 HD
ENDBRANCH  19  29
ENDBRANCH   4   9
BRANCH   1  32
HETATM   32  C9  UNL     1      29.329 -16.759 -44.916  1.00  0.00     0.097 C
BRANCH  32  33
HETATM   33  C8  UNL     1      28.358 -15.704 -45.373  1.00  0.00     0.130 C
BRANCH  33  34
HETATM   34  N5  UNL     1      27.111 -16.362 -45.854  1.00  0.00    -0.355 N
HETATM   35  C7  UNL     1      25.892 -15.789 -45.510  1.00  0.00     0.275 C
HETATM   36  O2  UNL     1      25.979 -14.720 -44.775  1.00  0.00    -0.266 OA
ATOM     37  H5  UNL     1      27.150 -17.209 -46.421  1.00  0.00     0.162 HD
BRANCH  35  38
HETATM   38  C6  UNL     1      24.538 -16.184 -45.825  1.00  0.00     0.180 A
HETATM   39  C4  UNL     1      24.052 -17.446 -45.592  1.00  0.00     0.215 A
HETATM   40  N2  UNL     1      22.705 -17.637 -45.892  1.00  0.00    -0.294 N
HETATM   41  C5  UNL     1      21.928 -16.697 -46.368  1.00  0.00     0.243 A
ATOM     42  H2  UNL     1      22.302 -18.561 -45.733  1.00  0.00     0.172 HD
HETATM   43  N3  UNL     1      20.661 -16.906 -46.643  1.00  0.00    -0.364 N
HETATM   44  O1  UNL     1      22.452 -15.504 -46.574  1.00  0.00    -0.200 OA
ATOM     45  H32 UNL     1      20.255 -17.828 -46.483  1.00  0.00     0.159 HD
ATOM     46  H31 UNL     1      20.055 -16.173 -47.013  1.00  0.00     0.159 HD
HETATM   47  N4  UNL     1      23.677 -15.251 -46.322  1.00  0.00    -0.248 N
ATOM     48  H4  UNL     1      24.028 -14.310 -46.501  1.00  0.00     0.195 HD
BRANCH  39  49
HETATM   49  N1  UNL     1      24.634 -18.425 -45.200  1.00  0.00    -0.401 NA
BRANCH  49  50
HETATM   50  C3  UNL     1      25.279 -19.511 -44.766  1.00  0.00     0.157 C
BRANCH  50  51
HETATM   51  C2  UNL     1      25.661 -19.514 -43.269  1.00  0.00     0.055 C
HETATM   52  C1  UNL     1      25.171 -20.752 -42.582  1.00  0.00     0.011 C
ENDBRANCH  50  51
ENDBRANCH  49  50
ENDBRANCH  39  49
ENDBRANCH  35  38
ENDBRANCH  33  34
ENDBRANCH  32  33
ENDBRANCH   1  32
TORSDOF 12
ENDMDL