MODEL 3
REMARK VINA RESULT: -8.188275792      2.182      7.179
REMARK  10 active torsions:
REMARK  status: ('A' for Active; 'I' for Inactive)
REMARK    1  A    between atoms: C3_5  and  N3_6
REMARK    2  A    between atoms: N3_6  and  O1_8
REMARK    3  A    between atoms: C5_12  and  C6_13
REMARK       I    between atoms: C6_13  and  N5_15
REMARK    4  A    between atoms: N5_15  and  C7_17
REMARK    5  A    between atoms: C8_18  and  N6_19
REMARK    6  A    between atoms: N8_28  and  C11_29
REMARK    7  A    between atoms: C11_29  and  C12_30
REMARK       I    between atoms: C12_30  and  N9_32
REMARK    8  A    between atoms: N9_32  and  C13_34
REMARK    9  A    between atoms: C13_34  and  C14_35
REMARK   10  A    between atoms: C13_34  and  C15_38
ROOT
HETATM    1  C7  UNL     1      26.462 -16.698 -44.849  1.00  0.00     0.154 A
HETATM    2  C8  UNL     1      25.216 -16.565 -45.548  1.00  0.00     0.214 A
HETATM    3  C9  UNL     1      24.966 -15.536 -46.414  1.00  0.00     0.286 A
HETATM    4  O5  UNL     1      23.869 -15.416 -47.030  1.00  0.00    -0.265 OA
HETATM    5  N7  UNL     1      25.912 -14.626 -46.619  1.00  0.00    -0.273 N
ATOM      6  H7  UNL     1      25.746 -13.851 -47.261  1.00  0.00     0.173 HD
HETATM    7  C10 UNL     1      27.071 -14.728 -45.984  1.00  0.00     0.331 A
HETATM    8  O6  UNL     1      27.935 -13.842 -46.210  1.00  0.00    -0.246 OA
HETATM    9  N8  UNL     1      27.335 -15.768 -45.103  1.00  0.00    -0.274 N
ENDROOT
BRANCH   1  10
HETATM   10  N5  UNL     1      26.509 -17.708 -43.918  1.00  0.00    -0.305 N
HETATM   11  C6  UNL     1      26.948 -18.992 -43.739  1.00  0.00     0.276 C
HETATM   12  O2  UNL     1      27.365 -19.729 -44.707  1.00  0.00    -0.266 OA
ATOM     13  H5  UNL     1      26.060 -17.388 -43.060  1.00  0.00     0.170 HD
BRANCH  11  14
HETATM   14  C5  UNL     1      27.014 -19.721 -42.454  1.00  0.00     0.131 A
HETATM   15  N1  UNL     1      26.264 -20.681 -41.943  1.00  0.00    -0.332 N
HETATM   16  C1  UNL     1      25.109 -21.352 -42.478  1.00  0.00     0.158 C
HETATM   17  C2  UNL     1      26.725 -21.015 -40.684  1.00  0.00     0.149 A
HETATM   18  N2  UNL     1      26.153 -22.016 -39.852  1.00  0.00    -0.080 NA
HETATM   19  C3  UNL     1      27.803 -20.215 -40.427  1.00  0.00     0.122 A
HETATM   20  C4  UNL     1      28.006 -19.407 -41.497  1.00  0.00     0.110 A
HETATM   21  N4  UNL     1      29.019 -18.454 -41.601  1.00  0.00    -0.097 NA
BRANCH  19  22
HETATM   22  N3  UNL     1      28.545 -20.273 -39.214  1.00  0.00    -0.264 N
ATOM     23  H3  UNL     1      28.103 -20.073 -38.317  1.00  0.00     0.194 HD
BRANCH  22  24
HETATM   24  O1  UNL     1      29.764 -20.577 -39.284  1.00  0.00    -0.289 OA
ATOM     25  H1  UNL     1      30.102 -21.201 -38.653  1.00  0.00     0.244 HD
ENDBRANCH  22  24
ENDBRANCH  19  22
ENDBRANCH  11  14
ENDBRANCH   1  10
BRANCH   2  26
HETATM   26  N6  UNL     1      24.237 -17.551 -45.331  1.00  0.00    -0.106 N
HETATM   27  O3  UNL     1      24.221 -18.563 -46.035  1.00  0.00    -0.531 OA
HETATM   28  O4  UNL     1      23.313 -17.387 -44.348  1.00  0.00    -0.531 OA
ENDBRANCH   2  26
BRANCH   9  29
HETATM   29  C11 UNL     1      28.645 -15.678 -44.535  1.00  0.00     0.238 C
BRANCH  29  30
HETATM   30  C12 UNL     1      29.445 -16.836 -45.078  1.00  0.00     0.237 C
HETATM   31  O7  UNL     1      29.399 -17.156 -46.293  1.00  0.00    -0.272 OA
HETATM   32  N9  UNL     1      30.280 -17.601 -44.227  1.00  0.00    -0.341 N
ATOM     33  H9  UNL     1      30.336 -17.361 -43.238  1.00  0.00     0.163 HD
BRANCH  32  34
HETATM   34  C13 UNL     1      31.055 -18.717 -44.731  1.00  0.00     0.220 C
BRANCH  34  35
HETATM   35  C14 UNL     1      32.389 -18.260 -45.150  1.00  0.00     0.201 C
HETATM   36  O8  UNL     1      32.827 -17.150 -44.785  1.00  0.00    -0.646 OA
HETATM   37  O9  UNL     1      33.161 -19.070 -45.953  1.00  0.00    -0.646 OA
ENDBRANCH  34  35
BRANCH  34  38
HETATM   38  C15 UNL     1      31.134 -19.775 -43.685  1.00  0.00    -0.009 A
HETATM   39  C16 UNL     1      30.518 -21.031 -43.712  1.00  0.00     0.028 A
HETATM   40  C17 UNL     1      30.892 -21.638 -42.522  1.00  0.00     0.088 A
HETATM   41  N10 UNL     1      31.689 -20.789 -41.823  1.00  0.00    -0.375 N
HETATM   42  C18 UNL     1      31.850 -19.642 -42.518  1.00  0.00     0.097 A
ATOM     43  H10 UNL     1      32.103 -20.987 -40.913  1.00  0.00     0.164 HD
ENDBRANCH  34  38
ENDBRANCH  32  34
ENDBRANCH  29  30
ENDBRANCH   9  29
TORSDOF 10
ENDMDL