MODEL 2
REMARK VINA RESULT: -8.506878625      1.401      1.957
REMARK  15 active torsions:
REMARK  status: ('A' for Active; 'I' for Inactive)
REMARK    1  A    between atoms: N2_4  and  N3_6
REMARK    2  A    between atoms: C1_13  and  C2_14
REMARK    3  A    between atoms: C2_14  and  N7_15
REMARK    4  A    between atoms: C2_14  and  C10_29
REMARK    5  A    between atoms: N7_15  and  N8_17
REMARK    6  A    between atoms: N8_17  and  C3_18
REMARK    7  A    between atoms: C5_20  and  C6_21
REMARK    8  A    between atoms: C10_29  and  C11_30
REMARK    9  A    between atoms: C10_29  and  N10_44
REMARK   10  A    between atoms: C11_30  and  C12_32
REMARK   11  A    between atoms: C13_33  and  C14_34
REMARK   12  A    between atoms: C17_37  and  O3_38
REMARK   13  A    between atoms: C18_40  and  O4_41
REMARK   14  A    between atoms: N10_44  and  N11_45
REMARK   15  A    between atoms: N10_44  and  O5_48
ROOT
HETATM    1  C2  UNL     1      25.734 -20.711 -41.462  1.00  0.00     0.139 C
ENDROOT
BRANCH   1   2
HETATM    2  C1  UNL     1      25.351 -21.702 -40.517  1.00  0.00     0.195 A
HETATM    3  N3  UNL     1      25.027 -21.934 -39.316  1.00  0.00    -0.146 N
HETATM    4  N4  UNL     1      24.791 -23.237 -39.088  1.00  0.00    -0.204 N
HETATM    5  N5  UNL     1      24.971 -23.883 -40.204  1.00  0.00    -0.225 N
ATOM      6  H4  UNL     1      24.517 -23.649 -38.195  1.00  0.00     0.212 HD
HETATM    7  N6  UNL     1      25.310 -23.028 -41.112  1.00  0.00    -0.265 N
ATOM      8  H5  UNL     1      24.863 -24.888 -40.339  1.00  0.00     0.210 HD
ATOM      9  H6  UNL     1      25.515 -23.247 -42.086  1.00  0.00     0.190 HD
BRANCH   3  10
HETATM   10  N2  UNL     1      24.776 -21.067 -38.221  1.00  0.00    -0.225 N
HETATM   11  N1  UNL     1      24.367 -19.995 -38.211  1.00  0.00    -0.329 N
ATOM     12  H12 UNL     1      24.156 -19.625 -39.138  1.00  0.00     0.178 HD
ATOM     13  H11 UNL     1      24.186 -19.372 -37.424  1.00  0.00     0.178 HD
ATOM     14  H2  UNL     1      24.993 -21.456 -37.304  1.00  0.00     0.210 HD
ENDBRANCH   3  10
ENDBRANCH   1   2
BRANCH   1  15
HETATM   15  N7  UNL     1      26.044 -19.913 -42.221  1.00  0.00    -0.227 N
ATOM     16  H7  UNL     1      26.938 -19.465 -42.021  1.00  0.00     0.202 HD
BRANCH  15  17
HETATM   17  N8  UNL     1      25.460 -19.481 -43.283  1.00  0.00    -0.297 NA
BRANCH  17  18
HETATM   18  C3  UNL     1      25.083 -18.986 -44.306  1.00  0.00     0.266 A
HETATM   19  C4  UNL     1      24.432 -17.736 -44.466  1.00  0.00     0.108 A
HETATM   20  C5  UNL     1      24.176 -17.562 -45.797  1.00  0.00     0.077 A
HETATM   21  N9  UNL     1      24.650 -18.646 -46.399  1.00  0.00    -0.257 N
HETATM   22  O1  UNL     1      25.173 -19.472 -45.565  1.00  0.00    -0.202 OA
ATOM     23  H9  UNL     1      24.605 -18.805 -47.405  1.00  0.00     0.195 HD
BRANCH  20  24
HETATM   24  C6  UNL     1      23.504 -16.417 -46.438  1.00  0.00     0.033 A
HETATM   25  C7  UNL     1      22.279 -16.451 -47.043  1.00  0.00     0.021 A
HETATM   26  C8  UNL     1      21.827 -15.314 -47.578  1.00  0.00     0.008 A
HETATM   27  C9  UNL     1      22.625 -14.206 -47.480  1.00  0.00     0.050 A
HETATM   28  S1  UNL     1      23.995 -14.810 -46.632  1.00  0.00    -0.100 SA
ENDBRANCH  20  24
ENDBRANCH  17  18
ENDBRANCH  15  17
ENDBRANCH   1  15
BRANCH   1  29
HETATM   29  C10 UNL     1      27.343 -20.343 -40.676  1.00  0.00     0.141 C
BRANCH  29  30
HETATM   30  C11 UNL     1      28.175 -21.405 -41.020  1.00  0.00     0.199 C
HETATM   31  O2  UNL     1      28.082 -22.532 -40.393  1.00  0.00    -0.286 OA
BRANCH  30  32
HETATM   32  C12 UNL     1      29.189 -21.368 -42.068  1.00  0.00     0.058 C
HETATM   33  C13 UNL     1      29.572 -20.527 -42.926  1.00  0.00     0.015 C
BRANCH  33  34
HETATM   34  C14 UNL     1      29.231 -19.193 -43.347  1.00  0.00    -0.033 A
HETATM   35  C15 UNL     1      28.702 -18.973 -44.620  1.00  0.00     0.014 A
HETATM   36  C16 UNL     1      28.246 -17.766 -45.082  1.00  0.00     0.040 A
HETATM   37  C17 UNL     1      28.329 -16.681 -44.177  1.00  0.00     0.098 A
HETATM   38  C18 UNL     1      28.821 -16.846 -42.957  1.00  0.00     0.099 A
HETATM   39  C19 UNL     1      29.279 -18.111 -42.527  1.00  0.00     0.050 A
BRANCH  37  40
HETATM   40  O3  UNL     1      27.867 -15.438 -44.635  1.00  0.00    -0.358 OA
ATOM     41  H3  UNL     1      27.439 -14.879 -43.999  1.00  0.00     0.217 HD
ENDBRANCH  37  40
BRANCH  38  42
HETATM   42  O4  UNL     1      28.919 -15.787 -42.013  1.00  0.00    -0.358 OA
ATOM     43  H4  UNL     1      29.576 -15.104 -42.068  1.00  0.00     0.217 HD
ENDBRANCH  38  42
ENDBRANCH  33  34
ENDBRANCH  30  32
ENDBRANCH  29  30
BRANCH  29  44
HETATM   44  N10 UNL     1      27.024 -19.566 -39.659  1.00  0.00    -0.071 NA
BRANCH  44  45
HETATM   45  N11 UNL     1      27.477 -19.923 -38.370  1.00  0.00    -0.336 NA
ATOM     46 2H11 UNL     1      28.447 -19.610 -38.373  1.00  0.00     0.173 HD
ATOM     47 1H11 UNL     1      27.377 -20.893 -38.070  1.00  0.00     0.173 HD
ENDBRANCH  44  45
BRANCH  44  48
HETATM   48  O5  UNL     1      27.503 -18.243 -39.810  1.00  0.00    -0.289 OA
ATOM     49  H5  UNL     1      27.015 -17.748 -40.456  1.00  0.00     0.239 HD
ENDBRANCH  44  48
ENDBRANCH  29  44
ENDBRANCH   1  29
TORSDOF 15
ENDMDL