MODEL 4
REMARK VINA RESULT: -8.670362645      1.394      1.856
REMARK  13 active torsions:
REMARK  status: ('A' for Active; 'I' for Inactive)
REMARK    1  A    between atoms: C1_4  and  C2_6
REMARK    2  A    between atoms: C3_7  and  C4_8
REMARK    3  A    between atoms: C4_8  and  N3_9
REMARK    4  A    between atoms: N3_9  and  O1_11
REMARK    5  A    between atoms: O1_11  and  C5_12
REMARK    6  A    between atoms: C5_12  and  C6_13
REMARK    7  A    between atoms: C5_12  and  C12_33
REMARK       I    between atoms: C6_13  and  N4_15
REMARK    8  A    between atoms: N4_15  and  C7_17
REMARK    9  A    between atoms: C9_24  and  N7_25
REMARK   10  A    between atoms: C11_29  and  N8_30
REMARK   11  A    between atoms: C15_36  and  O7_37
REMARK   12  A    between atoms: C16_39  and  O8_40
REMARK   13  A    between atoms: N10_46  and  O10_47
ROOT
HETATM    1  C5  UNL     1      21.219 -11.664 -47.060  1.00  0.00     0.277 C
ENDROOT
BRANCH   1   2
HETATM    2  O1  UNL     1      21.932 -10.532 -47.451  1.00  0.00    -0.261 OA
BRANCH   2   3
HETATM    3  N3  UNL     1      22.989 -10.467 -48.282  1.00  0.00    -0.274 N
ATOM      4  H3  UNL     1      22.806 -10.630 -49.272  1.00  0.00     0.193 HD
BRANCH   3   5
HETATM    5  C4  UNL     1      24.220 -10.216 -47.948  1.00  0.00     0.148 C
BRANCH   5   6
HETATM    6  C3  UNL     1      25.159 -11.323 -47.961  1.00  0.00     0.108 A
HETATM    7  C2  UNL     1      25.749 -11.922 -49.020  1.00  0.00     0.160 A
HETATM    8  N10 UNL     1      26.541 -12.903 -48.514  1.00  0.00    -0.096 N
HETATM    9  O9  UNL     1      26.436 -12.898 -47.220  1.00  0.00    -0.127 OA
HETATM   10  N9  UNL     1      25.617 -11.966 -46.843  1.00  0.00    -0.236 N
ATOM     11  H9  UNL     1      25.359 -11.750 -45.880  1.00  0.00     0.197 HD
BRANCH   7  12
HETATM   12  C1  UNL     1      25.596 -11.613 -50.429  1.00  0.00     0.144 C
HETATM   13  N1  UNL     1      26.561 -11.301 -51.193  1.00  0.00    -0.386 N
ATOM     14  H12 UNL     1      26.454 -11.083 -52.184  1.00  0.00     0.157 HD
ATOM     15  H11 UNL     1      27.500 -11.265 -50.794  1.00  0.00     0.157 HD
HETATM   16  N2  UNL     1      24.292 -11.663 -50.983  1.00  0.00    -0.081 NA
ENDBRANCH   7  12
BRANCH   8  17
HETATM   17  O10 UNL     1      27.328 -13.764 -49.242  1.00  0.00    -0.261 OA
ATOM     18  H10 UNL     1      27.928 -13.520 -49.936  1.00  0.00     0.247 HD
ENDBRANCH   8  17
ENDBRANCH   5   6
ENDBRANCH   3   5
ENDBRANCH   2   3
ENDBRANCH   1   2
BRANCH   1  19
HETATM   19  C6  UNL     1      22.188 -12.690 -46.472  1.00  0.00     0.259 C
HETATM   20  O2  UNL     1      22.797 -12.330 -45.460  1.00  0.00    -0.270 OA
HETATM   21  N4  UNL     1      22.320 -13.930 -47.091  1.00  0.00    -0.308 N
ATOM     22  H4  UNL     1      21.770 -14.072 -47.938  1.00  0.00     0.170 HD
BRANCH  21  23
HETATM   23  C7  UNL     1      23.121 -15.007 -46.684  1.00  0.00     0.143 A
HETATM   24  N5  UNL     1      24.353 -14.870 -46.163  1.00  0.00    -0.325 N
HETATM   25  C8  UNL     1      25.132 -15.882 -45.711  1.00  0.00     0.134 A
ATOM     26  H5  UNL     1      24.734 -13.925 -46.105  1.00  0.00     0.169 HD
HETATM   27  N6  UNL     1      26.324 -15.637 -45.221  1.00  0.00    -0.383 N
HETATM   28  C9  UNL     1      24.653 -17.169 -45.773  1.00  0.00     0.148 A
ATOM     29  H62 UNL     1      26.679 -14.681 -45.175  1.00  0.00     0.157 HD
ATOM     30  H61 UNL     1      26.910 -16.399 -44.880  1.00  0.00     0.157 HD
HETATM   31  C10 UNL     1      23.412 -17.373 -46.289  1.00  0.00     0.080 A
HETATM   32  C11 UNL     1      22.610 -16.309 -46.760  1.00  0.00     0.149 A
BRANCH  28  33
HETATM   33  N7  UNL     1      25.411 -18.282 -45.315  1.00  0.00    -0.112 N
HETATM   34  O3  UNL     1      24.913 -18.998 -44.423  1.00  0.00    -0.532 OA
HETATM   35  O4  UNL     1      26.651 -18.541 -45.854  1.00  0.00    -0.532 OA
ENDBRANCH  28  33
BRANCH  32  36
HETATM   36  N8  UNL     1      21.339 -16.621 -47.279  1.00  0.00    -0.112 N
HETATM   37  O5  UNL     1      21.092 -16.137 -48.441  1.00  0.00    -0.532 OA
HETATM   38  O6  UNL     1      20.330 -17.354 -46.763  1.00  0.00    -0.532 OA
ENDBRANCH  32  36
ENDBRANCH  21  23
ENDBRANCH   1  19
BRANCH   1  39
HETATM   39  C12 UNL     1      20.238 -11.360 -46.002  1.00  0.00    -0.015 A
HETATM   40  C13 UNL     1      19.848 -10.052 -45.778  1.00  0.00     0.013 A
HETATM   41  C14 UNL     1      18.930  -9.742 -44.797  1.00  0.00     0.040 A
HETATM   42  C15 UNL     1      18.358 -10.709 -43.995  1.00  0.00     0.098 A
HETATM   43  C16 UNL     1      18.760 -12.021 -44.229  1.00  0.00     0.099 A
HETATM   44  C17 UNL     1      19.672 -12.332 -45.205  1.00  0.00     0.049 A
BRANCH  42  45
HETATM   45  O7  UNL     1      17.435 -10.398 -43.005  1.00  0.00    -0.358 OA
ATOM     46  H7  UNL     1      17.640 -10.470 -42.080  1.00  0.00     0.217 HD
ENDBRANCH  42  45
BRANCH  43  47
HETATM   47  O8  UNL     1      18.182 -12.997 -43.418  1.00  0.00    -0.358 OA
ATOM     48  H8  UNL     1      17.300 -13.266 -43.648  1.00  0.00     0.217 HD
ENDBRANCH  43  47
ENDBRANCH   1  39
TORSDOF 13
ENDMDL