MODEL 5
REMARK VINA RESULT: -8.703230096      2.423      3.223
REMARK  13 active torsions:
REMARK  status: ('A' for Active; 'I' for Inactive)
REMARK    1  A    between atoms: N1_2  and  N2_3
REMARK    2  A    between atoms: N1_2  and  C2_6
REMARK    3  A    between atoms: C2_6  and  O1_7
REMARK    4  A    between atoms: C2_6  and  N3_9
REMARK    5  A    between atoms: N3_9  and  N4_10
REMARK       I    between atoms: N4_10  and  C3_11
REMARK    6  A    between atoms: C3_11  and  C4_13
REMARK    7  A    between atoms: N7_17  and  C5_18
REMARK    8  A    between atoms: C7_28  and  C8_29
REMARK    9  A    between atoms: C8_29  and  S1_30
REMARK   10  A    between atoms: S1_30  and  C9_31
REMARK   11  A    between atoms: C9_31  and  C10_32
REMARK   12  A    between atoms: C11_37  and  C12_38
REMARK   13  A    between atoms: C15_41  and  O4_42
ROOT
HETATM    1  C4  UNL     1      26.352 -18.269 -44.378  1.00  0.00     0.157 A
HETATM    2  N5  UNL     1      27.403 -17.563 -43.843  1.00  0.00    -0.276 N
ATOM      3  H5  UNL     1      28.055 -17.922 -43.145  1.00  0.00     0.184 HD
HETATM    4  N6  UNL     1      27.444 -16.344 -44.369  1.00  0.00    -0.013 NA
HETATM    5  N7  UNL     1      26.416 -16.259 -45.238  1.00  0.00    -0.220 N
HETATM    6  C7  UNL     1      25.776 -17.468 -45.237  1.00  0.00     0.078 A
ENDROOT
BRANCH   6   7
HETATM    7  C8  UNL     1      24.602 -17.819 -46.079  1.00  0.00     0.140 C
BRANCH   7   8
HETATM    8  S1  UNL     1      23.062 -17.274 -45.142  1.00  0.00    -0.132 SA
BRANCH   8   9
HETATM    9  C9  UNL     1      21.836 -16.648 -46.246  1.00  0.00     0.095 C
BRANCH   9  10
HETATM   10  C10 UNL     1      21.843 -15.253 -46.737  1.00  0.00     0.127 A
HETATM   11  N11 UNL     1      22.480 -14.486 -47.584  1.00  0.00    -0.283 N
HETATM   12  N12 UNL     1      22.095 -13.193 -47.417  1.00  0.00    -0.283 N
ATOM     13  H11 UNL     1      23.163 -14.810 -48.268  1.00  0.00     0.188 HD
HETATM   14  C11 UNL     1      21.189 -13.113 -46.443  1.00  0.00     0.132 A
ATOM     15  H12 UNL     1      22.447 -12.402 -47.957  1.00  0.00     0.188 HD
HETATM   16  N13 UNL     1      21.040 -14.366 -46.034  1.00  0.00    -0.325 N
ATOM     17  H13 UNL     1      20.405 -14.647 -45.286  1.00  0.00     0.169 HD
BRANCH  14  18
HETATM   18  C12 UNL     1      20.417 -11.951 -45.957  1.00  0.00     0.009 A
HETATM   19  C13 UNL     1      20.624 -10.670 -46.291  1.00  0.00     0.018 A
HETATM   20  C14 UNL     1      19.720  -9.674 -45.892  1.00  0.00     0.037 A
HETATM   21  C15 UNL     1      18.587  -9.960 -45.155  1.00  0.00     0.065 A
HETATM   22  C16 UNL     1      18.386 -11.279 -44.811  1.00  0.00     0.037 A
HETATM   23  C17 UNL     1      19.267 -12.230 -45.195  1.00  0.00     0.018 A
BRANCH  21  24
HETATM   24  O4  UNL     1      17.665  -9.017 -44.764  1.00  0.00    -0.361 OA
ATOM     25  H4  UNL     1      17.307  -8.956 -43.887  1.00  0.00     0.217 HD
ENDBRANCH  21  24
ENDBRANCH  14  18
ENDBRANCH   9  10
ENDBRANCH   8   9
ENDBRANCH   7   8
ENDBRANCH   6   7
BRANCH   1  26
HETATM   26  C3  UNL     1      25.914 -19.603 -43.653  1.00  0.00     0.380 C
HETATM   27  N4  UNL     1      26.740 -19.516 -42.513  1.00  0.00    -0.198 NA
HETATM   28  O2  UNL     1      25.127 -20.255 -44.127  1.00  0.00    -0.246 OA
BRANCH  27  29
HETATM   29  N3  UNL     1      27.426 -19.501 -41.506  1.00  0.00    -0.197 NA
BRANCH  29  30
HETATM   30  C2  UNL     1      28.158 -19.535 -40.321  1.00  0.00     0.350 C
BRANCH  30  31
HETATM   31  N1  UNL     1      29.408 -19.905 -39.932  1.00  0.00    -0.253 N
HETATM   32  C1  UNL     1      30.543 -18.982 -40.306  1.00  0.00     0.182 C
BRANCH  31  33
HETATM   33  N2  UNL     1      29.792 -20.995 -39.183  1.00  0.00    -0.339 N
ATOM     34  H22 UNL     1      30.732 -21.342 -38.993  1.00  0.00     0.177 HD
ATOM     35  H21 UNL     1      29.014 -21.540 -38.810  1.00  0.00     0.177 HD
ENDBRANCH  31  33
ENDBRANCH  30  31
BRANCH  30  36
HETATM   36  O1  UNL     1      27.413 -19.050 -39.291  1.00  0.00    -0.318 OA
ATOM     37  H1  UNL     1      26.516 -18.866 -39.545  1.00  0.00     0.222 HD
ENDBRANCH  30  36
ENDBRANCH  29  30
ENDBRANCH  27  29
ENDBRANCH   1  26
BRANCH   5  38
HETATM   38  C5  UNL     1      25.919 -15.008 -45.637  1.00  0.00     0.193 A
HETATM   39  N8  UNL     1      24.892 -14.211 -45.439  1.00  0.00    -0.221 N
HETATM   40  O3  UNL     1      25.036 -13.111 -46.176  1.00  0.00    -0.153 OA
ATOM     41  H8  UNL     1      24.107 -14.405 -44.818  1.00  0.00     0.198 HD
HETATM   42  N9  UNL     1      26.125 -13.119 -46.874  1.00  0.00    -0.222 N
HETATM   43  C6  UNL     1      26.708 -14.259 -46.578  1.00  0.00     0.169 A
ATOM     44  H9  UNL     1      26.458 -12.397 -47.513  1.00  0.00     0.198 HD
HETATM   45  N10 UNL     1      27.834 -14.722 -47.043  1.00  0.00    -0.381 N
ATOM     46 2H10 UNL     1      28.286 -15.606 -46.814  1.00  0.00     0.157 HD
ATOM     47 1H10 UNL     1      28.393 -14.191 -47.711  1.00  0.00     0.157 HD
ENDBRANCH   5  38
TORSDOF 13
ENDMDL