MODEL 2
REMARK VINA RESULT: -4.471402490      1.249      1.534
REMARK  3 active torsions:
REMARK  status: ('A' for Active; 'I' for Inactive)
REMARK    1  A    between atoms: N1_1  and  C1_5
REMARK    2  A    between atoms: C1_5  and  C2_6
REMARK    3  A    between atoms: C3_7  and  C4_8
ROOT
HETATM    1  C4  UNL     1     -15.815  16.128  -5.008  1.00  0.00     0.301 C
HETATM    2  N2  UNL     1     -15.306  14.813  -4.615  1.00  0.00    -0.027 N
ATOM      3  H21 UNL     1     -14.794  14.677  -3.743  1.00  0.00     0.281 HD
ATOM      4  H22 UNL     1     -14.525  14.375  -5.102  1.00  0.00     0.281 HD
HETATM    5  C5  UNL     1     -16.668  14.340  -4.780  1.00  0.00     0.418 A
HETATM    6  N3  UNL     1     -17.568  14.747  -3.755  1.00  0.00    -0.033 N
ATOM      7  H31 UNL     1     -17.513  14.697  -2.738  1.00  0.00     0.280 HD
ATOM      8  H32 UNL     1     -18.471  14.381  -3.454  1.00  0.00     0.280 HD
HETATM    9  C6  UNL     1     -17.216  15.770  -4.679  1.00  0.00     0.288 A
ENDROOT
BRANCH   1  10
HETATM   10  C3  UNL     1     -15.215  17.226  -4.299  1.00  0.00    -0.069 C
HETATM   11  C2  UNL     1     -14.706  18.127  -3.694  1.00  0.00    -0.077 C
BRANCH  11  12
HETATM   12  C1  UNL     1     -14.072  19.212  -2.943  1.00  0.00     0.323 C
BRANCH  12  13
HETATM   13  N1  UNL     1     -13.435  18.628  -1.775  1.00  0.00    -0.069 N
ATOM     14  H13 UNL     1     -13.150  19.327  -1.089  1.00  0.00     0.275 HD
ATOM     15  H12 UNL     1     -14.088  18.117  -1.183  1.00  0.00     0.275 HD
ATOM     16  H11 UNL     1     -12.659  18.052  -2.100  1.00  0.00     0.275 HD
ENDBRANCH  12  13
ENDBRANCH  11  12
ENDBRANCH   1  10
TORSDOF 3
ENDMDL