MODEL 1
REMARK VINA RESULT: -4.771734177      0.000      0.000
REMARK  5 active torsions:
REMARK  status: ('A' for Active; 'I' for Inactive)
REMARK    1  A    between atoms: N1_1  and  C1_4
REMARK    2  A    between atoms: C2_5  and  C3_6
REMARK    3  A    between atoms: C4_7  and  C5_8
REMARK    4  A    between atoms: C6_9  and  C7_10
REMARK    5  A    between atoms: C7_10  and  N2_11
ROOT
HETATM    1  C3  UNL     1     -15.787  16.759  -3.951  1.00  0.00     0.001 C
HETATM    2  C4  UNL     1     -16.573  16.222  -4.711  1.00  0.00    -0.001 C
ENDROOT
BRANCH   2   3
HETATM    3  C5  UNL     1     -17.505  15.614  -5.593  1.00  0.00    -0.013 C
HETATM    4  C6  UNL     1     -18.311  15.113  -6.348  1.00  0.00    -0.065 C
BRANCH   4   5
HETATM    5  C7  UNL     1     -19.284  14.531  -7.268  1.00  0.00     0.324 C
BRANCH   5   6
HETATM    6  N2  UNL     1     -20.520  14.335  -6.580  1.00  0.00    -0.069 N
ATOM      7  H23 UNL     1     -20.661  13.364  -6.305  1.00  0.00     0.275 HD
ATOM      8  H22 UNL     1     -20.516  14.750  -5.648  1.00  0.00     0.275 HD
ATOM      9  H21 UNL     1     -21.283  14.688  -7.158  1.00  0.00     0.275 HD
ENDBRANCH   5   6
ENDBRANCH   4   5
ENDBRANCH   2   3
BRANCH   1  10
HETATM   10  C2  UNL     1     -14.884  17.403  -3.068  1.00  0.00     0.009 C
HETATM   11  C1  UNL     1     -14.094  17.954  -2.325  1.00  0.00     0.017 C
BRANCH  11  12
HETATM   12  N1  UNL     1     -13.172  18.582  -1.485  1.00  0.00    -0.359 N
ATOM     13  H12 UNL     1     -13.563  18.599  -2.427  1.00  0.00     0.166 HD
ATOM     14  H11 UNL     1     -12.502  19.032  -0.860  1.00  0.00     0.166 HD
ENDBRANCH  11  12
ENDBRANCH   1  10
TORSDOF 5
ENDMDL