MODEL 3
REMARK VINA RESULT: -5.259115676      1.758      1.758
REMARK  4 active torsions:
REMARK  status: ('A' for Active; 'I' for Inactive)
REMARK       I    between atoms: C2_2  and  N1_4
REMARK    1  A    between atoms: N1_4  and  C3_6
REMARK    2  A    between atoms: C3_6  and  O2_7
REMARK    3  A    between atoms: C3_6  and  N2_9
REMARK    4  A    between atoms: N2_9  and  N3_11
ROOT
HETATM    1  C3  UNL     1     -14.981  15.872  -1.839  1.00  0.00     0.239 C
ENDROOT
BRANCH   1   2
HETATM    2  N1  UNL     1     -15.332  15.402  -3.113  1.00  0.00    -0.292 N
HETATM    3  C2  UNL     1     -15.605  16.154  -4.258  1.00  0.00     0.220 C
HETATM    4  C1  UNL     1     -15.965  15.504  -5.546  1.00  0.00     0.117 C
HETATM    5  O1  UNL     1     -15.561  17.394  -4.257  1.00  0.00    -0.274 OA
ATOM      6  H1  UNL     1     -15.395  14.389  -3.216  1.00  0.00     0.172 HD
ENDBRANCH   1   2
BRANCH   1   7
HETATM    7  O2  UNL     1     -15.748  15.508  -0.852  1.00  0.00    -0.331 OA
ATOM      8  H2  UNL     1     -16.549  16.003  -0.732  1.00  0.00     0.221 HD
ENDBRANCH   1   7
BRANCH   1   9
HETATM    9  N2  UNL     1     -13.886  16.696  -1.525  1.00  0.00    -0.251 N
ATOM     10  H2  UNL     1     -12.994  16.287  -1.248  1.00  0.00     0.192 HD
BRANCH   9  11
HETATM   11  N3  UNL     1     -14.039  18.095  -1.600  1.00  0.00    -0.246 N
HETATM   12  N4  UNL     1     -13.490  18.711  -2.549  1.00  0.00    -0.331 N
ATOM     13  H42 UNL     1     -12.949  18.194  -3.242  1.00  0.00     0.178 HD
ATOM     14  H41 UNL     1     -13.601  19.724  -2.603  1.00  0.00     0.178 HD
ATOM     15  H3  UNL     1     -14.583  18.597  -0.899  1.00  0.00     0.208 HD
ENDBRANCH   9  11
ENDBRANCH   1   9
TORSDOF 4
ENDMDL