MODEL 4
REMARK VINA RESULT: -4.667438608      4.301      5.058
REMARK  2 active torsions:
REMARK  status: ('A' for Active; 'I' for Inactive)
REMARK    1  A    between atoms: C4_4  and  C5_5
REMARK    2  A    between atoms: C6_9  and  O1_10
ROOT
HETATM    1  C1  UNL     1     -15.558  14.180  -4.238  1.00  0.00     0.027 C
HETATM    2  C2  UNL     1     -16.621  14.553  -4.677  1.00  0.00    -0.026 C
HETATM    3  C3  UNL     1     -17.867  15.016  -5.197  1.00  0.00    -0.014 C
HETATM    4  C4  UNL     1     -18.912  15.424  -5.642  1.00  0.00    -0.055 C
ENDROOT
BRANCH   4   5
HETATM    5  C5  UNL     1     -20.172  15.944  -6.178  1.00  0.00     0.324 A
HETATM    6  N1  UNL     1     -20.523  15.593  -7.562  1.00  0.00    -0.027 N
HETATM    7  C6  UNL     1     -20.051  16.939  -7.315  1.00  0.00     0.363 A
ATOM      8  H12 UNL     1     -20.227  14.850  -8.195  1.00  0.00     0.282 HD
ATOM      9  H11 UNL     1     -21.363  15.212  -7.998  1.00  0.00     0.282 HD
BRANCH   7  10
HETATM   10  O1  UNL     1     -20.909  18.009  -7.387  1.00  0.00    -0.367 OA
ATOM     11  H1  UNL     1     -20.565  18.894  -7.420  1.00  0.00     0.212 HD
ENDBRANCH   7  10
ENDBRANCH   4   5
TORSDOF 2
ENDMDL