MODEL 4
REMARK VINA RESULT: -3.862438915      3.356      4.200
REMARK  1 active torsions:
REMARK  status: ('A' for Active; 'I' for Inactive)
REMARK    1  A    between atoms: C3_3  and  O1_4
ROOT
HETATM    1  C1  UNL     1     -15.621  14.236  -4.122  1.00  0.00     0.046 C
HETATM    2  C2  UNL     1     -16.574  14.602  -5.207  1.00  0.00     0.252 C
HETATM    3  C3  UNL     1     -17.992  14.875  -4.809  1.00  0.00     0.271 C
HETATM    4  N1  UNL     1     -17.919  15.912  -5.831  1.00  0.00    -0.013 NA
HETATM    5  N2  UNL     1     -16.516  15.935  -5.720  1.00  0.00     0.013 N
HETATM    6  C4  UNL     1     -15.801  15.986  -6.964  1.00  0.00     0.297 C
HETATM    7  C5  UNL     1     -16.090  16.969  -4.831  1.00  0.00     0.297 C
ENDROOT
BRANCH   3   8
HETATM    8  O1  UNL     1     -18.174  15.319  -3.521  1.00  0.00    -0.376 OA
ATOM      9  H1  UNL     1     -18.641  16.142  -3.432  1.00  0.00     0.211 HD
ENDBRANCH   3   8
TORSDOF 1
ENDMDL