MODEL 4
REMARK VINA RESULT: -4.123689836      1.783      2.628
REMARK  2 active torsions:
REMARK  status: ('A' for Active; 'I' for Inactive)
REMARK    1  A    between atoms: O1_1  and  C1_3
REMARK    2  A    between atoms: C1_3  and  C2_4
ROOT
HETATM    1  C2  UNL     1     -16.805  15.181  -3.095  1.00  0.00     0.081 A
HETATM    2  C3  UNL     1     -17.857  15.250  -4.180  1.00  0.00     0.138 C
HETATM    3  N1  UNL     1     -16.725  15.682  -5.000  1.00  0.00    -0.245 NA
HETATM    4  C4  UNL     1     -15.711  14.635  -5.209  1.00  0.00     0.131 C
HETATM    5  C5  UNL     1     -15.524  14.770  -3.691  1.00  0.00     0.117 A
HETATM    6  N2  UNL     1     -16.110  16.177  -3.843  1.00  0.00    -0.227 NA
ENDROOT
BRANCH   1   7
HETATM    7  C1  UNL     1     -17.114  15.303  -1.672  1.00  0.00     0.194 C
BRANCH   7   8
HETATM    8  O1  UNL     1     -18.488  15.178  -1.459  1.00  0.00    -0.399 OA
ATOM      9  H1  UNL     1     -18.769  15.754  -0.757  1.00  0.00     0.209 HD
ENDBRANCH   7   8
ENDBRANCH   1   7
TORSDOF 2
ENDMDL