MODEL 2
REMARK VINA RESULT: -4.433976200      3.418      4.509
REMARK  2 active torsions:
REMARK  status: ('A' for Active; 'I' for Inactive)
REMARK    1  A    between atoms: C3_5  and  O2_6
REMARK    2  A    between atoms: C4_8  and  O3_9
ROOT
HETATM    1  C1  UNL     1     -18.963  15.318  -5.628  1.00  0.00     0.357 C
HETATM    2  N1  UNL     1     -17.554  15.396  -5.298  1.00  0.00     0.029 N
HETATM    3  O1  UNL     1     -16.712  15.935  -6.198  1.00  0.00    -0.064 OA
HETATM    4  C2  UNL     1     -17.281  15.560  -3.892  1.00  0.00     0.328 A
HETATM    5  C3  UNL     1     -15.870  15.604  -3.390  1.00  0.00     0.191 A
HETATM    6  C4  UNL     1     -15.620  14.285  -4.081  1.00  0.00     0.191 A
HETATM    7  C5  UNL     1     -17.056  14.291  -4.522  1.00  0.00     0.328 A
ENDROOT
BRANCH   5   8
HETATM    8  O2  UNL     1     -15.056  16.584  -3.921  1.00  0.00    -0.390 OA
ATOM      9  H2  UNL     1     -14.252  16.770  -3.451  1.00  0.00     0.210 HD
ENDBRANCH   5   8
BRANCH   6  10
HETATM   10  O3  UNL     1     -14.675  14.322  -5.097  1.00  0.00    -0.390 OA
ATOM     11  H3  UNL     1     -14.653  13.554  -5.656  1.00  0.00     0.210 HD
ENDBRANCH   6  10
TORSDOF 2
ENDMDL