MODEL 2
REMARK VINA RESULT: -5.227954037      2.958      5.156
REMARK  3 active torsions:
REMARK  status: ('A' for Active; 'I' for Inactive)
REMARK    1  A    between atoms: C4_4  and  C5_5
REMARK    2  A    between atoms: C5_5  and  N1_6
REMARK    3  A    between atoms: C5_5  and  O1_10
ROOT
HETATM    1  C1  UNL     1     -20.533  15.443  -6.527  1.00  0.00     0.027 C
HETATM    2  C2  UNL     1     -19.433  15.410  -6.016  1.00  0.00    -0.026 C
HETATM    3  C3  UNL     1     -18.156  15.367  -5.403  1.00  0.00    -0.010 C
HETATM    4  C4  UNL     1     -17.064  15.343  -4.861  1.00  0.00    -0.011 C
ENDROOT
BRANCH   4   5
HETATM    5  C5  UNL     1     -15.760  15.336  -4.199  1.00  0.00     0.353 C
HETATM    6  C6  UNL     1     -15.914  15.412  -2.730  1.00  0.00    -0.036 C
HETATM    7  C7  UNL     1     -16.049  15.456  -1.530  1.00  0.00     0.018 C
BRANCH   5   8
HETATM    8  N1  UNL     1     -15.004  14.160  -4.500  1.00  0.00    -0.023 N
ATOM      9  H13 UNL     1     -15.357  13.700  -5.339  1.00  0.00     0.280 HD
ATOM     10  H12 UNL     1     -14.067  14.399  -4.828  1.00  0.00     0.280 HD
ATOM     11  H11 UNL     1     -14.964  13.512  -3.714  1.00  0.00     0.280 HD
ENDBRANCH   5   8
BRANCH   5  12
HETATM   12  O1  UNL     1     -15.066  16.479  -4.583  1.00  0.00    -0.346 OA
ATOM     13  H1  UNL     1     -14.160  16.386  -4.314  1.00  0.00     0.214 HD
ENDBRANCH   5  12
ENDBRANCH   4   5
TORSDOF 3
ENDMDL