MODEL 2
REMARK VINA RESULT: -4.772377292      1.909      4.098
REMARK  0 active torsions:
REMARK  status: ('A' for Active; 'I' for Inactive)
REMARK       I    between atoms: C2_4  and  N3_6
REMARK       I    between atoms: C3_8  and  N5_10
ROOT
HETATM    1  C1  UNL     1     -14.099  17.940  -2.323  1.00  0.00     0.148 C
HETATM    2  N1  UNL     1     -15.100  17.114  -2.957  1.00  0.00    -0.369 N
ATOM      3  H1  UNL     1     -15.418  17.331  -3.901  1.00  0.00     0.161 HD
HETATM    4  C2  UNL     1     -15.586  16.109  -2.329  1.00  0.00     0.190 C
HETATM    5  N2  UNL     1     -15.149  15.808  -1.026  1.00  0.00    -0.063 NA
HETATM    6  N3  UNL     1     -16.571  15.288  -2.941  1.00  0.00    -0.305 N
ATOM      7  H3  UNL     1     -17.047  14.598  -2.359  1.00  0.00     0.171 HD
HETATM    8  C3  UNL     1     -16.901  15.358  -4.178  1.00  0.00     0.190 C
HETATM    9  N4  UNL     1     -16.314  16.271  -5.083  1.00  0.00    -0.063 NA
HETATM   10  N5  UNL     1     -17.907  14.464  -4.638  1.00  0.00    -0.369 N
ATOM     11  H5  UNL     1     -18.052  13.567  -4.174  1.00  0.00     0.161 HD
HETATM   12  C4  UNL     1     -18.723  14.845  -5.776  1.00  0.00     0.148 C
ENDROOT
TORSDOF 0
ENDMDL