MODEL 5
REMARK VINA RESULT: -3.951645674      1.510      2.256
REMARK  0 active torsions:
REMARK  status: ('A' for Active; 'I' for Inactive)
ROOT
HETATM    1  C1  UNL     1     -15.445  14.359  -4.863  1.00  0.00     0.152 C
HETATM    2  N1  UNL     1     -15.234  15.317  -5.949  1.00  0.00    -0.163 NA
HETATM    3  N2  UNL     1     -16.526  15.876  -5.815  1.00  0.00    -0.224 NA
HETATM    4  C2  UNL     1     -17.533  15.312  -6.653  1.00  0.00     0.144 C
HETATM    5  C3  UNL     1     -18.644  14.859  -5.778  1.00  0.00     0.167 A
HETATM    6  O1  UNL     1     -18.998  15.509  -4.628  1.00  0.00    -0.372 OA
HETATM    7  C4  UNL     1     -17.951  14.602  -4.457  1.00  0.00     0.172 A
HETATM    8  C5  UNL     1     -16.602  15.242  -4.525  1.00  0.00     0.123 C
ENDROOT
TORSDOF 0
ENDMDL