MODEL 1
REMARK VINA RESULT: -8.073806896      0.000      0.000
REMARK  6 active torsions:
REMARK  status: ('A' for Active; 'I' for Inactive)
REMARK    1  A    between atoms: C2_2  and  C3_3
REMARK    2  A    between atoms: C2_2  and  N2_19
REMARK    3  A    between atoms: C3_3  and  N1_4
REMARK    4  A    between atoms: N1_4  and  C4_6
REMARK    5  A    between atoms: C10_12  and  C11_13
REMARK       I    between atoms: N2_19  and  C15_21
REMARK       I    between atoms: C15_21  and  N3_23
REMARK    6  A    between atoms: N3_23  and  C16_25
ROOT
HETATM    1  C1  UNL     1      -9.343  17.863  22.597  1.00  0.00     0.034 C
HETATM    2  C2  UNL     1      -9.902  18.714  21.488  1.00  0.00     0.099 C
ENDROOT
BRANCH   2   3
HETATM    3  C3  UNL     1     -11.416  18.902  21.609  1.00  0.00     0.139 C
BRANCH   3   4
HETATM    4  N1  UNL     1     -12.020  17.630  21.656  1.00  0.00    -0.415 N
ATOM      5  H1  UNL     1     -11.994  17.081  22.516  1.00  0.00     0.153 HD
BRANCH   4   6
HETATM    6  C4  UNL     1     -12.658  17.120  20.515  1.00  0.00     0.085 C
HETATM    7  C5  UNL     1     -13.039  18.252  19.544  1.00  0.00     0.064 C
HETATM    8  C6  UNL     1     -13.853  17.442  18.570  1.00  0.00    -0.049 A
HETATM    9  C7  UNL     1     -14.075  17.574  17.227  1.00  0.00     0.008 A
HETATM   10  C13 UNL     1     -14.450  16.390  19.254  1.00  0.00    -0.038 A
HETATM   11  C8  UNL     1     -14.885  16.673  16.552  1.00  0.00     0.001 A
HETATM   12  C9  UNL     1     -15.479  15.630  17.228  1.00  0.00     0.014 A
HETATM   13  C10 UNL     1     -15.253  15.500  18.577  1.00  0.00     0.019 A
HETATM   14  C14 UNL     1     -14.017  16.507  20.699  1.00  0.00     0.065 C
BRANCH  13  15
HETATM   15  C11 UNL     1     -15.868  14.394  19.360  1.00  0.00     0.268 C
HETATM   16  C12 UNL     1     -16.834  13.651  18.469  1.00  0.00     0.096 C
HETATM   17  F1  UNL     1     -14.885  13.520  19.770  1.00  0.00    -0.201 F
HETATM   18  F2  UNL     1     -16.574  14.915  20.451  1.00  0.00    -0.201 F
ENDBRANCH  13  15
ENDBRANCH   4   6
ENDBRANCH   3   4
ENDBRANCH   2   3
BRANCH   2  19
HETATM   19  N2  UNL     1      -9.557  18.223  20.170  1.00  0.00    -0.337 N
HETATM   20  C15 UNL     1      -8.629  18.905  19.341  1.00  0.00     0.316 C
HETATM   21  O1  UNL     1      -8.079  19.947  19.737  1.00  0.00    -0.247 OA
HETATM   22  N3  UNL     1      -8.336  18.368  18.030  1.00  0.00    -0.336 N
ATOM     23  H3  UNL     1      -8.811  17.513  17.743  1.00  0.00     0.164 HD
ATOM     24  H2  UNL     1      -9.992  17.366  19.830  1.00  0.00     0.164 HD
BRANCH  22  25
HETATM   25  C16 UNL     1      -7.426  18.965  17.121  1.00  0.00     0.120 C
HETATM   26  C17 UNL     1      -8.029  20.081  16.243  1.00  0.00     0.298 C
HETATM   27  N4  UNL     1      -7.855  20.124  14.789  1.00  0.00     0.096 N
HETATM   28  C18 UNL     1      -8.974  19.291  14.359  1.00  0.00     0.274 C
HETATM   29  C24 UNL     1      -6.751  19.385  14.118  1.00  0.00     0.241 C
HETATM   30  C19 UNL     1      -8.154  18.119  14.864  1.00  0.00     0.043 C
HETATM   31  C20 UNL     1      -6.793  18.515  15.485  1.00  0.00     0.004 A
HETATM   32  C21 UNL     1      -5.588  19.454  15.594  1.00  0.00     0.009 A
HETATM   33  C23 UNL     1      -6.119  18.096  14.838  1.00  0.00     0.003 A
HETATM   34  C25 UNL     1      -6.640  17.828  16.372  1.00  0.00     0.032 C
HETATM   35  C22 UNL     1      -4.658  18.395  15.009  1.00  0.00     0.019 A
ENDBRANCH  22  25
ENDBRANCH   2  19
TORSDOF 6
ENDMDL