MODEL 3
REMARK VINA RESULT: -7.851816277      2.247      2.645
REMARK  5 active torsions:
REMARK  status: ('A' for Active; 'I' for Inactive)
REMARK    1  A    between atoms: C2_2  and  C3_3
REMARK    2  A    between atoms: C5_5  and  N1_6
REMARK       I    between atoms: N1_6  and  C6_8
REMARK       I    between atoms: C6_8  and  N3_12
REMARK    3  A    between atoms: N3_12  and  C7_14
REMARK    4  A    between atoms: C10_17  and  N4_18
REMARK       I    between atoms: C11_20  and  N6_22
REMARK    5  A    between atoms: N7_31  and  C17_32
ROOT
HETATM    1  N1  UNL     1     -10.084  18.698  21.437  1.00  0.00    -0.222 N
ATOM      2  H1  UNL     1      -9.921  17.778  21.028  1.00  0.00     0.178 HD
HETATM    3  C6  UNL     1      -8.993  19.585  21.486  1.00  0.00     0.668 C
HETATM    4  N2  UNL     1      -8.104  19.426  20.531  1.00  0.00    -0.235 N
ATOM      5  H21 UNL     1      -7.312  20.068  20.566  1.00  0.00     0.174 HD
ATOM      6  H22 UNL     1      -8.234  18.703  19.822  1.00  0.00     0.174 HD
HETATM    7  N3  UNL     1      -8.813  20.581  22.464  1.00  0.00    -0.216 N
ATOM      8  H3  UNL     1      -8.515  20.331  23.406  1.00  0.00     0.178 HD
ENDROOT
BRANCH   1   9
HETATM    9  C5  UNL     1     -11.414  18.979  21.915  1.00  0.00     0.110 C
HETATM   10  C4  UNL     1     -12.106  17.732  22.309  1.00  0.00     0.052 C
HETATM   11  C3  UNL     1     -13.390  17.439  21.570  1.00  0.00     0.094 C
HETATM   12  N7  UNL     1     -13.317  17.725  20.175  1.00  0.00    -0.313 N
HETATM   13  C16 UNL     1     -12.507  18.833  19.767  1.00  0.00     0.226 C
HETATM   14  C15 UNL     1     -12.138  19.776  20.855  1.00  0.00     0.129 C
HETATM   15  O1  UNL     1     -12.140  18.986  18.573  1.00  0.00    -0.273 OA
BRANCH  11  16
HETATM   16  C2  UNL     1     -14.540  18.028  22.307  1.00  0.00     0.021 C
HETATM   17  C1  UNL     1     -14.598  17.579  23.764  1.00  0.00     0.007 C
ENDBRANCH  11  16
BRANCH  12  18
HETATM   18  C17 UNL     1     -13.980  16.999  19.144  1.00  0.00     0.037 A
HETATM   19  C18 UNL     1     -14.538  15.770  19.449  1.00  0.00     0.030 A
HETATM   20  C19 UNL     1     -15.192  15.004  18.511  1.00  0.00     0.002 A
HETATM   21  C20 UNL     1     -15.309  15.458  17.219  1.00  0.00     0.000 A
HETATM   22  C21 UNL     1     -14.747  16.688  16.929  1.00  0.00     0.002 A
HETATM   23  C22 UNL     1     -14.088  17.468  17.854  1.00  0.00     0.030 A
ENDBRANCH  12  18
ENDBRANCH   1   9
BRANCH   7  24
HETATM   24  C7  UNL     1      -9.059  21.969  22.116  1.00  0.00     0.173 C
HETATM   25  C8  UNL     1      -7.820  22.814  22.303  1.00  0.00     0.034 C
HETATM   26  C9  UNL     1      -8.456  24.219  22.304  1.00  0.00     0.033 C
HETATM   27  C10 UNL     1      -9.511  23.996  23.378  1.00  0.00     0.158 C
HETATM   28  C14 UNL     1     -10.074  22.607  23.025  1.00  0.00     0.284 C
HETATM   29  F1  UNL     1     -10.314  21.892  24.173  1.00  0.00    -0.202 F
HETATM   30  F2  UNL     1     -11.231  22.811  22.307  1.00  0.00    -0.202 F
BRANCH  27  31
HETATM   31  N4  UNL     1      -8.894  23.957  24.666  1.00  0.00    -0.354 N
HETATM   32  C11 UNL     1      -9.334  24.400  25.771  1.00  0.00     0.186 C
HETATM   33  N5  UNL     1      -8.490  24.223  26.921  1.00  0.00    -0.064 NA
HETATM   34  N6  UNL     1     -10.577  25.047  25.945  1.00  0.00    -0.364 N
HETATM   35  C12 UNL     1     -10.673  26.454  26.362  1.00  0.00     0.151 C
HETATM   36  C13 UNL     1     -11.871  24.395  25.734  1.00  0.00     0.151 C
ATOM     37  H4  UNL     1      -7.976  23.515  24.702  1.00  0.00     0.162 HD
ENDBRANCH  27  31
ENDBRANCH   7  24
TORSDOF 5
ENDMDL