MODEL 2
REMARK VINA RESULT: -8.244454597      2.990      5.959
REMARK  5 active torsions:
REMARK  status: ('A' for Active; 'I' for Inactive)
REMARK       I    between atoms: N3_8  and  C4_10
REMARK       I    between atoms: C4_10  and  N4_12
REMARK    1  A    between atoms: N4_12  and  C5_14
REMARK    2  A    between atoms: C5_14  and  C6_15
REMARK       I    between atoms: C6_15  and  N5_17
REMARK    3  A    between atoms: N5_17  and  C7_19
REMARK    4  A    between atoms: C7_19  and  C8_20
REMARK    5  A    between atoms: C8_20  and  N6_21
ROOT
HETATM    1  C5  UNL     1     -10.445  19.101  20.968  1.00  0.00     0.115 C
HETATM    2  C13 UNL     1      -9.682  18.121  21.826  1.00  0.00     0.043 C
HETATM    3  C14 UNL     1      -8.458  18.604  22.478  1.00  0.00     0.028 C
HETATM    4  C15 UNL     1      -7.534  19.367  21.565  1.00  0.00     0.033 C
HETATM    5  C16 UNL     1      -6.526  18.424  20.924  1.00  0.00     0.032 C
HETATM    6 CL1  UNL     1      -6.593  20.473  22.600  1.00  0.00    -0.120 Cl
HETATM    7  C17 UNL     1      -8.240  20.183  20.556  1.00  0.00     0.028 C
HETATM    8  C18 UNL     1      -9.514  19.732  20.000  1.00  0.00     0.043 C
ENDROOT
BRANCH   1   9
HETATM    9  N4  UNL     1     -11.351  18.241  20.167  1.00  0.00    -0.325 N
HETATM   10  C4  UNL     1     -12.227  18.817  19.248  1.00  0.00     0.322 C
HETATM   11  N3  UNL     1     -13.085  17.998  18.482  1.00  0.00    -0.292 N
HETATM   12  O1  UNL     1     -12.296  20.041  19.058  1.00  0.00    -0.247 OA
HETATM   13  C3  UNL     1     -13.862  17.156  19.058  1.00  0.00     0.148 A
ATOM     14  H3  UNL     1     -13.088  18.077  17.466  1.00  0.00     0.172 HD
HETATM   15  N2  UNL     1     -14.049  16.858  20.345  1.00  0.00    -0.284 N
HETATM   16  C19 UNL     1     -14.739  16.315  18.340  1.00  0.00     0.103 A
HETATM   17  N1  UNL     1     -14.959  15.914  20.496  1.00  0.00    -0.302 N
ATOM     18  H2  UNL     1     -13.551  17.304  21.115  1.00  0.00     0.188 HD
HETATM   19  C2  UNL     1     -15.391  15.572  19.278  1.00  0.00     0.047 A
ATOM     20  H1  UNL     1     -15.275  15.519  21.381  1.00  0.00     0.186 HD
HETATM   21  C1  UNL     1     -16.431  14.537  18.939  1.00  0.00     0.071 C
HETATM   22 CL2  UNL     1     -14.898  16.295  16.582  1.00  0.00    -0.078 Cl
ATOM     23  H4  UNL     1     -11.334  17.228  20.290  1.00  0.00     0.165 HD
ENDBRANCH   1   9
BRANCH   1  24
HETATM   24  C6  UNL     1     -11.221  20.056  21.769  1.00  0.00     0.246 C
HETATM   25  O2  UNL     1     -11.096  21.301  21.474  1.00  0.00    -0.271 OA
HETATM   26  N5  UNL     1     -12.093  19.776  22.827  1.00  0.00    -0.357 N
ATOM     27  H5  UNL     1     -12.241  18.807  23.113  1.00  0.00     0.162 HD
BRANCH  26  28
HETATM   28  C7  UNL     1     -12.785  20.834  23.520  1.00  0.00     0.152 C
BRANCH  28  29
HETATM   29  C8  UNL     1     -12.000  21.335  24.713  1.00  0.00     0.292 C
BRANCH  29  30
HETATM   30  N6  UNL     1     -11.831  22.771  24.651  1.00  0.00     0.090 N
HETATM   31  C9  UNL     1     -12.223  23.395  25.923  1.00  0.00     0.272 C
HETATM   32  C10 UNL     1     -11.517  24.755  25.901  1.00  0.00     0.032 C
HETATM   33  C11 UNL     1     -10.461  24.603  24.834  1.00  0.00     0.032 C
HETATM   34  C12 UNL     1     -10.419  23.103  24.628  1.00  0.00     0.272 C
ENDBRANCH  29  30
ENDBRANCH  28  29
ENDBRANCH  26  28
ENDBRANCH   1  24
TORSDOF 5
ENDMDL