MODEL 4
REMARK VINA RESULT: -7.091946840      2.864      5.063
REMARK  7 active torsions:
REMARK  status: ('A' for Active; 'I' for Inactive)
REMARK    1  A    between atoms: C9_10  and  C10_11
REMARK    2  A    between atoms: C10_11  and  O1_12
REMARK    3  A    between atoms: C10_11  and  C11_14
REMARK    4  A    between atoms: C14_17  and  O2_18
REMARK    5  A    between atoms: C19_24  and  C20_25
REMARK    6  A    between atoms: C20_25  and  C21_26
REMARK    7  A    between atoms: C21_26  and  C22_27
REMARK       I    between atoms: C22_27  and  N1_29
ROOT
HETATM    1  C1  UNL     1     -12.465  21.917  24.307  1.00  0.00     0.019 C
HETATM    2  C2  UNL     1     -11.513  21.257  23.613  1.00  0.00    -0.061 C
HETATM    3  C3  UNL     1     -10.167  21.376  24.193  1.00  0.00     0.039 C
HETATM    4  C4  UNL     1      -9.205  22.119  23.348  1.00  0.00     0.013 C
HETATM    5  C5  UNL     1      -9.641  22.298  21.892  1.00  0.00     0.030 C
HETATM    6  C6  UNL     1      -8.465  22.906  21.201  1.00  0.00     0.011 C
HETATM    7  C7  UNL     1      -7.982  21.821  20.241  1.00  0.00     0.048 C
HETATM    8  C8  UNL     1      -9.249  21.098  19.867  1.00  0.00     0.149 C
HETATM    9  F1  UNL     1      -9.940  21.934  19.020  1.00  0.00    -0.239 F
HETATM   10  C9  UNL     1      -9.116  19.701  19.415  1.00  0.00     0.090 C
HETATM   11  C14 UNL     1     -10.454  19.065  19.262  1.00  0.00     0.129 C
HETATM   12  C15 UNL     1     -11.409  19.331  20.391  1.00  0.00     0.049 C
HETATM   13  C16 UNL     1     -11.370  20.675  21.029  1.00  0.00     0.025 C
HETATM   14  C17 UNL     1     -12.193  21.699  20.294  1.00  0.00     0.024 C
HETATM   15  C18 UNL     1     -11.960  20.563  22.418  1.00  0.00    -0.045 C
HETATM   16  C19 UNL     1     -12.939  19.736  22.563  1.00  0.00    -0.018 C
HETATM   17  C24 UNL     1      -9.928  21.048  21.214  1.00  0.00     0.155 C
HETATM   18  F2  UNL     1      -9.391  20.018  22.005  1.00  0.00    -0.238 F
ENDROOT
BRANCH  16  19
HETATM   19  C20 UNL     1     -13.737  19.305  23.704  1.00  0.00     0.037 C
BRANCH  19  20
HETATM   20  C21 UNL     1     -14.766  18.238  23.282  1.00  0.00     0.107 C
BRANCH  20  21
HETATM   21  C22 UNL     1     -14.130  17.440  22.206  1.00  0.00     0.224 C
HETATM   22  O3  UNL     1     -13.165  16.660  22.415  1.00  0.00    -0.273 OA
HETATM   23  N1  UNL     1     -14.617  17.546  20.877  1.00  0.00    -0.304 N
HETATM   24  C23 UNL     1     -14.591  16.587  20.021  1.00  0.00     0.203 C
ATOM     25  H1  UNL     1     -15.013  18.439  20.583  1.00  0.00     0.171 HD
HETATM   26  N2  UNL     1     -14.074  15.297  20.293  1.00  0.00    -0.066 NA
HETATM   27  N3  UNL     1     -15.115  16.850  18.735  1.00  0.00    -0.066 NA
ENDBRANCH  20  21
ENDBRANCH  19  20
ENDBRANCH  16  19
BRANCH  11  28
HETATM   28  O2  UNL     1     -11.066  19.242  18.027  1.00  0.00    -0.395 OA
ATOM     29  H2  UNL     1     -11.878  18.767  17.898  1.00  0.00     0.210 HD
ENDBRANCH  11  28
BRANCH  10  30
HETATM   30  C10 UNL     1      -8.104  19.339  18.423  1.00  0.00     0.155 C
BRANCH  30  31
HETATM   31  O1  UNL     1      -8.316  17.952  18.143  1.00  0.00    -0.391 OA
ATOM     32  H1  UNL     1      -8.714  17.922  17.281  1.00  0.00     0.210 HD
ENDBRANCH  30  31
BRANCH  30  33
HETATM   33  C11 UNL     1      -7.849  20.089  17.225  1.00  0.00    -0.064 C
HETATM   34  C12 UNL     1      -8.623  19.892  16.134  1.00  0.00     0.016 C
HETATM   35  C13 UNL     1      -6.795  21.104  17.054  1.00  0.00     0.045 C
ENDBRANCH  30  33
ENDBRANCH  10  30
TORSDOF 7
ENDMDL