MODEL 3
REMARK VINA RESULT: -7.635564905      1.498      1.948
REMARK  5 active torsions:
REMARK  status: ('A' for Active; 'I' for Inactive)
REMARK    1  A    between atoms: C2_2  and  N1_3
REMARK       I    between atoms: N1_3  and  C4_5
REMARK    2  A    between atoms: C4_5  and  C5_7
REMARK    3  A    between atoms: C5_7  and  C6_8
REMARK       I    between atoms: N4_14  and  C8_16
REMARK       I    between atoms: C8_16  and  N5_18
REMARK    4  A    between atoms: N5_18  and  C9_20
REMARK    5  A    between atoms: C15_26  and  C16_27
ROOT
HETATM    1  C16 UNL     1      -9.927  21.083  22.043  1.00  0.00     0.070 A
HETATM    2  N6  UNL     1      -9.205  21.849  21.171  1.00  0.00    -0.362 N
ATOM      3  H6  UNL     1      -8.775  21.493  20.317  1.00  0.00     0.165 HD
HETATM    4  C17 UNL     1      -9.134  23.124  21.577  1.00  0.00     0.114 A
HETATM    5  C18 UNL     1      -9.816  23.253  22.754  1.00  0.00     0.072 A
HETATM    6 CL1  UNL     1     -10.045  24.701  23.731  1.00  0.00    -0.081 Cl
HETATM    7  C19 UNL     1     -10.302  21.957  23.024  1.00  0.00     0.095 A
HETATM    8  C20 UNL     1     -11.030  21.689  24.245  1.00  0.00     0.103 C
HETATM    9  N7  UNL     1     -11.589  21.494  25.247  1.00  0.00    -0.191 NA
ENDROOT
BRANCH   1  10
HETATM   10  C15 UNL     1     -10.129  19.635  21.968  1.00  0.00     0.062 A
HETATM   11  C6  UNL     1      -9.143  18.655  21.973  1.00  0.00     0.051 A
HETATM   12  N2  UNL     1      -9.738  17.478  21.779  1.00  0.00    -0.302 N
HETATM   13  N3  UNL     1     -11.005  17.647  21.656  1.00  0.00    -0.284 N
ATOM     14  H2  UNL     1      -9.260  16.578  21.735  1.00  0.00     0.186 HD
HETATM   15  C7  UNL     1     -11.317  18.949  21.760  1.00  0.00     0.138 A
ATOM     16  H3  UNL     1     -11.679  16.898  21.501  1.00  0.00     0.188 HD
HETATM   17  N4  UNL     1     -12.512  19.413  21.628  1.00  0.00    -0.293 N
HETATM   18  C8  UNL     1     -13.587  18.539  21.357  1.00  0.00     0.322 C
ATOM     19  H4  UNL     1     -12.681  20.415  21.719  1.00  0.00     0.172 HD
HETATM   20  O2  UNL     1     -14.498  18.418  22.213  1.00  0.00    -0.247 OA
HETATM   21  N5  UNL     1     -13.667  17.800  20.157  1.00  0.00    -0.338 N
ATOM     22  H5  UNL     1     -12.915  17.915  19.477  1.00  0.00     0.164 HD
BRANCH  11  23
HETATM   23  C5  UNL     1      -7.685  18.786  22.182  1.00  0.00     0.162 C
BRANCH  23  24
HETATM   24  C4  UNL     1      -7.478  18.961  23.669  1.00  0.00     0.225 C
HETATM   25  N1  UNL     1      -6.763  20.111  24.085  1.00  0.00    -0.357 N
HETATM   26  C3  UNL     1      -6.267  21.051  23.113  1.00  0.00     0.152 C
HETATM   27  O1  UNL     1      -7.922  18.121  24.494  1.00  0.00    -0.273 OA
BRANCH  25  28
HETATM   28  C2  UNL     1      -6.559  20.293  25.509  1.00  0.00     0.120 C
HETATM   29  C1  UNL     1      -5.151  19.902  25.928  1.00  0.00     0.026 C
ENDBRANCH  25  28
ENDBRANCH  23  24
ENDBRANCH  11  23
BRANCH  21  30
HETATM   30  C9  UNL     1     -14.730  16.899  19.826  1.00  0.00     0.086 C
HETATM   31  C10 UNL     1     -15.262  17.035  18.442  1.00  0.00     0.025 C
HETATM   32  C11 UNL     1     -14.877  15.884  17.537  1.00  0.00     0.002 C
HETATM   33  C12 UNL     1     -15.198  14.538  18.093  1.00  0.00     0.000 C
HETATM   34  C13 UNL     1     -15.294  14.555  19.615  1.00  0.00     0.002 C
HETATM   35  C14 UNL     1     -14.190  15.483  20.084  1.00  0.00     0.025 C
ENDBRANCH  21  30
ENDBRANCH   1  10
TORSDOF 5
ENDMDL