MODEL 3
REMARK VINA RESULT: -7.710150335      5.312      7.102
REMARK  9 active torsions:
REMARK  status: ('A' for Active; 'I' for Inactive)
REMARK    1  A    between atoms: O1_1  and  C1_3
REMARK    2  A    between atoms: C1_3  and  N1_4
REMARK    3  A    between atoms: C1_3  and  N7_30
REMARK    4  A    between atoms: N1_4  and  C2_5
REMARK    5  A    between atoms: N4_13  and  C6_15
REMARK    6  A    between atoms: C9_18  and  N5_19
REMARK    7  A    between atoms: N7_30  and  C18_32
REMARK    8  A    between atoms: C18_32  and  C19_33
REMARK    9  A    between atoms: C19_33  and  C20_36
ROOT
HETATM    1  C2  UNL     1     -12.552  19.015  21.537  1.00  0.00     0.185 A
HETATM    2  C3  UNL     1     -12.115  19.342  22.824  1.00  0.00     0.096 A
HETATM    3  C4  UNL     1     -11.526  20.534  23.106  1.00  0.00     0.068 A
HETATM    4  N2  UNL     1     -11.017  21.095  24.216  1.00  0.00    -0.298 N
ATOM      5  H2  UNL     1     -11.000  20.646  25.131  1.00  0.00     0.187 HD
HETATM    6  N3  UNL     1     -10.546  22.286  23.973  1.00  0.00    -0.284 N
ATOM      7  H3  UNL     1     -10.112  22.903  24.659  1.00  0.00     0.188 HD
HETATM    8  C5  UNL     1     -10.731  22.580  22.639  1.00  0.00     0.130 A
HETATM    9  N4  UNL     1     -10.408  23.653  22.163  1.00  0.00    -0.370 N
ATOM     10  H4  UNL     1     -10.013  24.209  22.922  1.00  0.00     0.161 HD
HETATM   11  C16 UNL     1     -11.337  21.485  22.106  1.00  0.00     0.053 A
HETATM   12  C17 UNL     1     -11.779  21.128  20.843  1.00  0.00     0.108 A
HETATM   13  N6  UNL     1     -12.354  19.957  20.577  1.00  0.00    -0.340 N
ATOM     14  H6  UNL     1     -12.656  19.760  19.624  1.00  0.00     0.167 HD
ENDROOT
BRANCH   1  15
HETATM   15  N1  UNL     1     -13.107  17.955  21.369  1.00  0.00    -0.347 NA
BRANCH  15  16
HETATM   16  C1  UNL     1     -13.683  16.799  21.230  1.00  0.00     0.295 C
BRANCH  16  17
HETATM   17  O1  UNL     1     -13.409  15.834  22.057  1.00  0.00    -0.321 OA
ATOM     18  H1  UNL     1     -12.505  15.582  22.209  1.00  0.00     0.222 HD
ENDBRANCH  16  17
BRANCH  16  19
HETATM   19  N7  UNL     1     -14.643  16.457  20.214  1.00  0.00    -0.339 N
ATOM     20  H7  UNL     1     -15.373  17.114  19.941  1.00  0.00     0.164 HD
BRANCH  19  21
HETATM   21  C18 UNL     1     -14.546  15.169  19.599  1.00  0.00     0.203 C
BRANCH  21  22
HETATM   22  C19 UNL     1     -15.290  15.084  18.299  1.00  0.00     0.263 C
HETATM   23  F1  UNL     1     -14.496  15.011  17.208  1.00  0.00    -0.204 F
HETATM   24  F2  UNL     1     -16.038  16.254  18.194  1.00  0.00    -0.204 F
BRANCH  22  25
HETATM   25  C20 UNL     1     -16.272  13.936  18.423  1.00  0.00     0.060 A
HETATM   26  C21 UNL     1     -17.478  14.147  19.333  1.00  0.00     0.011 A
HETATM   27  C22 UNL     1     -16.346  13.135  19.664  1.00  0.00     0.011 A
ENDBRANCH  22  25
ENDBRANCH  21  22
ENDBRANCH  19  21
ENDBRANCH  16  19
ENDBRANCH  15  16
ENDBRANCH   1  15
BRANCH   9  28
HETATM   28  C6  UNL     1     -10.355  24.434  21.021  1.00  0.00     0.083 C
HETATM   29  C7  UNL     1      -9.466  24.006  19.924  1.00  0.00     0.027 C
HETATM   30  C8  UNL     1      -8.420  24.959  19.446  1.00  0.00     0.038 C
HETATM   31  C9  UNL     1      -8.845  26.368  19.306  1.00  0.00     0.223 C
HETATM   32  C14 UNL     1     -10.029  26.707  20.214  1.00  0.00     0.038 C
HETATM   33  C15 UNL     1      -9.950  25.866  21.462  1.00  0.00     0.027 C
BRANCH  31  34
HETATM   34  N5  UNL     1      -9.103  26.877  18.018  1.00  0.00     0.093 N
HETATM   35  C10 UNL     1     -10.506  27.156  17.763  1.00  0.00     0.273 C
HETATM   36  C11 UNL     1     -10.558  28.319  16.821  1.00  0.00     0.032 C
HETATM   37  C12 UNL     1      -9.115  28.471  16.391  1.00  0.00     0.032 C
HETATM   38  C13 UNL     1      -8.377  28.050  17.648  1.00  0.00     0.273 C
ENDBRANCH  31  34
ENDBRANCH   9  28
TORSDOF 9
ENDMDL