MODEL 5
REMARK VINA RESULT: -6.765916819      1.196      1.392
REMARK  7 active torsions:
REMARK  status: ('A' for Active; 'I' for Inactive)
REMARK    1  A    between atoms: C2_2  and  C4_4
REMARK    2  A    between atoms: C4_4  and  C5_5
REMARK    3  A    between atoms: C5_5  and  C6_6
REMARK       I    between atoms: N1_11  and  C9_12
REMARK       I    between atoms: C9_12  and  N2_14
REMARK    4  A    between atoms: N2_14  and  C10_16
REMARK    5  A    between atoms: C13_19  and  N3_20
REMARK       I    between atoms: N3_20  and  C14_22
REMARK    6  A    between atoms: C14_22  and  C15_24
REMARK    7  A    between atoms: C20_29  and  O3_30
ROOT
HETATM    1  C5  UNL     1      -5.497  20.910  25.003  1.00  0.00     0.088 C
HETATM    2  C7  UNL     1      -6.391  19.746  25.158  1.00  0.00     0.056 C
HETATM    3  C8  UNL     1      -7.768  19.865  24.579  1.00  0.00     0.132 C
HETATM    4  N1  UNL     1      -8.235  21.203  24.360  1.00  0.00    -0.318 N
HETATM    5  C9  UNL     1      -9.445  21.441  23.698  1.00  0.00     0.319 C
HETATM    6  O1  UNL     1      -9.821  22.649  23.523  1.00  0.00    -0.247 OA
HETATM    7  N2  UNL     1     -10.242  20.369  23.228  1.00  0.00    -0.338 N
ATOM      8  H2  UNL     1      -9.920  19.414  23.381  1.00  0.00     0.164 HD
HETATM    9  C22 UNL     1      -7.449  22.342  24.828  1.00  0.00     0.246 C
HETATM   10  N4  UNL     1      -6.086  22.110  24.481  1.00  0.00    -0.392 N
ATOM     11  H4  UNL     1      -5.559  22.758  23.895  1.00  0.00     0.155 HD
ENDROOT
BRANCH   7  12
HETATM   12  C10 UNL     1     -11.502  20.580  22.536  1.00  0.00     0.088 C
HETATM   13  C11 UNL     1     -11.433  19.937  21.190  1.00  0.00     0.027 C
HETATM   14  C12 UNL     1     -11.755  18.457  21.233  1.00  0.00     0.030 C
HETATM   15  C13 UNL     1     -13.196  18.226  21.637  1.00  0.00     0.113 C
HETATM   16  C20 UNL     1     -13.719  19.398  22.454  1.00  0.00     0.142 C
HETATM   17  C21 UNL     1     -12.627  19.991  23.316  1.00  0.00     0.059 C
BRANCH  15  18
HETATM   18  N3  UNL     1     -14.065  17.918  20.536  1.00  0.00    -0.354 N
HETATM   19  C14 UNL     1     -14.300  16.584  20.158  1.00  0.00     0.222 C
HETATM   20  O2  UNL     1     -13.748  15.637  20.785  1.00  0.00    -0.273 OA
ATOM     21  H3  UNL     1     -14.516  18.675  20.023  1.00  0.00     0.163 HD
BRANCH  19  22
HETATM   22  C15 UNL     1     -15.196  16.220  19.015  1.00  0.00     0.078 C
HETATM   23  C16 UNL     1     -15.077  14.729  18.724  1.00  0.00     0.014 C
HETATM   24  C17 UNL     1     -15.558  14.664  17.285  1.00  0.00     0.001 C
HETATM   25  C18 UNL     1     -14.706  15.781  16.670  1.00  0.00     0.001 C
HETATM   26  C19 UNL     1     -14.706  16.855  17.737  1.00  0.00     0.014 C
ENDBRANCH  19  22
ENDBRANCH  15  18
BRANCH  16  27
HETATM   27  O3  UNL     1     -14.801  18.973  23.180  1.00  0.00    -0.393 OA
ATOM     28  H3  UNL     1     -14.830  19.463  23.993  1.00  0.00     0.210 HD
ENDBRANCH  16  27
ENDBRANCH   7  12
BRANCH   1  29
HETATM   29  C4  UNL     1      -4.189  20.722  24.300  1.00  0.00     0.040 C
BRANCH  29  30
HETATM   30  C2  UNL     1      -3.795  19.418  23.771  1.00  0.00    -0.020 C
HETATM   31  C1  UNL     1      -2.964  18.549  24.660  1.00  0.00     0.009 C
HETATM   32  C3  UNL     1      -2.960  19.612  22.476  1.00  0.00     0.009 C
ENDBRANCH  29  30
ENDBRANCH   1  29
BRANCH   1  33
HETATM   33  C6  UNL     1      -5.041  21.314  26.453  1.00  0.00     0.380 C
HETATM   34  F1  UNL     1      -5.808  20.677  27.393  1.00  0.00    -0.212 F
HETATM   35  F2  UNL     1      -3.717  21.182  26.626  1.00  0.00    -0.212 F
ENDBRANCH   1  33
TORSDOF 7
ENDMDL