MODEL 2
REMARK VINA RESULT: -7.171868689      3.572      6.472
REMARK  5 active torsions:
REMARK  status: ('A' for Active; 'I' for Inactive)
REMARK    1  A    between atoms: C2_2  and  N1_3
REMARK       I    between atoms: C3_5  and  N3_7
REMARK    2  A    between atoms: N3_7  and  C4_9
REMARK    3  A    between atoms: C4_9  and  C5_10
REMARK    4  A    between atoms: C5_10  and  C6_11
REMARK    5  A    between atoms: C6_11  and  N4_12
ROOT
HETATM    1  N4  UNL     1     -10.910  19.817  19.662  1.00  0.00    -0.320 N
HETATM    2  C7  UNL     1     -12.088  19.277  19.103  1.00  0.00     0.221 C
HETATM    3  O1  UNL     1     -12.734  20.043  18.314  1.00  0.00    -0.273 OA
HETATM    4  C8  UNL     1     -12.674  17.936  19.310  1.00  0.00     0.103 C
HETATM    5  C9  UNL     1     -13.822  17.851  20.235  1.00  0.00     0.010 C
HETATM    6  C10 UNL     1     -13.897  16.629  21.117  1.00  0.00     0.012 C
HETATM    7  C11 UNL     1     -13.008  16.843  22.369  1.00  0.00     0.094 C
HETATM    8  C12 UNL     1     -12.077  17.829  21.994  1.00  0.00    -0.103 C
HETATM    9  C13 UNL     1     -11.391  18.594  21.634  1.00  0.00    -0.059 C
HETATM   10  C14 UNL     1     -10.558  19.582  21.086  1.00  0.00     0.212 A
HETATM   11  C15 UNL     1     -10.825  20.836  21.844  1.00  0.00     0.268 A
HETATM   12  O2  UNL     1     -11.917  21.452  21.956  1.00  0.00    -0.269 OA
HETATM   13  N5  UNL     1      -9.635  21.286  22.466  1.00  0.00    -0.323 N
ATOM     14  H5  UNL     1      -9.541  22.102  23.070  1.00  0.00     0.169 HD
HETATM   15  C16 UNL     1      -8.599  20.394  22.095  1.00  0.00     0.048 A
HETATM   16  C17 UNL     1      -7.261  20.396  22.410  1.00  0.00     0.054 A
HETATM   17  C18 UNL     1      -6.391  19.444  21.930  1.00  0.00     0.037 A
HETATM   18 CL1  UNL     1      -4.685  19.484  22.358  1.00  0.00    -0.084 Cl
HETATM   19  C19 UNL     1      -6.872  18.456  21.109  1.00  0.00     0.048 A
HETATM   20  C20 UNL     1      -8.212  18.461  20.800  1.00  0.00     0.048 A
HETATM   21 CL2  UNL     1      -8.755  17.163  19.739  1.00  0.00    -0.084 Cl
HETATM   22  C21 UNL     1      -9.094  19.409  21.275  1.00  0.00     0.041 A
ENDROOT
BRANCH   1  23
HETATM   23  C6  UNL     1      -9.994  20.596  18.883  1.00  0.00     0.130 C
BRANCH  23  24
HETATM   24  C5  UNL     1      -9.553  19.957  17.598  1.00  0.00     0.039 C
BRANCH  24  25
HETATM   25  C4  UNL     1      -8.064  20.073  17.380  1.00  0.00     0.123 C
BRANCH  25  26
HETATM   26  N3  UNL     1      -7.737  19.887  15.985  1.00  0.00    -0.365 N
HETATM   27  C3  UNL     1      -8.274  18.816  15.219  1.00  0.00     0.183 C
HETATM   28  N1  UNL     1      -7.927  17.602  15.381  1.00  0.00    -0.365 N
HETATM   29  N2  UNL     1      -9.242  19.133  14.230  1.00  0.00    -0.064 NA
ATOM     30  H1  UNL     1      -8.377  16.916  14.775  1.00  0.00     0.162 HD
ATOM     31  H3  UNL     1      -7.101  20.546  15.536  1.00  0.00     0.162 HD
BRANCH  28  32
HETATM   32  C2  UNL     1      -6.976  17.092  16.318  1.00  0.00     0.118 C
HETATM   33  C1  UNL     1      -7.012  15.560  16.330  1.00  0.00     0.026 C
ENDBRANCH  28  32
ENDBRANCH  25  26
ENDBRANCH  24  25
ENDBRANCH  23  24
ENDBRANCH   1  23
TORSDOF 5
ENDMDL