MODEL 1
REMARK VINA RESULT: -8.009322748      0.000      0.000
REMARK  6 active torsions:
REMARK  status: ('A' for Active; 'I' for Inactive)
REMARK    1  A    between atoms: C4_4  and  C5_5
REMARK    2  A    between atoms: C7_8  and  C8_9
REMARK    3  A    between atoms: C8_9  and  C9_10
REMARK    4  A    between atoms: C9_10  and  N1_12
REMARK       I    between atoms: N1_12  and  C11_14
REMARK       I    between atoms: C11_14  and  N2_16
REMARK    5  A    between atoms: N2_16  and  C12_18
REMARK    6  A    between atoms: C15_25  and  C16_26
ROOT
HETATM    1  C1  UNL     1     -15.020  16.098  16.754  1.00  0.00     0.017 C
HETATM    2  C2  UNL     1     -14.890  16.384  17.914  1.00  0.00    -0.090 C
HETATM    3  C3  UNL     1     -14.743  16.705  19.307  1.00  0.00     0.060 C
HETATM    4  C4  UNL     1     -13.578  16.618  19.909  1.00  0.00    -0.011 C
ENDROOT
BRANCH   4   5
HETATM    5  C5  UNL     1     -13.482  16.964  21.356  1.00  0.00     0.033 A
HETATM    6  C6  UNL     1     -14.066  18.189  21.914  1.00  0.00     0.095 A
HETATM    7 CL1  UNL     1     -14.536  18.191  23.636  1.00  0.00    -0.124 Cl
HETATM    8  C7  UNL     1     -12.573  18.140  21.626  1.00  0.00     0.016 A
BRANCH   8   9
HETATM    9  C8  UNL     1     -12.148  18.997  20.452  1.00  0.00     0.031 C
BRANCH   9  10
HETATM   10  C9  UNL     1     -10.646  19.142  20.411  1.00  0.00     0.082 C
HETATM   11  C10 UNL     1     -10.070  18.162  21.417  1.00  0.00     0.032 C
BRANCH  10  12
HETATM   12  N1  UNL     1     -10.125  18.833  19.115  1.00  0.00    -0.339 N
HETATM   13  C11 UNL     1      -9.343  19.786  18.418  1.00  0.00     0.322 C
HETATM   14  O1  UNL     1      -9.123  20.896  18.961  1.00  0.00    -0.247 OA
HETATM   15  N2  UNL     1      -8.798  19.560  17.144  1.00  0.00    -0.295 N
ATOM     16  H2  UNL     1      -9.077  20.191  16.392  1.00  0.00     0.172 HD
ATOM     17  H1  UNL     1     -10.316  17.924  18.693  1.00  0.00     0.164 HD
BRANCH  15  18
HETATM   18  C12 UNL     1      -7.980  18.626  16.857  1.00  0.00     0.111 A
HETATM   19  C13 UNL     1      -6.913  18.322  17.660  1.00  0.00     0.080 A
HETATM   20  C14 UNL     1      -6.088  17.284  17.285  1.00  0.00     0.065 A
HETATM   21  N3  UNL     1      -4.968  16.734  17.843  1.00  0.00    -0.299 N
HETATM   22  C21 UNL     1      -6.319  16.560  16.132  1.00  0.00     0.035 A
HETATM   23  N4  UNL     1      -4.549  15.741  17.078  1.00  0.00    -0.300 N
ATOM     24  H3  UNL     1      -4.527  17.040  18.709  1.00  0.00     0.187 HD
HETATM   25  C15 UNL     1      -5.349  15.596  16.010  1.00  0.00     0.079 A
ATOM     26  H4  UNL     1      -3.730  15.164  17.273  1.00  0.00     0.186 HD
HETATM   27  C22 UNL     1      -7.402  16.903  15.358  1.00  0.00     0.105 A
HETATM   28  N6  UNL     1      -8.204  17.911  15.723  1.00  0.00    -0.351 N
ATOM     29  H6  UNL     1      -9.002  18.149  15.136  1.00  0.00     0.166 HD
BRANCH  25  30
HETATM   30  C16 UNL     1      -5.238  14.617  14.924  1.00  0.00     0.150 C
HETATM   31  F1  UNL     1      -5.686  15.128  13.710  1.00  0.00    -0.236 F
HETATM   32  C17 UNL     1      -6.039  13.404  15.246  1.00  0.00     0.077 C
HETATM   33  C18 UNL     1      -5.257  12.128  15.004  1.00  0.00     0.236 C
HETATM   34  N5  UNL     1      -4.663  12.266  13.665  1.00  0.00    -0.075 N
HETATM   35  C19 UNL     1      -3.517  13.138  13.830  1.00  0.00     0.236 C
ATOM     36  H52 UNL     1      -4.438  11.374  13.223  1.00  0.00     0.277 HD
ATOM     37  H51 UNL     1      -5.323  12.588  12.956  1.00  0.00     0.277 HD
HETATM   38  C20 UNL     1      -3.770  14.312  14.707  1.00  0.00     0.077 C
ENDBRANCH  25  30
ENDBRANCH  15  18
ENDBRANCH  10  12
ENDBRANCH   9  10
ENDBRANCH   8   9
ENDBRANCH   4   5
TORSDOF 6
ENDMDL