MODEL 5
REMARK VINA RESULT: -8.070595029      5.121      7.719
REMARK  9 active torsions:
REMARK  status: ('A' for Active; 'I' for Inactive)
REMARK    1  A    between atoms: C3_3  and  C4_4
REMARK    2  A    between atoms: C4_4  and  C5_5
REMARK    3  A    between atoms: C6_6  and  C7_7
REMARK    4  A    between atoms: C8_8  and  C9_9
REMARK    5  A    between atoms: C9_9  and  C10_10
REMARK    6  A    between atoms: C11_11  and  C12_12
REMARK    7  A    between atoms: C18_20  and  O3_21
REMARK    8  A    between atoms: N1_23  and  C19_24
REMARK    9  A    between atoms: C21_26  and  O4_27
ROOT
HETATM    1  C1  UNL     1      10.596  11.120  19.986  1.00  0.00     0.112 C
HETATM    2  C2  UNL     1      11.366  11.504  18.798  1.00  0.00    -0.110 C
HETATM    3  C3  UNL     1      12.005  11.842  17.814  1.00  0.00    -0.095 C
ENDROOT
BRANCH   3   4
HETATM    4  C4  UNL     1      12.762  12.272  16.637  1.00  0.00     0.188 C
BRANCH   4   5
HETATM    5  C5  UNL     1      13.193  11.064  15.932  1.00  0.00    -0.090 C
HETATM    6  C6  UNL     1      13.539  10.047  15.356  1.00  0.00    -0.078 C
BRANCH   6   7
HETATM    7  C7  UNL     1      13.940   8.835  14.699  1.00  0.00     0.060 C
HETATM    8  C8  UNL     1      14.690   8.842  13.645  1.00  0.00    -0.014 C
BRANCH   8   9
HETATM    9  C9  UNL     1      15.198   7.731  12.846  1.00  0.00     0.063 C
BRANCH   9  10
HETATM   10  C10 UNL     1      16.081   8.055  11.728  1.00  0.00    -0.054 C
HETATM   11  C11 UNL     1      15.938   9.045  10.875  1.00  0.00     0.030 C
HETATM   12  C13 UNL     1      17.066   8.978   9.879  1.00  0.00     0.065 C
HETATM   13  C14 UNL     1      18.156   8.496  10.819  1.00  0.00     0.028 C
HETATM   14  C17 UNL     1      16.825   7.740   9.105  1.00  0.00     0.013 A
HETATM   15  C15 UNL     1      17.318   7.322  11.317  1.00  0.00     0.054 C
HETATM   16  C16 UNL     1      16.981   6.698   9.997  1.00  0.00     0.013 A
HETATM   17  C21 UNL     1      16.759   5.546   9.290  1.00  0.00     0.151 A
HETATM   18  N1  UNL     1      16.478   5.840   8.008  1.00  0.00    -0.308 N
HETATM   19  C18 UNL     1      16.516   7.178   7.889  1.00  0.00     0.151 A
BRANCH  11  20
HETATM   20  C12 UNL     1      14.924  10.068  10.779  1.00  0.00     0.206 C
HETATM   21  O1  UNL     1      15.149  11.267  11.194  1.00  0.00    -0.644 OA
HETATM   22  O2  UNL     1      13.650   9.908  10.261  1.00  0.00    -0.644 OA
ENDBRANCH  11  20
BRANCH  17  23
HETATM   23  O4  UNL     1      16.822   4.251   9.838  1.00  0.00    -0.345 OA
ATOM     24  H4  UNL     1      16.226   3.917  10.499  1.00  0.00     0.219 HD
ENDBRANCH  17  23
BRANCH  18  25
HETATM   25  C19 UNL     1      16.190   4.866   6.978  1.00  0.00     0.129 C
HETATM   26  C20 UNL     1      17.417   4.461   6.199  1.00  0.00     0.027 C
ENDBRANCH  18  25
BRANCH  19  27
HETATM   27  O3  UNL     1      16.273   7.871   6.688  1.00  0.00    -0.345 OA
ATOM     28  H3  UNL     1      16.178   7.485   5.825  1.00  0.00     0.219 HD
ENDBRANCH  19  27
ENDBRANCH   9  10
ENDBRANCH   8   9
ENDBRANCH   6   7
ENDBRANCH   4   5
ENDBRANCH   3   4
TORSDOF 9
ENDMDL