MODEL 1
REMARK VINA RESULT: -8.090988994      0.000      0.000
REMARK  6 active torsions:
REMARK  status: ('A' for Active; 'I' for Inactive)
REMARK    1  A    between atoms: C3_3  and  C4_4
REMARK    2  A    between atoms: C4_4  and  O1_5
REMARK    3  A    between atoms: C4_4  and  C5_7
REMARK    4  A    between atoms: C5_7  and  O2_8
REMARK    5  A    between atoms: C15_19  and  C16_20
REMARK    6  A    between atoms: C19_24  and  O3_25
ROOT
HETATM    1  C1  UNL     1      14.349   9.313  13.903  1.00  0.00     0.047 C
HETATM    2  C2  UNL     1      15.227   9.143  12.709  1.00  0.00    -0.040 C
HETATM    3  C3  UNL     1      14.977   9.816  11.601  1.00  0.00    -0.022 C
HETATM    4  C6  UNL     1      15.951   9.500  10.459  1.00  0.00     0.042 C
HETATM    5  C7  UNL     1      15.953   8.003  10.349  1.00  0.00     0.013 C
HETATM    6  C8  UNL     1      16.524   7.331  11.567  1.00  0.00     0.025 C
HETATM    7  C9  UNL     1      15.935   5.977  11.739  1.00  0.00     0.008 C
HETATM    8  C10 UNL     1      15.099   5.848  12.956  1.00  0.00     0.005 C
HETATM    9  C11 UNL     1      15.917   6.228  14.170  1.00  0.00    -0.007 C
HETATM   10  C12 UNL     1      16.832   5.047  14.444  1.00  0.00     0.010 C
HETATM   11  C13 UNL     1      17.784   5.310  15.609  1.00  0.00    -0.013 C
HETATM   12  C14 UNL     1      18.874   4.268  15.491  1.00  0.00     0.010 C
HETATM   13  C15 UNL     1      18.273   6.716  15.609  1.00  0.00    -0.000 C
HETATM   14  C17 UNL     1      18.122   7.222  14.178  1.00  0.00     0.014 C
HETATM   15  C18 UNL     1      16.602   7.524  14.049  1.00  0.00     0.029 C
HETATM   16  C19 UNL     1      16.409   8.246  12.751  1.00  0.00     0.089 C
ENDROOT
BRANCH   3  17
HETATM   17  C4  UNL     1      13.923  10.749  11.360  1.00  0.00     0.073 C
BRANCH  17  18
HETATM   18  O1  UNL     1      13.056  10.400  10.448  1.00  0.00    -0.362 OA
ATOM     19  H1  UNL     1      12.235  10.050  10.774  1.00  0.00     0.217 HD
ENDBRANCH  17  18
BRANCH  17  20
HETATM   20  C5  UNL     1      13.659  12.031  11.966  1.00  0.00     0.228 C
BRANCH  20  21
HETATM   21  O2  UNL     1      13.490  13.048  10.949  1.00  0.00    -0.394 OA
ATOM     22  H2  UNL     1      13.195  12.659  10.134  1.00  0.00     0.209 HD
ENDBRANCH  20  21
ENDBRANCH  17  20
ENDBRANCH   3  17
BRANCH  16  23
HETATM   23  O3  UNL     1      17.544   9.104  12.694  1.00  0.00    -0.384 OA
ATOM     24  H3  UNL     1      17.691   9.273  11.771  1.00  0.00     0.211 HD
ENDBRANCH  16  23
BRANCH  13  25
HETATM   25  C16 UNL     1      19.629   6.949  16.175  1.00  0.00     0.091 C
HETATM   26  S1  UNL     1      20.738   7.647  14.948  1.00  0.00    -0.097 SA
ENDBRANCH  13  25
TORSDOF 6
ENDMDL