MODEL 2
REMARK VINA RESULT: -9.248126714      3.229      7.311
REMARK  5 active torsions:
REMARK  status: ('A' for Active; 'I' for Inactive)
REMARK    1  A    between atoms: N1_1  and  C1_4
REMARK    2  A    between atoms: C2_9  and  S1_10
REMARK    3  A    between atoms: S1_10  and  C3_11
REMARK    4  A    between atoms: C3_11  and  C4_12
REMARK    5  A    between atoms: C15_25  and  C16_26
ROOT
HETATM    1  S1  UNL     1      15.987  10.154  12.207  1.00  0.00    -0.106 SA
ENDROOT
BRANCH   1   2
HETATM    2  C2  UNL     1      14.608  11.164  11.773  1.00  0.00     0.095 A
HETATM    3  N3  UNL     1      14.471  11.976  10.707  1.00  0.00    -0.292 N
HETATM    4  N2  UNL     1      13.284  12.551  10.729  1.00  0.00    -0.284 N
ATOM      5  H3  UNL     1      15.179  12.125   9.989  1.00  0.00     0.187 HD
HETATM    6  C1  UNL     1      12.609  12.141  11.798  1.00  0.00     0.123 A
ATOM      7  H2  UNL     1      12.937  13.209  10.031  1.00  0.00     0.188 HD
HETATM    8  C15 UNL     1      13.438  11.245  12.491  1.00  0.00     0.026 A
BRANCH   6   9
HETATM    9  N1  UNL     1      11.421  12.449  12.225  1.00  0.00    -0.384 N
ATOM     10  H12 UNL     1      10.863  13.181  11.786  1.00  0.00     0.157 HD
ATOM     11  H11 UNL     1      10.864  12.064  12.988  1.00  0.00     0.157 HD
ENDBRANCH   6   9
BRANCH   8  12
HETATM   12  C16 UNL     1      13.046  10.524  13.729  1.00  0.00     0.025 A
HETATM   13  C17 UNL     1      14.025   9.794  14.535  1.00  0.00     0.010 A
HETATM   14  C18 UNL     1      13.317  11.097  15.067  1.00  0.00     0.010 A
ENDBRANCH   8  12
ENDBRANCH   1   2
BRANCH   1  15
HETATM   15  C3  UNL     1      15.788   8.469  11.495  1.00  0.00     0.120 C
BRANCH  15  16
HETATM   16  C4  UNL     1      16.334   8.444  10.119  1.00  0.00    -0.034 A
HETATM   17  C5  UNL     1      16.617   9.673   9.547  1.00  0.00     0.091 A
HETATM   18  C6  UNL     1      17.118   9.791   8.293  1.00  0.00     0.288 A
HETATM   19  O1  UNL     1      17.355  10.929   7.821  1.00  0.00    -0.260 OA
HETATM   20  O2  UNL     1      17.320   8.680   7.648  1.00  0.00    -0.279 OA
HETATM   21  C7  UNL     1      17.079   7.499   8.120  1.00  0.00     0.064 A
HETATM   22  C8  UNL     1      16.564   7.255   9.399  1.00  0.00    -0.021 A
HETATM   23  C14 UNL     1      17.467   6.584   7.026  1.00  0.00     0.066 C
HETATM   24  C9  UNL     1      16.135   6.257  10.372  1.00  0.00     0.042 C
HETATM   25  C10 UNL     1      15.992   4.799   9.895  1.00  0.00     0.005 C
HETATM   26  C11 UNL     1      16.155   4.864   8.514  1.00  0.00     0.000 C
HETATM   27  C12 UNL     1      16.157   4.381   7.185  1.00  0.00     0.000 C
HETATM   28  C13 UNL     1      16.472   5.691   6.382  1.00  0.00     0.006 C
ENDBRANCH  15  16
ENDBRANCH   1  15
TORSDOF 5
ENDMDL