MODEL 3
REMARK VINA RESULT: -7.617413685      2.605      4.016
REMARK  4 active torsions:
REMARK  status: ('A' for Active; 'I' for Inactive)
REMARK    1  A    between atoms: C9_12  and  C10_13
REMARK    2  A    between atoms: C13_20  and  C14_21
REMARK    3  A    between atoms: C14_21  and  C15_22
REMARK    4  A    between atoms: C15_22  and  C16_23
ROOT
HETATM    1  N1  UNL     1      16.483   7.360  10.522  1.00  0.00    -0.191 NA
HETATM    2  C1  UNL     1      15.913   7.900  11.381  1.00  0.00     0.100 C
HETATM    3  C2  UNL     1      15.211   8.591  12.437  1.00  0.00     0.057 A
HETATM    4  C3  UNL     1      15.003   9.953  12.402  1.00  0.00     0.053 A
HETATM    5  C4  UNL     1      14.331  10.572  13.423  1.00  0.00     0.043 A
HETATM    6  N2  UNL     1      14.006  11.868  13.616  1.00  0.00    -0.365 N
ATOM      7  H2  UNL     1      14.219  12.651  12.998  1.00  0.00     0.165 HD
HETATM    8  C5  UNL     1      13.350  11.918  14.780  1.00  0.00     0.089 A
HETATM    9  C6  UNL     1      13.244  10.668  15.347  1.00  0.00     0.030 A
HETATM   10  C7  UNL     1      13.874   9.815  14.475  1.00  0.00    -0.007 A
HETATM   11  C8  UNL     1      14.091   8.433  14.499  1.00  0.00     0.026 A
HETATM   12  C9  UNL     1      14.761   7.785  13.491  1.00  0.00    -0.013 A
ENDROOT
BRANCH  12  13
HETATM   13  C10 UNL     1      15.015   6.359  13.499  1.00  0.00     0.029 C
HETATM   14  C11 UNL     1      16.048   5.864  14.063  1.00  0.00     0.009 C
HETATM   15  S1  UNL     1      17.347   6.737  14.922  1.00  0.00    -0.063 SA
HETATM   16  C13 UNL     1      16.476   4.457  14.171  1.00  0.00     0.123 C
HETATM   17  C12 UNL     1      17.978   5.285  15.787  1.00  0.00     0.139 C
HETATM   18  S2  UNL     1      19.331   5.264  16.663  1.00  0.00    -0.053 SA
HETATM   19  N3  UNL     1      17.035   4.264  15.507  1.00  0.00    -0.366 N
ATOM     20  H3  UNL     1      16.783   3.507  16.143  1.00  0.00     0.161 HD
BRANCH  16  21
HETATM   21  C14 UNL     1      15.427   3.454  13.832  1.00  0.00     0.031 C
BRANCH  21  22
HETATM   22  C15 UNL     1      15.875   2.643  12.617  1.00  0.00     0.013 C
BRANCH  22  23
HETATM   23  C16 UNL     1      15.612   3.398  11.329  1.00  0.00     0.086 C
HETATM   24  S3  UNL     1      17.162   3.592  10.396  1.00  0.00    -0.098 SA
ENDBRANCH  22  23
ENDBRANCH  21  22
ENDBRANCH  16  21
ENDBRANCH  12  13
TORSDOF 4
ENDMDL