MODEL 5
REMARK VINA RESULT: -7.377473931      1.936      2.593
REMARK  6 active torsions:
REMARK  status: ('A' for Active; 'I' for Inactive)
REMARK    1  A    between atoms: C2_2  and  C4_4
REMARK    2  A    between atoms: C4_4  and  C5_8
REMARK    3  A    between atoms: C6_9  and  C7_10
REMARK    4  A    between atoms: C7_10  and  C8_11
REMARK    5  A    between atoms: C8_11  and  O1_12
REMARK    6  A    between atoms: C9_14  and  O2_15
ROOT
HETATM    1  C7  UNL     1      16.867   8.289  10.000  1.00  0.00     0.032 C
HETATM    2  C9  UNL     1      17.642   9.427   9.368  1.00  0.00     0.133 C
HETATM    3  C10 UNL     1      18.110   9.246   7.958  1.00  0.00     0.034 C
HETATM    4  C11 UNL     1      17.286   8.288   7.169  1.00  0.00     0.012 C
HETATM    5  C12 UNL     1      17.160   6.948   7.901  1.00  0.00    -0.034 C
HETATM    6  C13 UNL     1      16.017   6.291   7.295  1.00  0.00     0.016 C
HETATM    7  C14 UNL     1      18.403   6.168   7.368  1.00  0.00     0.046 C
HETATM    8  C15 UNL     1      18.309   4.830   8.048  1.00  0.00     0.055 C
HETATM    9  C16 UNL     1      17.943   3.827   6.930  1.00  0.00     0.045 C
HETATM   10  C17 UNL     1      19.734   4.439   8.391  1.00  0.00     0.045 C
HETATM   11  O3  UNL     1      17.373   4.696   8.978  1.00  0.00    -0.370 OA
HETATM   12  C18 UNL     1      17.258   5.704   9.985  1.00  0.00     0.060 C
HETATM   13  C19 UNL     1      18.387   5.277  10.933  1.00  0.00     0.046 C
HETATM   14  C20 UNL     1      15.999   5.321  10.673  1.00  0.00     0.046 C
HETATM   15  C21 UNL     1      17.392   7.026   9.368  1.00  0.00     0.044 C
ENDROOT
BRANCH   1  16
HETATM   16  C6  UNL     1      17.178   8.424  11.423  1.00  0.00    -0.010 C
HETATM   17  C5  UNL     1      16.697   8.337  12.591  1.00  0.00     0.026 C
BRANCH  17  18
HETATM   18  C4  UNL     1      15.545   8.051  13.370  1.00  0.00     0.030 C
HETATM   19  N1  UNL     1      15.133   6.953  13.785  1.00  0.00    -0.399 N
ATOM     20  H12 UNL     1      14.306   6.748  14.345  1.00  0.00     0.156 HD
ATOM     21  H11 UNL     1      15.738   6.180  13.511  1.00  0.00     0.156 HD
BRANCH  18  22
HETATM   22  C2  UNL     1      14.639   9.210  13.781  1.00  0.00    -0.045 C
HETATM   23  C1  UNL     1      13.881   9.111  14.840  1.00  0.00     0.021 C
HETATM   24  C3  UNL     1      14.623  10.446  12.974  1.00  0.00     0.049 C
ENDBRANCH  18  22
ENDBRANCH  17  18
ENDBRANCH   1  16
BRANCH   1  25
HETATM   25  C8  UNL     1      15.369   8.416   9.832  1.00  0.00     0.180 C
BRANCH  25  26
HETATM   26  O1  UNL     1      14.966   9.726   9.638  1.00  0.00    -0.400 OA
ATOM     27  H1  UNL     1      14.081   9.884   9.943  1.00  0.00     0.209 HD
ENDBRANCH  25  26
ENDBRANCH   1  25
BRANCH   2  28
HETATM   28  O2  UNL     1      18.832   9.677  10.074  1.00  0.00    -0.394 OA
ATOM     29  H2  UNL     1      19.331  10.371   9.662  1.00  0.00     0.210 HD
ENDBRANCH   2  28
TORSDOF 6
ENDMDL