MODEL 2
REMARK VINA RESULT: -7.532395159      1.477      3.383
REMARK  7 active torsions:
REMARK  status: ('A' for Active; 'I' for Inactive)
REMARK    1  A    between atoms: C2_2  and  C4_4
REMARK    2  A    between atoms: C4_4  and  C5_5
REMARK    3  A    between atoms: C5_5  and  C6_6
REMARK    4  A    between atoms: C6_6  and  N1_7
REMARK    5  A    between atoms: C9_11  and  O1_12
REMARK    6  A    between atoms: C10_14  and  O2_15
REMARK    7  A    between atoms: C20_26  and  O3_27
ROOT
HETATM    1  N1  UNL     1      15.262   9.204  13.517  1.00  0.00    -0.394 N
ATOM      2  H1  UNL     1      15.220   8.424  14.174  1.00  0.00     0.159 HD
HETATM    3  C7  UNL     1      16.172   9.171  12.621  1.00  0.00     0.014 C
HETATM    4  C8  UNL     1      16.264  10.293  11.646  1.00  0.00     0.089 C
HETATM    5  C9  UNL     1      16.606   9.633  10.297  1.00  0.00     0.152 C
HETATM    6  C10 UNL     1      15.774   8.441  10.099  1.00  0.00     0.152 C
HETATM    7  C11 UNL     1      16.311   7.093  10.397  1.00  0.00     0.036 C
HETATM    8  C12 UNL     1      17.407   6.596   9.513  1.00  0.00    -0.041 C
HETATM    9  C13 UNL     1      17.541   7.296   8.206  1.00  0.00     0.015 C
HETATM   10  C14 UNL     1      17.204   5.109   9.164  1.00  0.00     0.015 C
HETATM   11  C15 UNL     1      18.776   6.624  10.191  1.00  0.00     0.009 C
HETATM   12  C16 UNL     1      18.782   5.803  11.452  1.00  0.00     0.002 C
HETATM   13  C17 UNL     1      17.459   5.660  12.103  1.00  0.00     0.012 C
HETATM   14  C18 UNL     1      16.528   6.837  11.856  1.00  0.00    -0.006 C
HETATM   15  C19 UNL     1      15.211   6.431  12.544  1.00  0.00     0.019 C
HETATM   16  C20 UNL     1      17.069   7.983  12.646  1.00  0.00     0.172 C
ENDROOT
BRANCH   1  17
HETATM   17  C6  UNL     1      14.310  10.236  13.670  1.00  0.00     0.119 C
BRANCH  17  18
HETATM   18  C5  UNL     1      13.507  10.086  14.964  1.00  0.00     0.020 C
BRANCH  18  19
HETATM   19  C4  UNL     1      13.158  11.443  15.530  1.00  0.00     0.005 C
BRANCH  19  20
HETATM   20  C2  UNL     1      12.927  11.419  17.004  1.00  0.00    -0.023 C
HETATM   21  C1  UNL     1      11.486  11.857  17.270  1.00  0.00     0.009 C
HETATM   22  C3  UNL     1      13.859  12.459  17.623  1.00  0.00     0.009 C
ENDBRANCH  19  20
ENDBRANCH  18  19
ENDBRANCH  17  18
ENDBRANCH   1  17
BRANCH  16  23
HETATM   23  O3  UNL     1      17.170   7.571  13.972  1.00  0.00    -0.389 OA
ATOM     24  H3  UNL     1      17.459   6.666  13.964  1.00  0.00     0.210 HD
ENDBRANCH  16  23
BRANCH   5  25
HETATM   25  O1  UNL     1      16.278  10.630   9.345  1.00  0.00    -0.393 OA
ATOM     26  H1  UNL     1      15.609  10.217   8.811  1.00  0.00     0.210 HD
ENDBRANCH   5  25
BRANCH   6  27
HETATM   27  O2  UNL     1      15.235   8.491   8.791  1.00  0.00    -0.393 OA
ATOM     28  H2  UNL     1      14.436   7.977   8.780  1.00  0.00     0.210 HD
ENDBRANCH   6  27
TORSDOF 7
ENDMDL