MODEL 4
REMARK VINA RESULT: -8.922529539      1.857      2.506
REMARK  5 active torsions:
REMARK  status: ('A' for Active; 'I' for Inactive)
REMARK    1  A    between atoms: C3_6  and  O2_7
REMARK    2  A    between atoms: O2_7  and  C4_8
REMARK    3  A    between atoms: C11_15  and  C12_16
REMARK    4  A    between atoms: C14_22  and  C15_23
REMARK    5  A    between atoms: C18_26  and  O3_27
ROOT
HETATM    1  O1  UNL     1      15.301   9.241   9.444  1.00  0.00    -0.267 OA
HETATM    2  C1  UNL     1      15.047   9.482  10.646  1.00  0.00     0.256 A
HETATM    3  N1  UNL     1      14.086  10.369  10.983  1.00  0.00    -0.330 N
ATOM      4  H1  UNL     1      13.551  10.858  10.265  1.00  0.00     0.168 HD
HETATM    5  C2  UNL     1      13.853  10.591  12.293  1.00  0.00     0.128 A
HETATM    6  C3  UNL     1      14.552   9.955  13.288  1.00  0.00     0.085 A
HETATM    7  C10 UNL     1      15.542   9.040  12.939  1.00  0.00     0.056 A
HETATM    8  C11 UNL     1      15.788   8.806  11.622  1.00  0.00     0.048 A
ENDROOT
BRANCH   8   9
HETATM    9  C12 UNL     1      16.804   7.846  11.228  1.00  0.00     0.021 A
HETATM   10  C13 UNL     1      18.091   8.150  10.815  1.00  0.00     0.121 A
HETATM   11  N2  UNL     1      18.694   6.994  10.534  1.00  0.00    -0.311 N
HETATM   12  N3  UNL     1      17.856   6.014  10.751  1.00  0.00    -0.304 N
ATOM     13  H2  UNL     1      19.653   6.892  10.205  1.00  0.00     0.186 HD
HETATM   14  C14 UNL     1      16.666   6.490  11.183  1.00  0.00     0.042 A
ATOM     15  H3  UNL     1      18.070   5.027  10.613  1.00  0.00     0.186 HD
BRANCH  14  16
HETATM   16  C15 UNL     1      15.538   5.600  11.518  1.00  0.00     0.040 C
HETATM   17  C16 UNL     1      15.757   4.212  10.892  1.00  0.00     0.013 C
HETATM   18  C17 UNL     1      15.528   3.207  11.974  1.00  0.00     0.032 C
HETATM   19  C18 UNL     1      14.727   3.956  12.987  1.00  0.00     0.118 C
HETATM   20  C19 UNL     1      15.435   5.308  13.005  1.00  0.00     0.042 C
BRANCH  19  21
HETATM   21  O3  UNL     1      14.761   3.397  14.251  1.00  0.00    -0.396 OA
ATOM     22  H3  UNL     1      15.541   2.883  14.424  1.00  0.00     0.210 HD
ENDBRANCH  19  21
ENDBRANCH  14  16
ENDBRANCH   8   9
BRANCH   6  23
HETATM   23  O2  UNL     1      14.304  10.191  14.610  1.00  0.00    -0.344 OA
BRANCH  23  24
HETATM   24  C4  UNL     1      13.205  10.785  15.208  1.00  0.00     0.129 C
HETATM   25  C5  UNL     1      13.454  12.282  15.332  1.00  0.00     0.032 C
HETATM   26  C6  UNL     1      12.208  12.972  15.846  1.00  0.00     0.002 C
HETATM   27  C7  UNL     1      11.372  12.059  16.705  1.00  0.00     0.000 C
HETATM   28  C8  UNL     1      12.188  11.054  17.461  1.00  0.00     0.002 C
HETATM   29  C9  UNL     1      13.158  10.269  16.652  1.00  0.00     0.032 C
ENDBRANCH  23  24
ENDBRANCH   6  23
TORSDOF 5
ENDMDL