MODEL 5
REMARK VINA RESULT: -8.473644593      1.141      1.585
REMARK  6 active torsions:
REMARK  status: ('A' for Active; 'I' for Inactive)
REMARK       I    between atoms: C1_2  and  N1_3
REMARK    1  A    between atoms: C1_2  and  C12_15
REMARK    2  A    between atoms: N1_3  and  C2_5
REMARK    3  A    between atoms: C14_17  and  O2_18
REMARK    4  A    between atoms: N2_20  and  C15_21
REMARK    5  A    between atoms: C15_21  and  C16_22
REMARK    6  A    between atoms: C20_26  and  O3_27
ROOT
HETATM    1  C12 UNL     1      14.291  10.789  11.592  1.00  0.00     0.087 A
HETATM    2  C13 UNL     1      13.356  11.709  11.172  1.00  0.00     0.077 A
HETATM    3  C14 UNL     1      12.530  12.030  12.219  1.00  0.00     0.145 A
HETATM    4  N2  UNL     1      12.957  11.309  13.273  1.00  0.00    -0.307 N
HETATM    5  C20 UNL     1      14.009  10.556  12.931  1.00  0.00     0.160 A
ENDROOT
BRANCH   1   6
HETATM    6  C1  UNL     1      15.366  10.179  10.786  1.00  0.00     0.256 C
HETATM    7  O1  UNL     1      16.504  10.650  10.876  1.00  0.00    -0.267 OA
HETATM    8  N1  UNL     1      15.055   9.093   9.954  1.00  0.00    -0.347 N
ATOM      9  H1  UNL     1      14.094   8.751   9.924  1.00  0.00     0.163 HD
BRANCH   8  10
HETATM   10  C2  UNL     1      16.049   8.446   9.141  1.00  0.00     0.034 C
HETATM   11  C3  UNL     1      16.704   9.444   8.248  1.00  0.00     0.035 C
HETATM   12  C4  UNL     1      17.813   8.762   7.444  1.00  0.00    -0.012 C
HETATM   13  C5  UNL     1      17.117   7.715   6.578  1.00  0.00     0.009 C
HETATM   14  C9  UNL     1      18.842   8.124   8.327  1.00  0.00     0.009 C
HETATM   15  C6  UNL     1      16.439   6.694   7.454  1.00  0.00    -0.012 C
HETATM   16  C7  UNL     1      17.519   6.048   8.305  1.00  0.00     0.009 C
HETATM   17  C11 UNL     1      15.419   7.315   8.393  1.00  0.00     0.035 C
HETATM   18  C8  UNL     1      18.111   7.102   9.181  1.00  0.00    -0.012 C
HETATM   19  C10 UNL     1      17.119   7.822  10.044  1.00  0.00     0.035 C
ENDBRANCH   8  10
ENDBRANCH   1   6
BRANCH   5  20
HETATM   20  O3  UNL     1      14.762   9.670  13.681  1.00  0.00    -0.345 OA
ATOM     21  H3  UNL     1      14.360   9.106  14.332  1.00  0.00     0.219 HD
ENDBRANCH   5  20
BRANCH   3  22
HETATM   22  O2  UNL     1      11.447  12.927  12.221  1.00  0.00    -0.346 OA
ATOM     23  H2  UNL     1      11.219  13.565  12.886  1.00  0.00     0.219 HD
ENDBRANCH   3  22
BRANCH   4  24
HETATM   24  C15 UNL     1      12.347  11.356  14.563  1.00  0.00     0.138 C
BRANCH  24  25
HETATM   25  C16 UNL     1      13.167  11.977  15.637  1.00  0.00     0.004 C
HETATM   26  C17 UNL     1      13.586  11.146  16.801  1.00  0.00     0.006 C
HETATM   27  C18 UNL     1      13.375  12.405  17.663  1.00  0.00     0.001 C
HETATM   28  C19 UNL     1      12.303  12.776  16.625  1.00  0.00     0.006 C
ENDBRANCH  24  25
ENDBRANCH   4  24
TORSDOF 6
ENDMDL