MODEL 5
REMARK VINA RESULT: -7.070497149      1.780      4.103
REMARK  7 active torsions:
REMARK  status: ('A' for Active; 'I' for Inactive)
REMARK    1  A    between atoms: C2_2  and  C3_3
REMARK    2  A    between atoms: C3_3  and  C4_4
REMARK    3  A    between atoms: C5_5  and  O1_6
REMARK    4  A    between atoms: C9_11  and  O2_12
REMARK    5  A    between atoms: C13_17  and  C14_18
REMARK    6  A    between atoms: C18_22  and  C19_23
REMARK    7  A    between atoms: C21_26  and  O4_27
ROOT
HETATM    1  C4  UNL     1      15.249   5.917  14.308  1.00  0.00     0.023 C
HETATM    2  C5  UNL     1      15.829   5.105  15.442  1.00  0.00     0.123 C
HETATM    3  C6  UNL     1      17.352   4.960  15.384  1.00  0.00     0.037 C
HETATM    4  C7  UNL     1      17.956   6.283  15.148  1.00  0.00    -0.005 C
HETATM    5  C8  UNL     1      19.477   6.227  15.105  1.00  0.00     0.037 C
HETATM    6  C9  UNL     1      20.071   6.329  13.758  1.00  0.00     0.118 C
HETATM    7  C10 UNL     1      19.517   7.406  12.891  1.00  0.00     0.032 C
HETATM    8  C11 UNL     1      18.265   8.025  13.549  1.00  0.00     0.008 C
HETATM    9  C12 UNL     1      17.401   6.857  13.863  1.00  0.00    -0.001 C
HETATM   10  C13 UNL     1      15.920   7.228  14.153  1.00  0.00     0.032 C
ENDROOT
BRANCH  10  11
HETATM   11  C14 UNL     1      15.475   8.181  13.160  1.00  0.00    -0.019 A
HETATM   12  C15 UNL     1      15.791   8.295  11.851  1.00  0.00     0.018 A
HETATM   13  C16 UNL     1      15.347   9.338  11.076  1.00  0.00    -0.048 A
HETATM   14  C17 UNL     1      15.739   9.496   9.619  1.00  0.00     0.049 C
HETATM   15  C18 UNL     1      14.545  10.350  11.550  1.00  0.00     0.010 A
HETATM   16  C20 UNL     1      14.207  10.266  12.901  1.00  0.00     0.052 A
HETATM   17  C21 UNL     1      14.656   9.228  13.651  1.00  0.00     0.073 A
BRANCH  15  18
HETATM   18  C19 UNL     1      14.039  11.436  10.730  1.00  0.00     0.270 C
HETATM   19  O3  UNL     1      12.808  11.718  10.842  1.00  0.00    -0.301 OA
ENDBRANCH  15  18
BRANCH  17  20
HETATM   20  O4  UNL     1      14.288   9.191  15.002  1.00  0.00    -0.360 OA
ATOM     21  H4  UNL     1      13.712   9.873  15.323  1.00  0.00     0.217 HD
ENDBRANCH  17  20
ENDBRANCH  10  11
BRANCH   1  22
HETATM   22  C3  UNL     1      14.549   5.148  13.302  1.00  0.00     0.007 C
BRANCH  22  23
HETATM   23  C2  UNL     1      15.304   4.293  12.343  1.00  0.00    -0.004 C
HETATM   24  C1  UNL     1      15.961   4.687  11.126  1.00  0.00     0.005 C
ENDBRANCH  22  23
ENDBRANCH   1  22
BRANCH   2  25
HETATM   25  O1  UNL     1      15.431   5.606  16.651  1.00  0.00    -0.395 OA
ATOM     26  H1  UNL     1      15.747   5.062  17.362  1.00  0.00     0.210 HD
ENDBRANCH   2  25
BRANCH   6  27
HETATM   27  O2  UNL     1      20.145   5.079  13.130  1.00  0.00    -0.396 OA
ATOM     28  H2  UNL     1      19.765   4.394  13.667  1.00  0.00     0.210 HD
ENDBRANCH   6  27
TORSDOF 7
ENDMDL