MODEL 1
REMARK VINA RESULT: -8.415387357      0.000      0.000
REMARK  5 active torsions:
REMARK  status: ('A' for Active; 'I' for Inactive)
REMARK    1  A    between atoms: C2_2  and  C3_3
REMARK    2  A    between atoms: C3_3  and  C5_5
REMARK    3  A    between atoms: C5_5  and  C6_6
REMARK    4  A    between atoms: C6_6  and  N1_8
REMARK    5  A    between atoms: N1_8  and  C8_10
ROOT
HETATM    1  C8  UNL     1      15.582   9.780  10.833  1.00  0.00     0.148 A
HETATM    2  N2  UNL     1      15.883   9.734   9.525  1.00  0.00    -0.303 N
ATOM      3  H2  UNL     1      15.807  10.615   9.016  1.00  0.00     0.171 HD
HETATM    4  C9  UNL     1      16.264   8.687   8.819  1.00  0.00     0.255 A
HETATM    5  O1  UNL     1      16.494   8.907   7.575  1.00  0.00    -0.268 OA
HETATM    6  C10 UNL     1      16.453   7.396   9.220  1.00  0.00     0.037 A
HETATM    7  C11 UNL     1      16.236   7.041  10.539  1.00  0.00     0.026 A
HETATM    8  S1  UNL     1      15.728   8.282  11.627  1.00  0.00    -0.055 SA
HETATM    9  C12 UNL     1      16.438   5.633  11.012  1.00  0.00     0.058 C
HETATM   10  C13 UNL     1      15.678   5.398  12.309  1.00  0.00     0.044 C
HETATM   11  C14 UNL     1      17.885   5.271  11.135  1.00  0.00     0.044 C
HETATM   12  N3  UNL     1      15.825   4.773  10.016  1.00  0.00    -0.366 N
ATOM     13  H3  UNL     1      15.247   3.976  10.283  1.00  0.00     0.162 HD
HETATM   14  C15 UNL     1      16.066   5.088   8.665  1.00  0.00     0.080 C
HETATM   15  N4  UNL     1      15.564   4.326   7.753  1.00  0.00    -0.389 N
ATOM     16  H41 UNL     1      15.738   4.554   6.774  1.00  0.00     0.157 HD
ATOM     17  H42 UNL     1      15.001   3.505   7.975  1.00  0.00     0.157 HD
HETATM   18  C16 UNL     1      16.887   6.285   8.341  1.00  0.00     0.088 C
HETATM   19  C17 UNL     1      16.785   6.515   6.880  1.00  0.00     0.023 C
ENDROOT
BRANCH   1  20
HETATM   20  N1  UNL     1      15.221  10.844  11.447  1.00  0.00    -0.366 N
ATOM     21  H1  UNL     1      15.871  11.630  11.473  1.00  0.00     0.162 HD
BRANCH  20  22
HETATM   22  C6  UNL     1      13.940  10.993  12.109  1.00  0.00     0.080 C
HETATM   23  C7  UNL     1      13.076  11.968  11.391  1.00  0.00     0.032 C
BRANCH  22  24
HETATM   24  C5  UNL     1      14.159  11.214  13.551  1.00  0.00     0.029 C
BRANCH  24  25
HETATM   25  C3  UNL     1      13.285  10.536  14.528  1.00  0.00    -0.017 C
HETATM   26  C4  UNL     1      13.904   9.139  14.755  1.00  0.00     0.010 C
BRANCH  25  27
HETATM   27  C2  UNL     1      13.125  11.138  15.872  1.00  0.00    -0.000 C
HETATM   28  C1  UNL     1      12.031  12.215  15.731  1.00  0.00     0.005 C
ENDBRANCH  25  27
ENDBRANCH  24  25
ENDBRANCH  22  24
ENDBRANCH  20  22
ENDBRANCH   1  20
TORSDOF 5
ENDMDL