MODEL 1
REMARK VINA RESULT: -9.157701689      0.000      0.000
REMARK  5 active torsions:
REMARK  status: ('A' for Active; 'I' for Inactive)
REMARK    1  A    between atoms: C2_2  and  C3_3
REMARK    2  A    between atoms: C3_3  and  C4_4
REMARK    3  A    between atoms: C5_5  and  O1_6
REMARK    4  A    between atoms: C12_17  and  C13_18
REMARK    5  A    between atoms: C16_26  and  C17_27
ROOT
HETATM    1  C4  UNL     1      90.083 116.465 132.113  1.00  0.00    -0.015 A
HETATM    2  C5  UNL     1      89.502 116.937 133.249  1.00  0.00     0.106 A
HETATM    3  C6  UNL     1      89.027 118.255 133.233  1.00  0.00     0.118 A
HETATM    4  C7  UNL     1      89.146 119.052 132.099  1.00  0.00     0.062 A
HETATM    5  C8  UNL     1      89.747 118.553 130.930  1.00  0.00    -0.004 A
HETATM    6  C9  UNL     1      90.203 117.249 130.988  1.00  0.00    -0.030 A
HETATM    7  C10 UNL     1      90.894 116.572 129.848  1.00  0.00     0.142 C
HETATM    8  C11 UNL     1      90.700 117.259 128.578  1.00  0.00     0.222 C
HETATM    9  O2  UNL     1      91.241 116.784 127.546  1.00  0.00    -0.273 OA
HETATM   10  N1  UNL     1      89.909 118.429 128.575  1.00  0.00    -0.346 N
ATOM     11  H1  UNL     1      89.339 118.632 127.754  1.00  0.00     0.163 HD
HETATM   12  C12 UNL     1      89.873 119.364 129.704  1.00  0.00     0.180 C
HETATM   13  C14 UNL     1      88.657 120.411 132.151  1.00  0.00     0.210 C
HETATM   14  O4  UNL     1      88.729 121.181 131.189  1.00  0.00    -0.285 OA
HETATM   15  C15 UNL     1      88.052 120.927 133.373  1.00  0.00     0.084 C
HETATM   16  N2  UNL     1      87.862 122.194 133.557  1.00  0.00    -0.397 N
ATOM     17  H21 UNL     1      87.440 122.554 134.412  1.00  0.00     0.156 HD
ATOM     18  H22 UNL     1      88.139 122.865 132.841  1.00  0.00     0.156 HD
HETATM   19  C16 UNL     1      87.652 119.955 134.410  1.00  0.00     0.182 C
HETATM   20  O5  UNL     1      88.430 118.783 134.353  1.00  0.00    -0.336 OA
ENDROOT
BRANCH   1  21
HETATM   21  C3  UNL     1      90.569 115.043 132.136  1.00  0.00     0.042 C
BRANCH  21  22
HETATM   22  C2  UNL     1      89.374 114.160 131.887  1.00  0.00     0.000 C
HETATM   23  C1  UNL     1      89.742 112.938 131.062  1.00  0.00     0.005 C
ENDBRANCH  21  22
ENDBRANCH   1  21
BRANCH   2  24
HETATM   24  O1  UNL     1      89.340 116.227 134.426  1.00  0.00    -0.357 OA
ATOM     25  H1  UNL     1      88.820 116.504 135.171  1.00  0.00     0.217 HD
ENDBRANCH   2  24
BRANCH  12  26
HETATM   26  C13 UNL     1      91.175 120.069 129.615  1.00  0.00     0.261 C
HETATM   27  O3  UNL     1      91.986 120.104 130.499  1.00  0.00    -0.304 OA
ENDBRANCH  12  26
BRANCH  19  28
HETATM   28  C17 UNL     1      87.760 120.505 135.816  1.00  0.00     0.034 C
HETATM   29  C18 UNL     1      86.445 120.654 136.504  1.00  0.00     0.008 C
ENDBRANCH  19  28
TORSDOF 5
ENDMDL