MODEL 1
REMARK VINA RESULT: -8.201741137      0.000      0.000
REMARK  6 active torsions:
REMARK  status: ('A' for Active; 'I' for Inactive)
REMARK    1  A    between atoms: C2_2  and  C3_3
REMARK    2  A    between atoms: C4_6  and  N2_7
REMARK    3  A    between atoms: N2_7  and  C5_9
REMARK    4  A    between atoms: C11_17  and  O1_18
REMARK    5  A    between atoms: C16_25  and  C17_26
REMARK    6  A    between atoms: C17_26  and  O3_27
ROOT
HETATM    1  C5  UNL     1      87.838 120.783 131.006  1.00  0.00     0.139 C
HETATM    2  C6  UNL     1      87.689 121.374 129.619  1.00  0.00     0.150 C
HETATM    3  N3  UNL     1      89.074 121.526 129.220  1.00  0.00    -0.387 N
ATOM      4  H3  UNL     1      89.479 122.276 128.659  1.00  0.00     0.159 HD
HETATM    5  C7  UNL     1      89.754 120.394 129.784  1.00  0.00     0.048 A
HETATM    6  C8  UNL     1      90.922 119.744 129.456  1.00  0.00     0.004 A
HETATM    7  C9  UNL     1      91.384 118.646 130.163  1.00  0.00     0.080 A
HETATM    8  C10 UNL     1      90.644 118.191 131.234  1.00  0.00     0.074 A
HETATM    9  C11 UNL     1      89.462 118.828 131.587  1.00  0.00     0.081 A
HETATM   10  C13 UNL     1      89.033 119.920 130.859  1.00  0.00     0.026 A
HETATM   11  O2  UNL     1      92.579 118.206 129.601  1.00  0.00    -0.350 OA
HETATM   12  C14 UNL     1      93.096 119.202 128.734  1.00  0.00     0.180 C
HETATM   13  C15 UNL     1      91.889 120.037 128.357  1.00  0.00     0.070 C
ENDROOT
BRANCH   1  14
HETATM   14  N2  UNL     1      88.031 121.869 131.911  1.00  0.00    -0.360 N
ATOM     15  H2  UNL     1      88.098 122.809 131.520  1.00  0.00     0.162 HD
BRANCH  14  16
HETATM   16  C4  UNL     1      88.129 121.739 133.208  1.00  0.00     0.145 A
HETATM   17  N1  UNL     1      87.529 120.893 134.038  1.00  0.00    -0.339 N
HETATM   18  C3  UNL     1      87.805 120.970 135.319  1.00  0.00     0.026 A
ATOM     19  H1  UNL     1      86.870 120.198 133.688  1.00  0.00     0.168 HD
HETATM   20  C16 UNL     1      88.699 121.928 135.717  1.00  0.00     0.032 A
HETATM   21  S1  UNL     1      89.106 122.674 134.238  1.00  0.00    -0.055 SA
BRANCH  18  22
HETATM   22  C2  UNL     1      87.166 120.041 136.347  1.00  0.00     0.054 C
HETATM   23  C1  UNL     1      85.941 120.659 136.943  1.00  0.00     0.011 C
ENDBRANCH  18  22
BRANCH  20  24
HETATM   24  C17 UNL     1      89.176 122.213 137.121  1.00  0.00     0.212 C
BRANCH  24  25
HETATM   25  O3  UNL     1      88.192 122.990 137.726  1.00  0.00    -0.396 OA
ATOM     26  H3  UNL     1      88.643 123.623 138.272  1.00  0.00     0.209 HD
ENDBRANCH  24  25
ENDBRANCH  20  24
ENDBRANCH  14  16
ENDBRANCH   1  14
BRANCH   9  27
HETATM   27  O1  UNL     1      88.708 118.373 132.671  1.00  0.00    -0.355 OA
HETATM   28  C12 UNL     1      88.984 117.160 133.305  1.00  0.00     0.210 C
ENDBRANCH   9  27
TORSDOF 6
ENDMDL