MODEL 4
REMARK VINA RESULT: -8.759527899      1.355      1.355
REMARK  5 active torsions:
REMARK  status: ('A' for Active; 'I' for Inactive)
REMARK    1  A    between atoms: C2_5  and  N2_6
REMARK    2  A    between atoms: N2_6  and  C3_8
REMARK    3  A    between atoms: C3_8  and  C4_9
REMARK    4  A    between atoms: C4_9  and  N3_10
REMARK    5  A    between atoms: N3_10  and  C5_12
ROOT
HETATM    1  O1  UNL     1      93.196 119.703 128.573  1.00  0.00    -0.267 OA
HETATM    2  C1  UNL     1      92.106 119.611 129.195  1.00  0.00     0.272 A
HETATM    3  N1  UNL     1      91.110 120.490 129.004  1.00  0.00    -0.155 N
ATOM      4  H1  UNL     1      91.226 121.258 128.342  1.00  0.00     0.187 HD
HETATM    5  C2  UNL     1      89.976 120.359 129.678  1.00  0.00     0.681 A
HETATM    6  N4  UNL     1      89.785 119.350 130.572  1.00  0.00    -0.189 N
ATOM      7  H4  UNL     1      88.898 119.285 131.072  1.00  0.00     0.184 HD
HETATM    8  C11 UNL     1      90.739 118.444 130.806  1.00  0.00     0.094 A
HETATM    9  C12 UNL     1      91.922 118.589 130.094  1.00  0.00     0.062 A
HETATM   10  C13 UNL     1      92.943 117.666 130.303  1.00  0.00     0.022 A
HETATM   11  C14 UNL     1      92.744 116.645 131.203  1.00  0.00     0.033 A
HETATM   12  C15 UNL     1      91.542 116.508 131.918  1.00  0.00     0.069 A
HETATM   13  N5  UNL     1      91.310 115.530 132.802  1.00  0.00    -0.310 N
ATOM     14  H5  UNL     1      91.936 114.773 133.079  1.00  0.00     0.176 HD
HETATM   15  S1  UNL     1      89.755 115.837 133.347  1.00  0.00     0.068 SA
HETATM   16  N6  UNL     1      89.435 117.207 132.434  1.00  0.00    -0.308 N
ATOM     17  H6  UNL     1      88.585 117.769 132.422  1.00  0.00     0.176 HD
HETATM   18  C16 UNL     1      90.556 117.392 131.723  1.00  0.00     0.095 A
ENDROOT
BRANCH   5  19
HETATM   19  N2  UNL     1      88.991 121.161 129.522  1.00  0.00    -0.221 N
ATOM     20  H2  UNL     1      89.123 122.001 128.960  1.00  0.00     0.178 HD
BRANCH  19  21
HETATM   21  C3  UNL     1      87.688 120.911 130.120  1.00  0.00     0.182 C
BRANCH  21  22
HETATM   22  C4  UNL     1      87.426 121.892 131.227  1.00  0.00     0.076 C
BRANCH  22  23
HETATM   23  N3  UNL     1      88.371 121.917 132.241  1.00  0.00    -0.396 N
ATOM     24  H3  UNL     1      89.315 122.207 131.986  1.00  0.00     0.159 HD
BRANCH  23  25
HETATM   25  C5  UNL     1      88.150 121.585 133.569  1.00  0.00     0.080 C
HETATM   26  C6  UNL     1      87.028 122.234 134.286  1.00  0.00     0.025 C
HETATM   27  C7  UNL     1      86.339 121.302 135.273  1.00  0.00     0.002 C
HETATM   28  C8  UNL     1      87.341 120.442 136.010  1.00  0.00     0.000 C
HETATM   29  C9  UNL     1      88.131 119.573 135.050  1.00  0.00     0.002 C
HETATM   30  C10 UNL     1      87.959 120.048 133.622  1.00  0.00     0.025 C
ENDBRANCH  23  25
ENDBRANCH  22  23
ENDBRANCH  21  22
ENDBRANCH  19  21
ENDBRANCH   5  19
TORSDOF 5
ENDMDL