MODEL 1
REMARK VINA RESULT: -8.641469348      0.000      0.000
REMARK  6 active torsions:
REMARK  status: ('A' for Active; 'I' for Inactive)
REMARK    1  A    between atoms: C4_4  and  N1_5
REMARK    2  A    between atoms: C5_7  and  C6_8
REMARK    3  A    between atoms: C10_13  and  O2_14
REMARK    4  A    between atoms: C11_16  and  S1_17
REMARK    5  A    between atoms: S1_17  and  C12_18
REMARK    6  A    between atoms: C16_22  and  O3_23
ROOT
HETATM    1  C1  UNL     1      90.552 116.937 133.161  1.00  0.00     0.037 C
HETATM    2  C2  UNL     1      90.979 117.307 131.814  1.00  0.00    -0.016 C
HETATM    3  C3  UNL     1      90.443 118.237 131.081  1.00  0.00     0.006 A
HETATM    4  C4  UNL     1      89.318 119.008 131.588  1.00  0.00     0.047 A
HETATM    5  C8  UNL     1      88.694 119.952 130.890  1.00  0.00     0.088 A
HETATM    6  C9  UNL     1      89.179 120.211 129.552  1.00  0.00     0.208 A
HETATM    7  O1  UNL     1      88.625 121.108 128.816  1.00  0.00    -0.285 OA
HETATM    8  C10 UNL     1      90.279 119.503 128.972  1.00  0.00     0.134 A
HETATM    9  C11 UNL     1      90.913 118.532 129.709  1.00  0.00     0.050 A
ENDROOT
BRANCH   9  10
HETATM   10  S1  UNL     1      92.271 117.814 128.961  1.00  0.00    -0.119 SA
BRANCH  10  11
HETATM   11  C12 UNL     1      92.344 116.518 127.842  1.00  0.00     0.085 C
HETATM   12  C13 UNL     1      92.708 116.876 126.411  1.00  0.00     0.050 C
HETATM   13  C14 UNL     1      91.473 116.823 125.582  1.00  0.00     0.190 C
HETATM   14  C15 UNL     1      91.276 115.477 124.912  1.00  0.00     0.064 C
HETATM   15  N2  UNL     1      90.414 116.954 126.556  1.00  0.00    -0.065 N
HETATM   16  C16 UNL     1      91.522 114.357 125.904  1.00  0.00     0.122 C
HETATM   17  C17 UNL     1      90.849 114.607 127.209  1.00  0.00     0.066 C
HETATM   18  C18 UNL     1      90.865 116.049 127.582  1.00  0.00     0.203 C
ATOM     19  H22 UNL     1      90.220 117.906 126.866  1.00  0.00     0.278 HD
ATOM     20  H21 UNL     1      89.472 116.782 126.203  1.00  0.00     0.278 HD
BRANCH  16  21
HETATM   21  O3  UNL     1      91.102 113.149 125.389  1.00  0.00    -0.395 OA
ATOM     22  H3  UNL     1      90.393 112.791 125.909  1.00  0.00     0.210 HD
ENDBRANCH  16  21
ENDBRANCH  10  11
ENDBRANCH   9  10
BRANCH   8  23
HETATM   23  O2  UNL     1      90.735 119.774 127.663  1.00  0.00    -0.356 OA
ATOM     24  H2  UNL     1      91.103 120.617 127.424  1.00  0.00     0.218 HD
ENDBRANCH   8  23
BRANCH   4  25
HETATM   25  N1  UNL     1      88.786 118.803 132.908  1.00  0.00    -0.369 N
HETATM   26  C5  UNL     1      88.473 119.793 133.682  1.00  0.00     0.061 C
ATOM     27  H1  UNL     1      88.651 117.850 133.244  1.00  0.00     0.165 HD
BRANCH  26  28
HETATM   28  C6  UNL     1      87.924 119.580 135.044  1.00  0.00     0.040 C
HETATM   29  C7  UNL     1      87.008 120.767 135.348  1.00  0.00     0.010 C
ENDBRANCH  26  28
ENDBRANCH   4  25
TORSDOF 6
ENDMDL