MODEL 1
REMARK VINA RESULT: -7.391778456      0.000      0.000
REMARK  5 active torsions:
REMARK  status: ('A' for Active; 'I' for Inactive)
REMARK    1  A    between atoms: C2_2  and  N1_3
REMARK    2  A    between atoms: C3_4  and  O1_5
REMARK    3  A    between atoms: C6_9  and  N2_10
REMARK    4  A    between atoms: C13_17  and  N3_18
REMARK    5  A    between atoms: N3_18  and  C14_20
ROOT
HETATM    1  N1  UNL     1      90.802 115.564 129.267  1.00  0.00    -0.313 N
HETATM    2  C3  UNL     1      90.792 116.289 128.103  1.00  0.00     0.152 A
HETATM    3  C4  UNL     1      90.876 117.645 128.424  1.00  0.00     0.023 A
HETATM    4  C5  UNL     1      90.926 117.661 129.791  1.00  0.00     0.025 A
HETATM    5  C6  UNL     1      90.887 116.406 130.319  1.00  0.00     0.117 A
HETATM    6  C13 UNL     1      90.935 119.046 130.454  1.00  0.00     0.153 C
HETATM    7  C18 UNL     1      91.860 119.822 129.535  1.00  0.00     0.085 C
HETATM    8  N4  UNL     1      91.354 120.012 128.235  1.00  0.00    -0.396 N
ATOM      9  H4  UNL     1      91.285 120.938 127.813  1.00  0.00     0.159 HD
HETATM   10  C19 UNL     1      90.949 118.847 127.549  1.00  0.00     0.162 C
ENDROOT
BRANCH   5  11
HETATM   11  N2  UNL     1      90.960 116.120 131.712  1.00  0.00    -0.367 N
HETATM   12  C7  UNL     1      89.641 116.087 132.340  1.00  0.00     0.124 C
HETATM   13  C8  UNL     1      89.614 116.836 133.639  1.00  0.00     0.020 C
HETATM   14  C9  UNL     1      90.000 115.914 134.773  1.00  0.00     0.002 C
HETATM   15  C10 UNL     1      91.164 115.072 134.331  1.00  0.00     0.002 C
HETATM   16  C11 UNL     1      92.259 115.907 133.751  1.00  0.00     0.020 C
HETATM   17  C12 UNL     1      92.272 115.909 132.235  1.00  0.00     0.124 C
ENDBRANCH   5  11
BRANCH   1  18
HETATM   18  C2  UNL     1      90.682 114.140 129.328  1.00  0.00     0.128 C
HETATM   19  C1  UNL     1      91.999 113.424 129.302  1.00  0.00     0.027 C
ENDBRANCH   1  18
BRANCH   2  20
HETATM   20  O1  UNL     1      90.714 115.787 126.804  1.00  0.00    -0.345 OA
ATOM     21  H1  UNL     1      91.381 115.841 126.130  1.00  0.00     0.219 HD
ENDBRANCH   2  20
BRANCH   6  22
HETATM   22  N3  UNL     1      89.568 119.424 130.372  1.00  0.00    -0.403 N
ATOM     23  H3  UNL     1      88.912 118.803 129.898  1.00  0.00     0.154 HD
BRANCH  22  24
HETATM   24  C14 UNL     1      89.097 120.613 130.916  1.00  0.00     0.103 C
HETATM   25  C15 UNL     1      88.085 121.183 129.894  1.00  0.00     0.053 C
HETATM   26  C16 UNL     1      86.818 121.371 130.663  1.00  0.00     0.169 C
HETATM   27  O2  UNL     1      87.288 121.542 131.966  1.00  0.00    -0.389 OA
HETATM   28  C17 UNL     1      88.249 120.544 132.142  1.00  0.00     0.192 C
ENDBRANCH  22  24
ENDBRANCH   6  22
TORSDOF 5
ENDMDL