MODEL 2
REMARK VINA RESULT: -9.212378297      2.413      5.031
REMARK  5 active torsions:
REMARK  status: ('A' for Active; 'I' for Inactive)
REMARK    1  A    between atoms: C1_4  and  C2_6
REMARK    2  A    between atoms: C4_8  and  C5_9
REMARK    3  A    between atoms: C7_13  and  C8_14
REMARK    4  A    between atoms: C12_20  and  N4_21
REMARK    5  A    between atoms: N4_21  and  C13_23
ROOT
HETATM    1  C2  UNL     1      88.448 120.773 130.741  1.00  0.00     0.089 A
HETATM    2  C3  UNL     1      89.158 119.767 131.351  1.00  0.00     0.052 A
HETATM    3  C4  UNL     1      90.303 119.211 130.758  1.00  0.00     0.047 A
HETATM    4  C12 UNL     1      90.652 119.737 129.549  1.00  0.00     0.129 A
HETATM    5  N5  UNL     1      89.937 120.737 128.955  1.00  0.00    -0.284 N
ATOM      6  H5  UNL     1      90.234 121.100 128.050  1.00  0.00     0.188 HD
HETATM    7  N6  UNL     1      88.864 121.237 129.539  1.00  0.00    -0.296 N
ATOM      8  H6  UNL     1      88.342 121.983 129.079  1.00  0.00     0.187 HD
ENDROOT
BRANCH   3   9
HETATM    9  C5  UNL     1      91.025 118.158 131.425  1.00  0.00     0.107 A
HETATM   10  C6  UNL     1      90.554 117.153 132.203  1.00  0.00     0.128 A
HETATM   11  N3  UNL     1      91.655 116.432 132.585  1.00  0.00    -0.345 N
HETATM   12  C7  UNL     1      92.748 116.999 132.045  1.00  0.00     0.153 A
ATOM     13  H3  UNL     1      91.646 115.603 133.179  1.00  0.00     0.167 HD
HETATM   14  O2  UNL     1      92.352 118.036 131.349  1.00  0.00    -0.293 OA
BRANCH  12  15
HETATM   15  C8  UNL     1      94.172 116.534 132.204  1.00  0.00     0.196 C
HETATM   16  C9  UNL     1      94.406 115.930 133.546  1.00  0.00     0.042 C
HETATM   17  C10 UNL     1      95.417 116.880 134.166  1.00  0.00     0.029 C
HETATM   18  C11 UNL     1      96.078 117.455 132.927  1.00  0.00     0.168 C
HETATM   19  O1  UNL     1      95.028 117.619 132.062  1.00  0.00    -0.378 OA
ENDBRANCH  12  15
ENDBRANCH   3   9
BRANCH   4  20
HETATM   20  N4  UNL     1      91.661 119.317 128.925  1.00  0.00    -0.370 N
ATOM     21  H4  UNL     1      92.564 119.531 129.349  1.00  0.00     0.161 HD
BRANCH  20  22
HETATM   22  C13 UNL     1      91.710 118.577 127.697  1.00  0.00     0.083 C
HETATM   23  C14 UNL     1      90.490 117.671 127.609  1.00  0.00     0.025 C
HETATM   24  C15 UNL     1      90.691 116.521 126.644  1.00  0.00     0.002 C
HETATM   25  C16 UNL     1      91.843 115.637 127.083  1.00  0.00     0.000 C
HETATM   26  C17 UNL     1      92.651 116.369 128.173  1.00  0.00     0.002 C
HETATM   27  C18 UNL     1      92.935 117.740 127.559  1.00  0.00     0.025 C
ENDBRANCH  20  22
ENDBRANCH   4  20
BRANCH   1  28
HETATM   28  C1  UNL     1      87.265 121.363 131.329  1.00  0.00     0.138 C
HETATM   29  N1  UNL     1      86.280 121.698 130.593  1.00  0.00    -0.386 N
ATOM     30  H12 UNL     1      85.446 122.115 131.007  1.00  0.00     0.157 HD
ATOM     31  H11 UNL     1      86.319 121.552 129.584  1.00  0.00     0.157 HD
HETATM   32  N2  UNL     1      87.210 121.565 132.722  1.00  0.00    -0.081 NA
ENDBRANCH   1  28
TORSDOF 5
ENDMDL