MODEL 1
REMARK VINA RESULT: -8.641238744      0.000      0.000
REMARK  4 active torsions:
REMARK  status: ('A' for Active; 'I' for Inactive)
REMARK    1  A    between atoms: C2_5  and  C3_6
REMARK    2  A    between atoms: C9_14  and  N3_15
REMARK    3  A    between atoms: N3_15  and  C10_17
REMARK    4  A    between atoms: C15_25  and  N5_26
ROOT
HETATM    1  O1  UNL     1      91.245 117.205 128.739  1.00  0.00    -0.265 OA
HETATM    2  C1  UNL     1      90.710 117.241 129.887  1.00  0.00     0.283 A
HETATM    3  N1  UNL     1      90.578 116.130 130.634  1.00  0.00    -0.310 N
ATOM      4  H1  UNL     1      90.918 115.243 130.264  1.00  0.00     0.170 HD
HETATM    5  C2  UNL     1      90.013 116.155 131.852  1.00  0.00     0.089 A
HETATM    6  N2  UNL     1      89.582 117.358 132.290  1.00  0.00    -0.330 N
ATOM      7  H2  UNL     1      89.150 117.400 133.213  1.00  0.00     0.168 HD
HETATM    8  C9  UNL     1      89.683 118.506 131.593  1.00  0.00     0.142 A
HETATM    9  C15 UNL     1      90.276 118.467 130.324  1.00  0.00     0.214 A
ENDROOT
BRANCH   8  10
HETATM   10  N3  UNL     1      89.240 119.752 132.065  1.00  0.00    -0.363 N
ATOM     11  H3  UNL     1      89.751 120.558 131.705  1.00  0.00     0.162 HD
BRANCH  10  12
HETATM   12  C10 UNL     1      88.186 120.058 132.969  1.00  0.00     0.144 C
HETATM   13  C11 UNL     1      88.642 120.344 134.391  1.00  0.00     0.034 C
HETATM   14  C12 UNL     1      87.361 120.179 135.235  1.00  0.00     0.022 C
HETATM   15  C13 UNL     1      86.519 121.403 134.958  1.00  0.00     0.120 C
HETATM   16  N4  UNL     1      86.787 121.978 133.652  1.00  0.00    -0.383 N
HETATM   17  C14 UNL     1      87.347 121.223 132.589  1.00  0.00     0.096 C
ATOM     18  H4  UNL     1      86.564 122.961 133.492  1.00  0.00     0.160 HD
HETATM   19  S1  UNL     1      87.084 121.598 131.044  1.00  0.00    -0.063 SA
ENDBRANCH  10  12
ENDBRANCH   8  10
BRANCH   9  20
HETATM   20  N5  UNL     1      90.408 119.652 129.545  1.00  0.00    -0.106 N
HETATM   21  O2  UNL     1      89.552 120.056 128.737  1.00  0.00    -0.531 OA
HETATM   22  O3  UNL     1      91.550 120.398 129.695  1.00  0.00    -0.531 OA
ENDBRANCH   9  20
BRANCH   5  23
HETATM   23  C3  UNL     1      89.871 114.920 132.671  1.00  0.00     0.053 C
HETATM   24  C4  UNL     1      91.199 114.334 133.042  1.00  0.00     0.012 C
HETATM   25  C5  UNL     1      91.130 112.845 133.060  1.00  0.00     0.001 C
HETATM   26  C6  UNL     1      90.848 112.246 131.702  1.00  0.00     0.000 C
HETATM   27  C7  UNL     1      89.779 113.027 131.013  1.00  0.00     0.001 C
HETATM   28  C8  UNL     1      88.996 113.901 131.964  1.00  0.00     0.012 C
ENDBRANCH   5  23
TORSDOF 4
ENDMDL