MODEL 3
REMARK VINA RESULT: -8.998622085      2.537      9.695
REMARK  6 active torsions:
REMARK  status: ('A' for Active; 'I' for Inactive)
REMARK    1  A    between atoms: C3_6  and  C4_7
REMARK    2  A    between atoms: C6_9  and  C7_10
REMARK    3  A    between atoms: C8_11  and  C9_12
REMARK    4  A    between atoms: N2_14  and  C11_15
REMARK    5  A    between atoms: C13_17  and  O2_18
REMARK    6  A    between atoms: C14_20  and  O3_21
ROOT
HETATM    1  C9  UNL     1      89.694 117.487 131.808  1.00  0.00     0.020 A
HETATM    2  C10 UNL     1      90.329 118.005 130.697  1.00  0.00     0.125 A
HETATM    3  N2  UNL     1      90.866 116.994 129.982  1.00  0.00    -0.296 N
HETATM    4  N3  UNL     1      90.584 115.884 130.612  1.00  0.00    -0.287 N
ATOM      5  H3  UNL     1      90.865 114.955 130.300  1.00  0.00     0.188 HD
HETATM    6  C16 UNL     1      89.878 116.130 131.718  1.00  0.00     0.127 A
HETATM    7  S1  UNL     1      89.331 114.997 132.783  1.00  0.00    -0.058 SA
ENDROOT
BRANCH   1   8
HETATM    8  C8  UNL     1      88.978 118.191 132.860  1.00  0.00     0.012 C
HETATM    9  C7  UNL     1      88.553 119.428 132.726  1.00  0.00    -0.020 C
BRANCH   9  10
HETATM   10  C6  UNL     1      87.830 120.200 133.732  1.00  0.00     0.021 A
HETATM   11  C4  UNL     1      88.522 120.853 134.872  1.00  0.00     0.071 A
HETATM   12  C5  UNL     1      87.914 121.660 133.727  1.00  0.00     0.023 A
BRANCH  11  13
HETATM   13  C3  UNL     1      87.778 121.008 136.161  1.00  0.00     0.153 A
HETATM   14  O1  UNL     1      88.089 121.812 137.165  1.00  0.00    -0.222 OA
HETATM   15  N1  UNL     1      87.229 121.695 138.130  1.00  0.00    -0.248 N
HETATM   16  C2  UNL     1      86.316 120.799 137.780  1.00  0.00     0.100 A
ATOM     17  H1  UNL     1      87.251 122.208 139.011  1.00  0.00     0.196 HD
HETATM   18  C1  UNL     1      85.120 120.318 138.557  1.00  0.00     0.091 C
HETATM   19  N4  UNL     1      86.660 120.372 136.552  1.00  0.00    -0.327 N
ATOM     20  H4  UNL     1      86.154 119.675 136.005  1.00  0.00     0.169 HD
ENDBRANCH  11  13
ENDBRANCH   9  10
ENDBRANCH   1   8
BRANCH   3  21
HETATM   21  C11 UNL     1      91.614 117.124 128.747  1.00  0.00     0.112 C
HETATM   22  C12 UNL     1      92.693 118.175 128.831  1.00  0.00     0.061 C
HETATM   23  C13 UNL     1      92.982 118.438 127.367  1.00  0.00     0.148 C
HETATM   24  C14 UNL     1      91.593 118.523 126.770  1.00  0.00     0.148 C
HETATM   25  C15 UNL     1      90.728 117.618 127.629  1.00  0.00     0.061 C
BRANCH  23  26
HETATM   26  O2  UNL     1      93.688 117.363 126.806  1.00  0.00    -0.393 OA
ATOM     27  H2  UNL     1      94.477 117.187 127.304  1.00  0.00     0.210 HD
ENDBRANCH  23  26
BRANCH  24  28
HETATM   28  O3  UNL     1      91.680 118.039 125.455  1.00  0.00    -0.393 OA
ATOM     29  H3  UNL     1      90.858 117.603 125.265  1.00  0.00     0.210 HD
ENDBRANCH  24  28
ENDBRANCH   3  21
TORSDOF 6
ENDMDL