MODEL 1
REMARK VINA RESULT: -7.583081957      0.000      0.000
REMARK  7 active torsions:
REMARK  status: ('A' for Active; 'I' for Inactive)
REMARK    1  A    between atoms: C2_2  and  C3_3
REMARK    2  A    between atoms: C3_3  and  N1_4
REMARK    3  A    between atoms: C4_5  and  O1_6
REMARK    4  A    between atoms: C7_10  and  O2_11
REMARK    5  A    between atoms: N3_16  and  C10_17
REMARK    6  A    between atoms: C10_17  and  C11_18
REMARK    7  A    between atoms: C12_21  and  N5_22
ROOT
HETATM    1  N1  UNL     1      88.405 120.540 130.843  1.00  0.00    -0.303 N
HETATM    2  C4  UNL     1      88.780 120.745 129.562  1.00  0.00     0.155 A
HETATM    3  C5  UNL     1      89.903 120.002 129.300  1.00  0.00     0.048 A
HETATM    4  C6  UNL     1      90.169 119.330 130.428  1.00  0.00     0.095 A
HETATM    5  C7  UNL     1      89.281 119.630 131.456  1.00  0.00     0.172 A
HETATM    6  N2  UNL     1      91.028 118.467 129.733  1.00  0.00    -0.364 N
HETATM    7  C8  UNL     1      91.580 117.151 129.515  1.00  0.00     0.143 C
HETATM    8  C9  UNL     1      90.668 116.642 128.296  1.00  0.00     0.142 C
HETATM    9  N3  UNL     1      90.701 117.489 127.200  1.00  0.00    -0.384 N
HETATM   10  C15 UNL     1      91.202 118.855 127.385  1.00  0.00     0.152 C
HETATM   11  C16 UNL     1      91.125 119.440 128.678  1.00  0.00     0.142 C
ENDROOT
BRANCH   9  12
HETATM   12  C10 UNL     1      91.042 117.063 125.903  1.00  0.00     0.116 C
BRANCH  12  13
HETATM   13  C11 UNL     1      91.806 115.796 125.819  1.00  0.00     0.062 A
HETATM   14  N4  UNL     1      91.270 114.645 125.463  1.00  0.00    -0.335 N
HETATM   15  C12 UNL     1      92.055 113.619 125.204  1.00  0.00     0.143 A
ATOM     16  H4  UNL     1      90.257 114.550 125.390  1.00  0.00     0.168 HD
HETATM   17  S1  UNL     1      93.632 114.261 125.459  1.00  0.00    -0.057 SA
HETATM   18  C13 UNL     1      93.172 115.834 125.900  1.00  0.00     0.010 A
HETATM   19  C14 UNL     1      94.029 117.007 126.339  1.00  0.00     0.059 C
BRANCH  15  20
HETATM   20  N5  UNL     1      91.700 112.407 124.832  1.00  0.00    -0.380 N
ATOM     21  H52 UNL     1      90.894 112.112 124.280  1.00  0.00     0.158 HD
ATOM     22  H51 UNL     1      92.172 111.527 125.041  1.00  0.00     0.158 HD
ENDBRANCH  15  20
ENDBRANCH  12  13
ENDBRANCH   9  12
BRANCH   2  23
HETATM   23  O1  UNL     1      88.066 121.586 128.641  1.00  0.00    -0.345 OA
ATOM     24  H1  UNL     1      88.403 121.853 127.794  1.00  0.00     0.219 HD
ENDBRANCH   2  23
BRANCH   5  25
HETATM   25  O2  UNL     1      89.291 119.180 132.730  1.00  0.00    -0.344 OA
ATOM     26  H2  UNL     1      89.998 119.190 133.365  1.00  0.00     0.219 HD
ENDBRANCH   5  25
BRANCH   1  27
HETATM   27  C3  UNL     1      87.377 121.192 131.569  1.00  0.00     0.160 C
BRANCH  27  28
HETATM   28  C2  UNL     1      87.920 122.020 132.698  1.00  0.00    -0.017 C
HETATM   29  C1  UNL     1      87.157 121.944 133.825  1.00  0.00     0.008 C
ENDBRANCH  27  28
ENDBRANCH   1  27
TORSDOF 7
ENDMDL