MODEL 3
REMARK VINA RESULT: -8.581262790      2.453      6.894
REMARK  7 active torsions:
REMARK  status: ('A' for Active; 'I' for Inactive)
REMARK    1  A    between atoms: C4_6  and  O3_7
REMARK    2  A    between atoms: C7_11  and  C8_12
REMARK    3  A    between atoms: C8_12  and  O4_13
REMARK    4  A    between atoms: C15_22  and  C16_23
REMARK    5  A    between atoms: C16_23  and  C17_24
REMARK    6  A    between atoms: C17_24  and  C18_25
REMARK    7  A    between atoms: C18_25  and  O6_26
ROOT
HETATM    1  O1  UNL     1      92.833 116.660 125.795  1.00  0.00    -0.259 OA
HETATM    2  C1  UNL     1      92.398 117.603 126.477  1.00  0.00     0.295 A
HETATM    3  O2  UNL     1      92.494 118.968 126.143  1.00  0.00    -0.313 OA
HETATM    4  C2  UNL     1      91.932 119.759 127.121  1.00  0.00     0.221 A
HETATM    5  C3  UNL     1      91.407 118.796 128.141  1.00  0.00     0.017 A
HETATM    6  C4  UNL     1      90.714 119.104 129.322  1.00  0.00     0.089 A
HETATM    7  C5  UNL     1      90.315 118.038 130.092  1.00  0.00     0.043 A
HETATM    8  C6  UNL     1      90.634 116.745 129.694  1.00  0.00     0.092 A
HETATM    9  C7  UNL     1      91.309 116.468 128.555  1.00  0.00     0.017 A
HETATM   10  C9  UNL     1      91.707 117.508 127.746  1.00  0.00     0.061 A
HETATM   11  O5  UNL     1      90.199 115.726 130.584  1.00  0.00    -0.345 OA
HETATM   12  C10 UNL     1      90.460 115.929 131.995  1.00  0.00     0.215 C
HETATM   13  C11 UNL     1      89.852 117.259 132.387  1.00  0.00    -0.022 A
HETATM   14  C12 UNL     1      89.290 117.408 133.589  1.00  0.00     0.010 A
HETATM   15  C13 UNL     1      88.708 118.584 133.941  1.00  0.00     0.001 A
HETATM   16  C14 UNL     1      88.696 119.609 133.036  1.00  0.00     0.008 A
HETATM   17  C15 UNL     1      89.268 119.501 131.741  1.00  0.00    -0.046 A
HETATM   18  C19 UNL     1      89.870 118.304 131.434  1.00  0.00    -0.006 A
ENDROOT
BRANCH  17  19
HETATM   19  C16 UNL     1      88.685 120.359 130.698  1.00  0.00     0.041 C
BRANCH  19  20
HETATM   20  C17 UNL     1      87.879 121.528 131.358  1.00  0.00     0.030 C
BRANCH  20  21
HETATM   21  C18 UNL     1      86.456 121.510 130.863  1.00  0.00     0.164 C
BRANCH  21  22
HETATM   22  O6  UNL     1      86.363 121.514 129.475  1.00  0.00    -0.401 OA
ATOM     23  H6  UNL     1      85.467 121.563 129.162  1.00  0.00     0.209 HD
ENDBRANCH  21  22
ENDBRANCH  20  21
ENDBRANCH  19  20
ENDBRANCH  17  19
BRANCH   6  24
HETATM   24  O3  UNL     1      90.591 120.408 129.540  1.00  0.00    -0.359 OA
ATOM     25  H3  UNL     1      90.162 120.616 130.362  1.00  0.00     0.217 HD
ENDBRANCH   6  24
BRANCH   9  26
HETATM   26  C8  UNL     1      91.546 115.041 128.282  1.00  0.00     0.206 C
BRANCH  26  27
HETATM   27  O4  UNL     1      90.511 114.303 127.860  1.00  0.00    -0.396 OA
ATOM     28  H4  UNL     1      90.622 113.360 127.826  1.00  0.00     0.209 HD
ENDBRANCH  26  27
ENDBRANCH   9  26
TORSDOF 7
ENDMDL