MODEL 1
REMARK VINA RESULT: -7.449464601      0.000      0.000
REMARK  7 active torsions:
REMARK  status: ('A' for Active; 'I' for Inactive)
REMARK    1  A    between atoms: O1_2  and  C2_3
REMARK    2  A    between atoms: C2_3  and  C3_4
REMARK    3  A    between atoms: C7_8  and  O2_9
REMARK    4  A    between atoms: C8_11  and  O3_12
REMARK    5  A    between atoms: C9_14  and  C10_15
REMARK    6  A    between atoms: C13_19  and  O4_20
REMARK    7  A    between atoms: C15_24  and  C17_26
ROOT
HETATM    1  C3  UNL     1      90.355 117.619 130.976  1.00  0.00     0.005 A
HETATM    2  C4  UNL     1      89.585 117.240 132.141  1.00  0.00    -0.046 A
HETATM    3  C5  UNL     1      89.024 118.375 132.965  1.00  0.00     0.049 C
HETATM    4  C6  UNL     1      89.352 115.979 132.497  1.00  0.00     0.047 A
HETATM    5  C7  UNL     1      89.876 114.914 131.714  1.00  0.00     0.100 A
HETATM    6  C8  UNL     1      90.604 115.267 130.625  1.00  0.00     0.110 A
HETATM    7  C9  UNL     1      90.861 116.622 130.227  1.00  0.00     0.019 A
ENDROOT
BRANCH   7   8
HETATM    8  C10 UNL     1      91.635 116.710 128.968  1.00  0.00    -0.035 C
HETATM    9  C11 UNL     1      90.822 116.997 127.879  1.00  0.00     0.005 C
HETATM   10  C12 UNL     1      91.260 117.151 126.513  1.00  0.00     0.135 C
HETATM   11 CL1  UNL     1      90.899 115.654 125.573  1.00  0.00    -0.118 Cl
HETATM   12  C13 UNL     1      92.674 117.596 126.348  1.00  0.00     0.159 C
HETATM   13  C14 UNL     1      93.485 117.607 127.562  1.00  0.00     0.126 C
HETATM   14 CL2  UNL     1      93.797 119.305 128.103  1.00  0.00    -0.121 Cl
HETATM   15  C15 UNL     1      93.024 116.790 128.742  1.00  0.00     0.016 C
HETATM   16  C16 UNL     1      93.574 117.631 129.988  1.00  0.00     0.023 C
BRANCH  12  17
HETATM   17  O4  UNL     1      93.189 116.910 125.264  1.00  0.00    -0.392 OA
ATOM     18  H4  UNL     1      93.735 117.521 124.783  1.00  0.00     0.210 HD
ENDBRANCH  12  17
BRANCH  15  19
HETATM   19  C17 UNL     1      93.947 115.600 128.865  1.00  0.00     0.130 C
HETATM   20 CL3  UNL     1      93.804 114.367 127.631  1.00  0.00    -0.129 Cl
ENDBRANCH  15  19
ENDBRANCH   7   8
BRANCH   1  21
HETATM   21  C2  UNL     1      90.668 119.058 130.986  1.00  0.00     0.146 C
BRANCH  21  22
HETATM   22  O1  UNL     1      90.628 119.801 129.880  1.00  0.00    -0.367 OA
HETATM   23  C1  UNL     1      89.255 119.937 129.529  1.00  0.00     0.208 C
ENDBRANCH  21  22
ENDBRANCH   1  21
BRANCH   6  24
HETATM   24  O3  UNL     1      91.148 114.283 129.857  1.00  0.00    -0.357 OA
ATOM     25  H3  UNL     1      91.978 114.448 129.427  1.00  0.00     0.217 HD
ENDBRANCH   6  24
BRANCH   5  26
HETATM   26  O2  UNL     1      89.601 113.636 132.135  1.00  0.00    -0.358 OA
ATOM     27  H2  UNL     1      89.196 113.052 131.505  1.00  0.00     0.217 HD
ENDBRANCH   5  26
TORSDOF 7
ENDMDL