MODEL 5
REMARK VINA RESULT: -8.755769420      4.054      7.044
REMARK  8 active torsions:
REMARK  status: ('A' for Active; 'I' for Inactive)
REMARK    1  A    between atoms: C2_2  and  C3_3
REMARK    2  A    between atoms: C3_3  and  C4_4
REMARK    3  A    between atoms: C3_3  and  C15_29
REMARK    4  A    between atoms: C6_8  and  C7_9
REMARK    5  A    between atoms: C7_9  and  O1_10
REMARK    6  A    between atoms: C8_14  and  N2_15
REMARK    7  A    between atoms: N2_15  and  C9_17
REMARK    8  A    between atoms: C12_20  and  N3_21
ROOT
HETATM    1  C4  UNL     1      89.052 119.139 132.564  1.00  0.00     0.087 A
HETATM    2  N1  UNL     1      89.532 118.818 131.352  1.00  0.00    -0.354 N
ATOM      3  H1  UNL     1      89.506 119.536 130.627  1.00  0.00     0.166 HD
HETATM    4  C5  UNL     1      90.042 117.624 131.028  1.00  0.00     0.109 A
HETATM    5  C6  UNL     1      90.096 116.625 131.975  1.00  0.00     0.102 A
HETATM    6  C8  UNL     1      89.610 116.924 133.227  1.00  0.00     0.119 A
HETATM    7  N4  UNL     1      89.106 118.159 133.487  1.00  0.00    -0.331 N
ATOM      8  H4  UNL     1      88.753 118.354 134.425  1.00  0.00     0.168 HD
ENDROOT
BRANCH   6   9
HETATM    9  N2  UNL     1      89.654 116.012 134.113  1.00  0.00    -0.371 N
ATOM     10  H2  UNL     1      89.095 115.177 133.937  1.00  0.00     0.161 HD
BRANCH   9  11
HETATM   11  C9  UNL     1      90.404 116.034 135.331  1.00  0.00     0.083 C
HETATM   12  C10 UNL     1      89.572 115.560 136.504  1.00  0.00     0.027 C
HETATM   13  C11 UNL     1      90.422 114.861 137.520  1.00  0.00     0.035 C
HETATM   14  C12 UNL     1      90.948 113.553 136.953  1.00  0.00     0.183 C
HETATM   15  C13 UNL     1      91.363 113.745 135.511  1.00  0.00     0.035 C
HETATM   16  C14 UNL     1      91.669 115.219 135.264  1.00  0.00     0.027 C
BRANCH  14  17
HETATM   17  N3  UNL     1      89.870 112.584 136.964  1.00  0.00    -0.075 N
ATOM     18  H33 UNL     1      90.091 111.758 137.521  1.00  0.00     0.274 HD
ATOM     19  H32 UNL     1      89.064 112.902 137.501  1.00  0.00     0.274 HD
ATOM     20  H31 UNL     1      89.634 112.355 135.999  1.00  0.00     0.274 HD
ENDBRANCH  14  17
ENDBRANCH   9  11
ENDBRANCH   6   9
BRANCH   5  21
HETATM   21  C7  UNL     1      90.659 115.290 131.632  1.00  0.00     0.387 C
HETATM   22  F1  UNL     1      91.911 115.095 132.186  1.00  0.00    -0.170 F
HETATM   23  F2  UNL     1      90.811 115.146 130.263  1.00  0.00    -0.170 F
BRANCH  21  24
HETATM   24  O1  UNL     1      89.841 114.260 132.071  1.00  0.00    -0.332 OA
ATOM     25  H1  UNL     1      88.925 114.512 132.063  1.00  0.00     0.216 HD
ENDBRANCH  21  24
ENDBRANCH   5  21
BRANCH   1  26
HETATM   26  C3  UNL     1      88.499 120.434 132.940  1.00  0.00     0.057 C
BRANCH  26  27
HETATM   27  C2  UNL     1      87.379 120.808 132.023  1.00  0.00     0.008 C
HETATM   28  C1  UNL     1      87.731 121.653 130.840  1.00  0.00     0.006 C
ENDBRANCH  26  27
BRANCH  26  29
HETATM   29  C15 UNL     1      88.221 120.701 134.359  1.00  0.00    -0.003 C
HETATM   30  C16 UNL     1      86.855 121.319 134.606  1.00  0.00     0.005 C
HETATM   31  C17 UNL     1      86.402 120.784 135.970  1.00  0.00     0.000 C
HETATM   32  C18 UNL     1      87.583 120.717 136.919  1.00  0.00     0.000 C
HETATM   33  C19 UNL     1      88.660 121.706 136.541  1.00  0.00     0.000 C
HETATM   34  C20 UNL     1      89.194 121.507 135.139  1.00  0.00     0.005 C
ENDBRANCH  26  29
ENDBRANCH   1  26
TORSDOF 8
ENDMDL