MODEL 3
REMARK VINA RESULT: -8.739676502      4.952      6.088
REMARK  6 active torsions:
REMARK  status: ('A' for Active; 'I' for Inactive)
REMARK    1  A    between atoms: C5_7  and  C6_8
REMARK    2  A    between atoms: C6_8  and  C7_9
REMARK    3  A    between atoms: C7_9  and  N2_10
REMARK    4  A    between atoms: C8_12  and  C9_13
REMARK    5  A    between atoms: C8_12  and  C18_29
REMARK    6  A    between atoms: C11_16  and  C12_17
ROOT
HETATM    1  C9  UNL     1      90.330 119.027 130.953  1.00  0.00     0.009 A
HETATM    2  C10 UNL     1      91.439 119.255 130.107  1.00  0.00     0.064 A
HETATM    3  S1  UNL     1      92.475 117.966 130.437  1.00  0.00    -0.102 SA
HETATM    4  C11 UNL     1      91.564 117.141 131.606  1.00  0.00     0.020 A
HETATM    5  C16 UNL     1      90.415 117.923 131.714  1.00  0.00    -0.033 A
HETATM    6  C17 UNL     1      89.309 117.346 132.594  1.00  0.00     0.050 C
ENDROOT
BRANCH   1   7
HETATM    7  C8  UNL     1      89.263 120.091 130.877  1.00  0.00     0.123 C
HETATM    8  N2  UNL     1      89.030 120.737 131.962  1.00  0.00    -0.385 N
ATOM      9  H2  UNL     1      89.639 120.388 132.702  1.00  0.00     0.159 HD
BRANCH   8  10
HETATM   10  C7  UNL     1      88.240 121.735 132.454  1.00  0.00     0.124 C
BRANCH  10  11
HETATM   11  C6  UNL     1      88.872 122.277 133.755  1.00  0.00     0.060 C
BRANCH  11  12
HETATM   12  C5  UNL     1      88.143 121.758 134.931  1.00  0.00    -0.034 A
HETATM   13  C2  UNL     1      88.606 121.635 136.218  1.00  0.00    -0.039 A
HETATM   14  C1  UNL     1      89.967 122.001 136.733  1.00  0.00     0.050 C
HETATM   15  C3  UNL     1      87.554 121.105 136.937  1.00  0.00     0.095 A
HETATM   16  N1  UNL     1      86.504 120.915 136.122  1.00  0.00    -0.374 N
HETATM   17  C4  UNL     1      86.841 121.308 134.885  1.00  0.00     0.095 A
ATOM     18  H1  UNL     1      85.599 120.533 136.398  1.00  0.00     0.164 HD
ENDBRANCH  11  12
ENDBRANCH  10  11
ENDBRANCH   8  10
BRANCH   7  19
HETATM   19  C18 UNL     1      88.407 120.440 129.752  1.00  0.00     0.433 C
HETATM   20  F1  UNL     1      87.084 120.584 129.996  1.00  0.00    -0.165 F
HETATM   21  F2  UNL     1      88.559 119.406 128.761  1.00  0.00    -0.165 F
HETATM   22  F3  UNL     1      88.904 121.523 128.999  1.00  0.00    -0.165 F
ENDBRANCH   7  19
ENDBRANCH   1   7
BRANCH   4  23
HETATM   23  C12 UNL     1      92.044 115.955 132.350  1.00  0.00     0.097 A
HETATM   24  C13 UNL     1      92.603 115.803 133.657  1.00  0.00     0.075 A
HETATM   25  C14 UNL     1      93.515 115.747 132.477  1.00  0.00     0.168 A
HETATM   26  O1  UNL     1      93.874 114.495 131.956  1.00  0.00    -0.314 OA
HETATM   27  C15 UNL     1      92.785 113.931 131.318  1.00  0.00     0.214 C
HETATM   28  N3  UNL     1      92.903 112.884 130.564  1.00  0.00    -0.365 N
HETATM   29  N4  UNL     1      91.672 114.693 131.656  1.00  0.00    -0.340 N
ATOM     30  H32 UNL     1      93.719 112.324 130.316  1.00  0.00     0.159 HD
ATOM     31  H31 UNL     1      92.099 112.467 130.093  1.00  0.00     0.159 HD
ATOM     32  H4  UNL     1      90.712 114.418 131.452  1.00  0.00     0.164 HD
ENDBRANCH   4  23
TORSDOF 6
ENDMDL