MODEL 5
REMARK VINA RESULT: -7.590723265      3.151      5.162
REMARK  9 active torsions:
REMARK  status: ('A' for Active; 'I' for Inactive)
REMARK    1  A    between atoms: C4_5  and  N2_6
REMARK    2  A    between atoms: N2_6  and  N3_8
REMARK    3  A    between atoms: N3_8  and  N4_9
REMARK    4  A    between atoms: C8_15  and  O1_16
REMARK    5  A    between atoms: C8_15  and  C9_18
REMARK    6  A    between atoms: C10_22  and  N5_23
REMARK    7  A    between atoms: N5_23  and  C11_25
REMARK    8  A    between atoms: C17_31  and  C18_32
REMARK    9  A    between atoms: C18_32  and  O2_33
ROOT
HETATM    1  C1  UNL     1      90.745 119.053 128.163  1.00  0.00     0.150 C
HETATM    2  N1  UNL     1      91.227 118.450 129.386  1.00  0.00    -0.376 N
HETATM    3  C2  UNL     1      90.440 118.542 130.582  1.00  0.00     0.042 A
HETATM    4  C3  UNL     1      89.717 119.691 130.810  1.00  0.00     0.062 A
HETATM    5  C4  UNL     1      88.948 119.810 131.944  1.00  0.00     0.064 A
HETATM    6  C5  UNL     1      88.930 118.748 132.824  1.00  0.00     0.032 A
HETATM    7  C6  UNL     1      89.664 117.597 132.582  1.00  0.00     0.015 A
HETATM    8  C7  UNL     1      90.436 117.470 131.452  1.00  0.00     0.014 A
HETATM    9  C8  UNL     1      91.253 116.321 131.084  1.00  0.00     0.207 C
HETATM   10  C10 UNL     1      92.621 116.858 130.677  1.00  0.00     0.150 C
HETATM   11  C17 UNL     1      92.481 117.731 129.474  1.00  0.00     0.133 C
ENDROOT
BRANCH  10  12
HETATM   12  N5  UNL     1      93.635 115.936 130.581  1.00  0.00    -0.408 N
ATOM     13  H5  UNL     1      93.541 115.204 129.876  1.00  0.00     0.154 HD
BRANCH  12  14
HETATM   14  C11 UNL     1      94.784 115.922 131.376  1.00  0.00     0.077 C
HETATM   15  C12 UNL     1      94.746 116.743 132.658  1.00  0.00     0.024 C
HETATM   16  C13 UNL     1      96.213 117.081 132.960  1.00  0.00     0.002 C
HETATM   17  C14 UNL     1      97.077 115.883 133.073  1.00  0.00     0.000 C
HETATM   18  C15 UNL     1      96.768 114.750 132.161  1.00  0.00     0.002 C
HETATM   19  C16 UNL     1      95.299 114.577 131.819  1.00  0.00     0.024 C
ENDBRANCH  12  14
ENDBRANCH  10  12
BRANCH   9  20
HETATM   20  O1  UNL     1      90.703 115.852 129.850  1.00  0.00    -0.374 OA
ATOM     21  H1  UNL     1      89.924 116.378 129.711  1.00  0.00     0.211 HD
ENDBRANCH   9  20
BRANCH   9  22
HETATM   22  C9  UNL     1      91.235 115.162 131.979  1.00  0.00     0.424 C
HETATM   23  F1  UNL     1      89.873 114.821 132.160  1.00  0.00    -0.167 F
HETATM   24  F2  UNL     1      91.777 115.355 133.237  1.00  0.00    -0.167 F
HETATM   25  F3  UNL     1      91.777 114.036 131.456  1.00  0.00    -0.167 F
ENDBRANCH   9  22
BRANCH  11  26
HETATM   26  C18 UNL     1      92.768 117.092 128.160  1.00  0.00     0.191 C
BRANCH  26  27
HETATM   27  O2  UNL     1      94.047 117.516 127.734  1.00  0.00    -0.399 OA
ATOM     28  H2  UNL     1      94.220 118.369 128.114  1.00  0.00     0.209 HD
ENDBRANCH  26  27
ENDBRANCH  11  26
BRANCH   5  29
HETATM   29  N2  UNL     1      88.224 121.013 132.144  1.00  0.00    -0.217 N
ATOM     30  H2  UNL     1      88.394 121.561 132.988  1.00  0.00     0.203 HD
BRANCH  29  31
HETATM   31  N3  UNL     1      87.398 121.410 131.323  1.00  0.00    -0.243 NA
BRANCH  31  32
HETATM   32  N4  UNL     1      86.595 121.432 130.371  1.00  0.00    -0.260 N
ATOM     33  H42 UNL     1      86.805 122.387 130.082  1.00  0.00     0.193 HD
ATOM     34  H41 UNL     1      85.884 121.144 129.700  1.00  0.00     0.193 HD
ENDBRANCH  31  32
ENDBRANCH  29  31
ENDBRANCH   5  29
TORSDOF 9
ENDMDL