MODEL 1
REMARK VINA RESULT: -9.868730565      0.000      0.000
REMARK  6 active torsions:
REMARK  status: ('A' for Active; 'I' for Inactive)
REMARK    1  A    between atoms: C2_2  and  C3_3
REMARK    2  A    between atoms: C7_7  and  O1_8
REMARK    3  A    between atoms: C10_12  and  O2_13
REMARK    4  A    between atoms: C11_15  and  C12_16
REMARK    5  A    between atoms: C12_16  and  N1_17
REMARK    6  A    between atoms: N1_17  and  C13_20
ROOT
HETATM    1  C3  UNL     1      87.983 120.441 135.226  1.00  0.00     0.040 C
HETATM    2  C4  UNL     1      86.832 120.898 134.358  1.00  0.00     0.029 C
HETATM    3  C5  UNL     1      87.520 121.844 133.404  1.00  0.00     0.024 C
HETATM    4  C6  UNL     1      88.648 122.495 134.132  1.00  0.00     0.042 C
HETATM    5  C7  UNL     1      89.031 121.502 135.201  1.00  0.00     0.134 C
HETATM    6  C8  UNL     1      88.094 121.064 132.261  1.00  0.00    -0.024 A
HETATM    7  C9  UNL     1      88.018 121.734 131.063  1.00  0.00     0.047 A
HETATM    8  C10 UNL     1      88.496 121.170 129.903  1.00  0.00     0.074 A
HETATM    9  C11 UNL     1      89.074 119.911 129.882  1.00  0.00     0.003 A
HETATM   10  C18 UNL     1      89.150 119.244 131.083  1.00  0.00     0.041 A
HETATM   11  C19 UNL     1      88.668 119.808 132.264  1.00  0.00     0.040 A
HETATM   12  N2  UNL     1      88.836 118.966 133.395  1.00  0.00    -0.349 N
ATOM     13  H2  UNL     1      89.229 118.045 133.203  1.00  0.00     0.166 HD
HETATM   14  C20 UNL     1      88.560 119.208 134.630  1.00  0.00     0.092 C
HETATM   15 CL1  UNL     1      88.931 117.876 135.726  1.00  0.00    -0.068 Cl
ENDROOT
BRANCH   9  16
HETATM   16  C12 UNL     1      89.575 119.349 128.615  1.00  0.00     0.274 C
BRANCH  16  17
HETATM   17  N1  UNL     1      90.806 119.944 128.178  1.00  0.00    -0.067 N
ATOM     18  H12 UNL     1      90.673 120.649 127.453  1.00  0.00     0.277 HD
ATOM     19  H11 UNL     1      91.226 120.554 128.879  1.00  0.00     0.277 HD
BRANCH  17  20
HETATM   20  C13 UNL     1      91.681 118.866 127.765  1.00  0.00     0.192 C
HETATM   21  C14 UNL     1      90.979 117.576 127.500  1.00  0.00     0.039 C
HETATM   22  C15 UNL     1      91.572 116.952 126.282  1.00  0.00     0.081 C
HETATM   23  C16 UNL     1      92.625 117.891 125.805  1.00  0.00     0.245 C
HETATM   24  F1  UNL     1      93.887 117.441 126.117  1.00  0.00    -0.206 F
HETATM   25  F2  UNL     1      92.463 118.085 124.447  1.00  0.00    -0.206 F
HETATM   26  C17 UNL     1      92.429 119.223 126.499  1.00  0.00     0.112 C
ENDBRANCH  17  20
ENDBRANCH  16  17
ENDBRANCH   9  16
BRANCH   8  27
HETATM   27  O2  UNL     1      88.393 121.888 128.725  1.00  0.00    -0.360 OA
ATOM     28  H2  UNL     1      88.832 121.557 127.950  1.00  0.00     0.217 HD
ENDBRANCH   8  27
BRANCH   1  29
HETATM   29  C2  UNL     1      87.520 120.070 136.618  1.00  0.00     0.015 C
HETATM   30  C1  UNL     1      86.143 120.531 136.951  1.00  0.00     0.006 C
ENDBRANCH   1  29
BRANCH   5  31
HETATM   31  O1  UNL     1      89.177 122.184 136.407  1.00  0.00    -0.394 OA
ATOM     32  H1  UNL     1      88.946 123.104 136.361  1.00  0.00     0.210 HD
ENDBRANCH   5  31
TORSDOF 6
ENDMDL