MODEL 3
REMARK VINA RESULT: -8.491511574      3.921      8.709
REMARK  4 active torsions:
REMARK  status: ('A' for Active; 'I' for Inactive)
REMARK    1  A    between atoms: C3_6  and  S1_7
REMARK    2  A    between atoms: S1_7  and  C4_8
REMARK    3  A    between atoms: C4_8  and  C5_9
REMARK    4  A    between atoms: C8_13  and  C9_14
ROOT
HETATM    1  C5  UNL     1      89.409 118.223 132.254  1.00  0.00     0.021 A
HETATM    2  C6  UNL     1      89.044 119.372 131.586  1.00  0.00     0.052 A
HETATM    3  C7  UNL     1      88.582 120.221 132.571  1.00  0.00     0.065 A
HETATM    4 CL1  UNL     1      87.982 121.839 132.277  1.00  0.00    -0.082 Cl
HETATM    5  C8  UNL     1      88.671 119.593 133.798  1.00  0.00     0.088 A
HETATM    6  N2  UNL     1      89.177 118.384 133.569  1.00  0.00    -0.355 N
ATOM      7  H2  UNL     1      89.362 117.683 134.286  1.00  0.00     0.166 HD
ENDROOT
BRANCH   1   8
HETATM    8  C4  UNL     1      89.970 117.018 131.593  1.00  0.00     0.136 C
BRANCH   8   9
HETATM    9  S1  UNL     1      91.743 117.304 131.289  1.00  0.00    -0.117 SA
BRANCH   9  10
HETATM   10  C3  UNL     1      91.948 117.989 129.634  1.00  0.00     0.084 A
HETATM   11  C2  UNL     1      91.969 117.160 128.541  1.00  0.00     0.117 A
HETATM   12  N1  UNL     1      92.119 117.667 127.326  1.00  0.00    -0.317 N
HETATM   13  C1  UNL     1      92.252 118.995 127.158  1.00  0.00     0.327 A
ATOM     14  H1  UNL     1      92.133 117.048 126.516  1.00  0.00     0.170 HD
HETATM   15  O1  UNL     1      92.396 119.507 126.021  1.00  0.00    -0.247 OA
HETATM   16  N3  UNL     1      92.234 119.824 128.224  1.00  0.00    -0.274 N
HETATM   17  C13 UNL     1      92.083 119.347 129.472  1.00  0.00     0.267 A
ATOM     18  H3  UNL     1      92.337 120.829 128.079  1.00  0.00     0.173 HD
HETATM   19  O3  UNL     1      92.066 120.124 130.474  1.00  0.00    -0.267 OA
ENDBRANCH   9  10
ENDBRANCH   8   9
ENDBRANCH   1   8
BRANCH   5  20
HETATM   20  C9  UNL     1      88.272 120.185 135.092  1.00  0.00     0.107 A
HETATM   21  C10 UNL     1      88.933 121.157 135.778  1.00  0.00     0.067 A
HETATM   22  C11 UNL     1      88.189 121.384 136.923  1.00  0.00     0.082 A
HETATM   23 CL2  UNL     1      88.509 122.520 138.222  1.00  0.00    -0.080 Cl
HETATM   24  C12 UNL     1      87.103 120.534 136.879  1.00  0.00     0.167 A
HETATM   25 CL3  UNL     1      85.810 120.362 138.042  1.00  0.00    -0.055 Cl
HETATM   26  O2  UNL     1      87.206 119.855 135.780  1.00  0.00    -0.294 OA
ENDBRANCH   5  20
TORSDOF 4
ENDMDL