MODEL 3
REMARK VINA RESULT: -8.905546179      2.087      2.796
REMARK  7 active torsions:
REMARK  status: ('A' for Active; 'I' for Inactive)
REMARK    1  A    between atoms: C2_2  and  O1_3
REMARK    2  A    between atoms: C2_2  and  C3_6
REMARK    3  A    between atoms: C4_8  and  C5_9
REMARK    4  A    between atoms: C5_9  and  C6_10
REMARK    5  A    between atoms: C6_10  and  O2_11
REMARK    6  A    between atoms: C9_15  and  C10_16
REMARK    7  A    between atoms: N1_19  and  O3_21
ROOT
HETATM    1  C6  UNL     1      91.174 118.625 128.694  1.00  0.00     0.078 C
HETATM    2  C7  UNL     1      90.880 117.296 129.314  1.00  0.00     0.040 C
HETATM    3  C8  UNL     1      92.063 116.469 128.843  1.00  0.00     0.010 C
HETATM    4  C9  UNL     1      92.506 117.107 127.530  1.00  0.00     0.016 C
HETATM    5  C19 UNL     1      91.498 118.196 127.252  1.00  0.00     0.121 C
HETATM    6 CL1  UNL     1      92.248 119.556 126.385  1.00  0.00    -0.121 Cl
ENDROOT
BRANCH   4   7
HETATM    7  C10 UNL     1      92.592 116.074 126.430  1.00  0.00    -0.026 C
HETATM    8  C11 UNL     1      93.677 116.292 125.426  1.00  0.00     0.065 C
HETATM    9  C12 UNL     1      93.624 115.222 124.398  1.00  0.00     0.015 C
HETATM   10  N1  UNL     1      94.708 114.717 123.923  1.00  0.00    -0.277 N
HETATM   11  C13 UNL     1      92.280 114.767 123.949  1.00  0.00     0.034 C
ATOM     12  H1  UNL     1      95.619 115.044 124.244  1.00  0.00     0.193 HD
HETATM   13  C14 UNL     1      91.797 113.621 124.821  1.00  0.00     0.015 C
HETATM   14  C18 UNL     1      91.297 115.867 124.329  1.00  0.00     0.016 C
HETATM   15  C15 UNL     1      91.439 114.272 126.127  1.00  0.00    -0.008 C
HETATM   16  C16 UNL     1      92.627 114.671 126.987  1.00  0.00     0.015 C
HETATM   17  C17 UNL     1      91.251 115.728 125.818  1.00  0.00    -0.001 C
BRANCH  10  18
HETATM   18  O3  UNL     1      94.613 113.726 122.971  1.00  0.00    -0.290 OA
ATOM     19  H3  UNL     1      95.205 112.986 123.023  1.00  0.00     0.244 HD
ENDBRANCH  10  18
ENDBRANCH   4   7
BRANCH   1  20
HETATM   20  C5  UNL     1      90.000 119.565 128.720  1.00  0.00     0.069 C
BRANCH  20  21
HETATM   21  C4  UNL     1      89.631 119.728 130.176  1.00  0.00     0.020 C
HETATM   22  C3  UNL     1      88.616 120.486 130.529  1.00  0.00     0.156 C
HETATM   23  F2  UNL     1      87.903 121.120 129.580  1.00  0.00    -0.205 F
BRANCH  22  24
HETATM   24  C2  UNL     1      88.253 120.646 131.949  1.00  0.00     0.253 C
HETATM   25  C1  UNL     1      88.771 119.495 132.784  1.00  0.00     0.093 C
HETATM   26  F1  UNL     1      86.874 120.687 132.059  1.00  0.00    -0.204 F
BRANCH  24  27
HETATM   27  O1  UNL     1      88.780 121.851 132.427  1.00  0.00    -0.357 OA
ATOM     28  H1  UNL     1      88.106 122.520 132.422  1.00  0.00     0.213 HD
ENDBRANCH  24  27
ENDBRANCH  22  24
ENDBRANCH  20  21
ENDBRANCH   1  20
BRANCH   1  29
HETATM   29  O2  UNL     1      92.332 119.224 129.177  1.00  0.00    -0.388 OA
ATOM     30  H2  UNL     1      92.469 120.086 128.802  1.00  0.00     0.210 HD
ENDBRANCH   1  29
TORSDOF 7
ENDMDL