MODEL 1
REMARK VINA RESULT: -9.108672451      0.000      0.000
REMARK  8 active torsions:
REMARK  status: ('A' for Active; 'I' for Inactive)
REMARK    1  A    between atoms: C2_2  and  C3_3
REMARK    2  A    between atoms: C3_3  and  C4_4
REMARK    3  A    between atoms: C5_5  and  C6_6
REMARK    4  A    between atoms: C6_6  and  O1_7
REMARK    5  A    between atoms: C6_6  and  C7_9
REMARK    6  A    between atoms: C10_16  and  C11_17
REMARK    7  A    between atoms: C19_25  and  O3_26
REMARK    8  A    between atoms: C20_28  and  O4_29
ROOT
HETATM    1  C1  UNL     1      93.542 116.513 130.117  1.00  0.00     0.027 C
HETATM    2  C2  UNL     1      92.103 116.802 129.759  1.00  0.00     0.053 C
HETATM    3  C8  UNL     1      91.439 117.227 131.022  1.00  0.00     0.167 C
HETATM    4  O2  UNL     1      91.534 116.467 132.048  1.00  0.00    -0.292 OA
HETATM    5  C9  UNL     1      90.691 118.454 131.159  1.00  0.00    -0.009 C
HETATM    6  C10 UNL     1      89.640 118.548 131.975  1.00  0.00     0.011 C
HETATM    7  C18 UNL     1      91.104 119.640 130.368  1.00  0.00     0.076 C
HETATM    8  C19 UNL     1      92.233 119.263 129.436  1.00  0.00     0.152 C
HETATM    9  C20 UNL     1      91.984 117.925 128.779  1.00  0.00     0.163 C
ENDROOT
BRANCH   2  10
HETATM   10  C3  UNL     1      91.365 115.561 129.314  1.00  0.00     0.047 C
BRANCH  10  11
HETATM   11  C4  UNL     1      92.232 114.496 128.822  1.00  0.00    -0.027 C
HETATM   12  C5  UNL     1      92.041 113.993 127.614  1.00  0.00     0.009 C
BRANCH  12  13
HETATM   13  C6  UNL     1      90.976 114.438 126.685  1.00  0.00     0.248 C
BRANCH  13  14
HETATM   14  O1  UNL     1      90.280 113.336 126.183  1.00  0.00    -0.383 OA
ATOM     15  H1  UNL     1      89.903 112.832 126.895  1.00  0.00     0.210 HD
ENDBRANCH  13  14
BRANCH  13  16
HETATM   16  C7  UNL     1      91.608 115.163 125.491  1.00  0.00     0.416 C
HETATM   17  F1  UNL     1      91.065 116.422 125.353  1.00  0.00    -0.168 F
HETATM   18  F2  UNL     1      91.397 114.447 124.348  1.00  0.00    -0.168 F
HETATM   19  F3  UNL     1      92.967 115.346 125.745  1.00  0.00    -0.168 F
ENDBRANCH  13  16
ENDBRANCH  12  13
ENDBRANCH  10  11
ENDBRANCH   2  10
BRANCH   9  20
HETATM   20  O4  UNL     1      92.756 117.796 127.656  1.00  0.00    -0.392 OA
ATOM     21  H4  UNL     1      92.294 117.918 126.835  1.00  0.00     0.210 HD
ENDBRANCH   9  20
BRANCH   8  22
HETATM   22  O3  UNL     1      92.271 120.241 128.428  1.00  0.00    -0.393 OA
ATOM     23  H3  UNL     1      92.861 120.922 128.730  1.00  0.00     0.210 HD
ENDBRANCH   8  22
BRANCH   6  24
HETATM   24  C11 UNL     1      88.883 119.773 132.120  1.00  0.00     0.003 C
HETATM   25  C12 UNL     1      88.328 120.058 133.272  1.00  0.00    -0.080 C
HETATM   26  C13 UNL     1      88.432 119.179 134.468  1.00  0.00     0.034 C
HETATM   27  C17 UNL     1      87.551 121.316 133.422  1.00  0.00     0.034 C
HETATM   28  C14 UNL     1      87.746 119.909 135.612  1.00  0.00     0.004 C
HETATM   29  C15 UNL     1      88.384 121.269 135.776  1.00  0.00     0.001 C
HETATM   30  C16 UNL     1      88.165 122.097 134.554  1.00  0.00     0.004 C
ENDBRANCH   6  24
TORSDOF 8
ENDMDL