MODEL 1
REMARK VINA RESULT: -10.036049658      0.000      0.000
REMARK  5 active torsions:
REMARK  status: ('A' for Active; 'I' for Inactive)
REMARK    1  A    between atoms: N1_1  and  C1_4
REMARK    2  A    between atoms: C4_9  and  C5_10
REMARK    3  A    between atoms: C8_13  and  N3_14
REMARK       I    between atoms: N3_14  and  C9_16
REMARK    4  A    between atoms: C9_16  and  C10_18
REMARK    5  A    between atoms: C10_18  and  C11_19
ROOT
HETATM    1  C5  UNL     1      89.967 118.685 128.851  1.00  0.00     0.019 C
HETATM    2  C6  UNL     1      90.822 118.614 130.123  1.00  0.00     0.011 C
HETATM    3  C7  UNL     1      89.841 118.612 131.273  1.00  0.00     0.026 C
HETATM    4  C8  UNL     1      89.172 119.969 131.305  1.00  0.00     0.084 C
HETATM    5  C12 UNL     1      88.511 120.302 129.991  1.00  0.00     0.026 C
HETATM    6  C13 UNL     1      89.391 120.076 128.809  1.00  0.00     0.011 C
ENDROOT
BRANCH   1   7
HETATM    7  C4  UNL     1      90.871 118.400 127.722  1.00  0.00    -0.052 A
HETATM    8  C3  UNL     1      90.908 117.212 127.066  1.00  0.00     0.040 A
HETATM    9  C2  UNL     1      91.768 116.956 126.001  1.00  0.00     0.070 A
HETATM   10  N2  UNL     1      91.997 115.901 125.206  1.00  0.00    -0.320 N
HETATM   11  C16 UNL     1      92.616 117.972 125.606  1.00  0.00     0.106 A
HETATM   12  C1  UNL     1      92.959 116.240 124.338  1.00  0.00     0.223 A
ATOM     13  H2  UNL     1      91.524 114.999 125.254  1.00  0.00     0.169 HD
HETATM   14  O2  UNL     1      93.309 117.472 124.596  1.00  0.00    -0.277 OA
HETATM   15  C15 UNL     1      92.610 119.207 126.253  1.00  0.00     0.040 A
HETATM   16  C14 UNL     1      91.727 119.398 127.310  1.00  0.00     0.010 A
BRANCH  12  17
HETATM   17  N1  UNL     1      93.489 115.534 123.397  1.00  0.00    -0.365 N
ATOM     18  H12 UNL     1      93.940 114.633 123.558  1.00  0.00     0.159 HD
ATOM     19  H11 UNL     1      93.546 115.735 122.399  1.00  0.00     0.159 HD
ENDBRANCH  12  17
ENDBRANCH   1   7
BRANCH   4  20
HETATM   20  N3  UNL     1      88.242 120.051 132.398  1.00  0.00    -0.356 N
HETATM   21  C9  UNL     1      88.095 121.237 133.152  1.00  0.00     0.222 C
HETATM   22  O1  UNL     1      88.779 122.244 132.878  1.00  0.00    -0.273 OA
ATOM     23  H3  UNL     1      87.676 119.237 132.634  1.00  0.00     0.162 HD
BRANCH  21  24
HETATM   24  C10 UNL     1      87.137 121.309 134.272  1.00  0.00     0.161 C
BRANCH  24  25
HETATM   25  C11 UNL     1      87.729 120.694 135.542  1.00  0.00     0.196 C
HETATM   26 CL1  UNL     1      88.380 119.077 135.195  1.00  0.00    -0.083 Cl
HETATM   27 CL2  UNL     1      89.101 121.693 136.120  1.00  0.00    -0.083 Cl
HETATM   28 CL3  UNL     1      86.457 120.573 136.768  1.00  0.00    -0.083 Cl
ENDBRANCH  24  25
ENDBRANCH  21  24
ENDBRANCH   4  20
TORSDOF 5
ENDMDL