MODEL 3
REMARK VINA RESULT: -7.995634365      3.515      6.178
REMARK  6 active torsions:
REMARK  status: ('A' for Active; 'I' for Inactive)
REMARK    1  A    between atoms: C3_6  and  C4_7
REMARK    2  A    between atoms: N2_21  and  C15_22
REMARK    3  A    between atoms: C15_22  and  C16_23
REMARK    4  A    between atoms: C16_23  and  O1_24
REMARK    5  A    between atoms: C16_23  and  C17_26
REMARK    6  A    between atoms: C17_26  and  O2_27
ROOT
HETATM    1  N1  UNL     1      90.650 116.171 126.651  1.00  0.00    -0.385 N
ATOM      2  H11 UNL     1      90.546 116.559 125.714  1.00  0.00     0.157 HD
ATOM      3  H12 UNL     1      90.091 116.754 127.275  1.00  0.00     0.157 HD
HETATM    4  C1  UNL     1      91.376 115.139 126.975  1.00  0.00     0.104 C
HETATM    5  C2  UNL     1      91.523 114.584 128.319  1.00  0.00    -0.008 C
HETATM    6  C3  UNL     1      91.516 115.142 129.484  1.00  0.00     0.024 C
HETATM    7  C10 UNL     1      91.738 113.156 127.992  1.00  0.00     0.045 C
HETATM    8  C11 UNL     1      92.490 112.346 128.938  1.00  0.00     0.011 C
HETATM    9  C12 UNL     1      93.449 111.547 128.057  1.00  0.00     0.003 C
HETATM   10  C13 UNL     1      93.094 112.010 126.615  1.00  0.00     0.026 C
HETATM   11  C14 UNL     1      92.836 113.419 126.927  1.00  0.00     0.094 C
HETATM   12  N2  UNL     1      92.174 114.306 126.083  1.00  0.00    -0.359 N
ENDROOT
BRANCH   6  13
HETATM   13  C4  UNL     1      91.362 116.527 129.844  1.00  0.00    -0.011 A
HETATM   14  C5  UNL     1      92.006 117.534 129.116  1.00  0.00     0.037 A
HETATM   15  C6  UNL     1      91.833 118.865 129.421  1.00  0.00     0.036 A
HETATM   16 CL1  UNL     1      92.673 120.061 128.464  1.00  0.00    -0.084 Cl
HETATM   17  C7  UNL     1      91.016 119.263 130.463  1.00  0.00     0.049 A
HETATM   18  C8  UNL     1      90.377 118.305 131.186  1.00  0.00     0.058 A
HETATM   19 CL2  UNL     1      89.338 118.812 132.507  1.00  0.00    -0.082 Cl
HETATM   20  C9  UNL     1      90.554 116.957 130.874  1.00  0.00     0.066 A
HETATM   21 CL3  UNL     1      89.624 115.837 131.846  1.00  0.00    -0.082 Cl
ENDBRANCH   6  13
BRANCH  12  22
HETATM   22  C15 UNL     1      92.127 114.564 124.662  1.00  0.00     0.158 C
BRANCH  22  23
HETATM   23  C16 UNL     1      93.233 115.338 124.070  1.00  0.00     0.159 C
BRANCH  23  24
HETATM   24  O1  UNL     1      93.763 114.920 122.891  1.00  0.00    -0.392 OA
ATOM     25  H1  UNL     1      94.355 114.177 122.895  1.00  0.00     0.210 HD
ENDBRANCH  23  24
BRANCH  23  26
HETATM   26  C17 UNL     1      92.767 116.772 123.859  1.00  0.00     0.197 C
BRANCH  26  27
HETATM   27  O2  UNL     1      91.430 116.756 123.504  1.00  0.00    -0.398 OA
ATOM     28  H2  UNL     1      91.230 117.558 123.035  1.00  0.00     0.209 HD
ENDBRANCH  26  27
ENDBRANCH  23  26
ENDBRANCH  22  23
ENDBRANCH  12  22
TORSDOF 6
ENDMDL