MODEL 2
REMARK VINA RESULT: -7.406162031      1.162      1.658
REMARK  6 active torsions:
REMARK  status: ('A' for Active; 'I' for Inactive)
REMARK    1  A    between atoms: C2_2  and  C4_4
REMARK    2  A    between atoms: C4_4  and  C5_5
REMARK    3  A    between atoms: C13_21  and  C14_22
REMARK    4  A    between atoms: C14_22  and  C15_23
REMARK    5  A    between atoms: C14_22  and  N4_25
REMARK    6  A    between atoms: N4_25  and  C16_27
ROOT
HETATM    1  C5  UNL     1      91.823 118.234 130.545  1.00  0.00     0.214 C
HETATM    2  O1  UNL     1      91.826 117.986 129.180  1.00  0.00    -0.369 OA
HETATM    3  C6  UNL     1      92.849 118.633 128.509  1.00  0.00     0.244 C
HETATM    4  C7  UNL     1      92.450 118.871 127.105  1.00  0.00     0.094 C
HETATM    5  N1  UNL     1      92.536 120.054 126.626  1.00  0.00    -0.387 N
ATOM      6  H11 UNL     1      92.261 120.219 125.658  1.00  0.00     0.157 HD
ATOM      7  H12 UNL     1      92.876 120.803 127.230  1.00  0.00     0.157 HD
HETATM    8  N2  UNL     1      91.979 117.834 126.269  1.00  0.00    -0.378 N
ATOM      9  H2  UNL     1      91.823 117.989 125.273  1.00  0.00     0.160 HD
HETATM   10  C8  UNL     1      91.727 116.554 126.872  1.00  0.00     0.121 C
HETATM   11  C9  UNL     1      91.618 115.389 125.962  1.00  0.00     0.020 C
HETATM   12  C10 UNL     1      91.940 114.146 126.809  1.00  0.00     0.003 C
HETATM   13  C11 UNL     1      91.160 114.106 128.086  1.00  0.00     0.020 C
HETATM   14  C12 UNL     1      92.001 114.208 129.340  1.00  0.00     0.121 C
HETATM   15  N3  UNL     1      91.183 114.771 130.342  1.00  0.00    -0.378 N
ATOM     16  H3  UNL     1      90.240 115.069 130.092  1.00  0.00     0.160 HD
HETATM   17  C13 UNL     1      91.605 114.936 131.644  1.00  0.00     0.103 C
HETATM   18  N5  UNL     1      92.314 116.141 132.020  1.00  0.00    -0.313 N
ATOM     19  H5  UNL     1      92.622 116.154 132.992  1.00  0.00     0.170 HD
HETATM   20  C19 UNL     1      92.654 117.278 131.309  1.00  0.00     0.252 C
HETATM   21  O2  UNL     1      93.907 117.582 131.291  1.00  0.00    -0.270 OA
ENDROOT
BRANCH  17  22
HETATM   22  C14 UNL     1      92.279 113.707 132.275  1.00  0.00     0.155 C
BRANCH  22  23
HETATM   23  C15 UNL     1      91.485 113.157 133.417  1.00  0.00     0.118 C
HETATM   24  S1  UNL     1      91.513 111.352 133.489  1.00  0.00    -0.095 SA
ENDBRANCH  22  23
BRANCH  22  25
HETATM   25  N4  UNL     1      93.616 114.047 132.590  1.00  0.00    -0.406 N
ATOM     26  H4  UNL     1      93.828 114.758 133.290  1.00  0.00     0.154 HD
BRANCH  25  27
HETATM   27  C16 UNL     1      94.648 113.369 131.905  1.00  0.00     0.069 C
HETATM   28  C17 UNL     1      95.577 114.418 131.277  1.00  0.00     0.031 C
HETATM   29  C18 UNL     1      95.467 112.598 132.948  1.00  0.00     0.031 C
ENDBRANCH  25  27
ENDBRANCH  22  25
ENDBRANCH  17  22
BRANCH   1  30
HETATM   30  C4  UNL     1      90.409 118.356 130.994  1.00  0.00     0.045 C
BRANCH  30  31
HETATM   31  C2  UNL     1      89.998 119.797 131.180  1.00  0.00    -0.020 C
HETATM   32  C1  UNL     1      89.210 120.307 129.992  1.00  0.00     0.009 C
HETATM   33  C3  UNL     1      89.103 119.960 132.392  1.00  0.00     0.009 C
ENDBRANCH  30  31
ENDBRANCH   1  30
TORSDOF 6
ENDMDL