MODEL 1
REMARK VINA RESULT: -9.656182613      0.000      0.000
REMARK  9 active torsions:
REMARK  status: ('A' for Active; 'I' for Inactive)
REMARK    1  A    between atoms: C2_2  and  C3_3
REMARK    2  A    between atoms: C4_6  and  N2_7
REMARK    3  A    between atoms: N2_7  and  C5_9
REMARK    4  A    between atoms: C5_9  and  C6_10
REMARK    5  A    between atoms: C6_10  and  N3_11
REMARK    6  A    between atoms: N3_11  and  C7_13
REMARK    7  A    between atoms: C10_18  and  N5_19
REMARK    8  A    between atoms: C11_24  and  C13_26
REMARK    9  A    between atoms: C19_34  and  N8_35
ROOT
HETATM    1  C3  UNL     1      89.021 119.099 132.862  1.00  0.00     0.050 A
HETATM    2  N1  UNL     1      89.377 119.359 131.589  1.00  0.00    -0.194 N
ATOM      3  H1  UNL     1      89.828 118.615 131.058  1.00  0.00     0.184 HD
HETATM    4  C4  UNL     1      89.174 120.536 130.977  1.00  0.00     0.680 A
HETATM    5  N7  UNL     1      88.568 121.512 131.715  1.00  0.00    -0.176 N
ATOM      6  H7  UNL     1      88.393 122.424 131.293  1.00  0.00     0.186 HD
HETATM    7  C19 UNL     1      88.199 121.290 132.985  1.00  0.00     0.137 A
HETATM    8  C20 UNL     1      88.409 120.076 133.615  1.00  0.00     0.111 A
HETATM    9  C21 UNL     1      88.019 119.829 134.965  1.00  0.00     0.105 C
HETATM   10  N9  UNL     1      87.693 119.643 136.060  1.00  0.00    -0.191 NA
ENDROOT
BRANCH   1  11
HETATM   11  C2  UNL     1      89.260 117.784 133.506  1.00  0.00     0.055 C
HETATM   12  C1  UNL     1      89.873 116.792 132.542  1.00  0.00     0.011 C
ENDBRANCH   1  11
BRANCH   7  13
HETATM   13  N8  UNL     1      87.621 122.214 133.694  1.00  0.00    -0.384 N
ATOM     14  H82 UNL     1      87.481 123.115 133.235  1.00  0.00     0.157 HD
ATOM     15  H81 UNL     1      87.325 122.041 134.655  1.00  0.00     0.157 HD
ENDBRANCH   7  13
BRANCH   4  16
HETATM   16  N2  UNL     1      89.508 120.795 129.759  1.00  0.00    -0.224 N
ATOM     17  H2  UNL     1      89.533 121.768 129.455  1.00  0.00     0.177 HD
BRANCH  16  18
HETATM   18  C5  UNL     1      89.842 119.775 128.822  1.00  0.00     0.158 C
BRANCH  18  19
HETATM   19  C6  UNL     1      91.370 119.778 128.691  1.00  0.00     0.158 C
BRANCH  19  20
HETATM   20  N3  UNL     1      91.685 119.632 127.307  1.00  0.00    -0.224 N
ATOM     21  H3  UNL     1      91.611 120.441 126.690  1.00  0.00     0.177 HD
BRANCH  20  22
HETATM   22  C7  UNL     1      92.060 118.505 126.820  1.00  0.00     0.679 A
HETATM   23  N4  UNL     1      91.506 117.312 127.075  1.00  0.00    -0.195 N
HETATM   24  C8  UNL     1      91.932 116.152 126.551  1.00  0.00     0.037 A
ATOM     25  H4  UNL     1      90.708 117.283 127.710  1.00  0.00     0.184 HD
HETATM   26  C9  UNL     1      93.028 116.210 125.685  1.00  0.00     0.018 A
HETATM   27  C18 UNL     1      91.230 114.905 126.913  1.00  0.00     0.058 C
HETATM   28  C10 UNL     1      93.622 117.408 125.400  1.00  0.00     0.123 A
HETATM   29  C11 UNL     1      93.472 114.927 125.122  1.00  0.00    -0.008 C
HETATM   30  N6  UNL     1      93.130 118.520 125.967  1.00  0.00    -0.177 N
ATOM     31  H6  UNL     1      93.573 119.413 125.753  1.00  0.00     0.186 HD
HETATM   32  C12 UNL     1      94.069 114.100 126.233  1.00  0.00     0.021 C
HETATM   33  C16 UNL     1      92.182 114.196 124.693  1.00  0.00     0.015 C
HETATM   34  C17 UNL     1      91.278 113.881 125.820  1.00  0.00     0.007 C
BRANCH  28  35
HETATM   35  N5  UNL     1      94.647 117.460 124.612  1.00  0.00    -0.385 N
ATOM     36  H52 UNL     1      94.757 116.794 123.848  1.00  0.00     0.157 HD
ATOM     37  H51 UNL     1      95.358 118.181 124.737  1.00  0.00     0.157 HD
ENDBRANCH  28  35
BRANCH  29  38
HETATM   38  C13 UNL     1      94.386 115.011 123.944  1.00  0.00    -0.002 A
HETATM   39  C14 UNL     1      94.265 113.750 123.047  1.00  0.00     0.006 A
HETATM   40  C15 UNL     1      95.527 114.131 123.688  1.00  0.00     0.006 A
ENDBRANCH  29  38
ENDBRANCH  20  22
ENDBRANCH  19  20
ENDBRANCH  18  19
ENDBRANCH  16  18
ENDBRANCH   4  16
TORSDOF 9
ENDMDL