MODEL 1
REMARK VINA RESULT: -9.250196904      0.000      0.000
REMARK  7 active torsions:
REMARK  status: ('A' for Active; 'I' for Inactive)
REMARK    1  A    between atoms: C2_2  and  N1_3
REMARK    2  A    between atoms: N1_3  and  C3_5
REMARK    3  A    between atoms: C4_10  and  N4_11
REMARK    4  A    between atoms: N4_11  and  C5_13
REMARK    5  A    between atoms: C8_21  and  C9_22
REMARK    6  A    between atoms: N9_32  and  C15_34
REMARK    7  A    between atoms: C15_34  and  C16_35
ROOT
HETATM    1  C3  UNL     1      92.548 118.926 128.705  1.00  0.00     0.132 A
HETATM    2  N2  UNL     1      92.346 120.268 128.539  1.00  0.00    -0.283 N
ATOM      3  H2  UNL     1      92.971 120.888 128.023  1.00  0.00     0.188 HD
HETATM    4  N3  UNL     1      91.244 120.652 129.130  1.00  0.00    -0.283 N
ATOM      5  H3  UNL     1      90.873 121.601 129.150  1.00  0.00     0.188 HD
HETATM    6  C4  UNL     1      90.689 119.573 129.703  1.00  0.00     0.134 A
HETATM    7  C8  UNL     1      91.496 118.464 129.450  1.00  0.00     0.082 A
ENDROOT
BRANCH   7   8
HETATM    8  C9  UNL     1      91.228 117.096 129.920  1.00  0.00     0.066 A
HETATM    9  C10 UNL     1      90.763 116.861 131.200  1.00  0.00     0.119 A
HETATM   10  N7  UNL     1      90.510 115.636 131.689  1.00  0.00    -0.362 N
HETATM   11  C11 UNL     1      90.734 114.584 130.847  1.00  0.00     0.064 A
ATOM     12  H7  UNL     1      90.168 115.498 132.640  1.00  0.00     0.165 HD
HETATM   13  C12 UNL     1      90.487 113.289 131.304  1.00  0.00     0.049 A
HETATM   14  C19 UNL     1      91.195 114.775 129.568  1.00  0.00     0.104 A
HETATM   15  C13 UNL     1      90.726 112.276 130.427  1.00  0.00     0.092 A
HETATM   16  N8  UNL     1      91.181 112.476 129.167  1.00  0.00    -0.350 N
HETATM   17  C14 UNL     1      91.434 113.703 128.680  1.00  0.00     0.134 A
ATOM     18  H8  UNL     1      91.337 111.667 128.566  1.00  0.00     0.166 HD
HETATM   19  N9  UNL     1      91.850 113.993 127.547  1.00  0.00    -0.354 N
ATOM     20  H9  UNL     1      91.943 115.006 127.473  1.00  0.00     0.166 HD
HETATM   21  N10 UNL     1      91.434 116.025 129.124  1.00  0.00    -0.349 N
ATOM     22  H10 UNL     1      91.777 116.164 128.174  1.00  0.00     0.166 HD
BRANCH  19  23
HETATM   23  C15 UNL     1      92.229 113.415 126.354  1.00  0.00     0.067 C
BRANCH  23  24
HETATM   24  C16 UNL     1      92.913 114.263 125.317  1.00  0.00     0.024 A
HETATM   25  C17 UNL     1      92.782 113.774 123.868  1.00  0.00     0.010 A
HETATM   26  C18 UNL     1      92.113 115.020 124.314  1.00  0.00     0.010 A
ENDBRANCH  23  24
ENDBRANCH  19  23
ENDBRANCH   7   8
BRANCH   1  27
HETATM   27  N1  UNL     1      93.556 118.350 128.209  1.00  0.00    -0.375 N
ATOM     28  H1  UNL     1      94.388 118.433 128.793  1.00  0.00     0.161 HD
BRANCH  27  29
HETATM   29  C2  UNL     1      93.785 117.623 127.037  1.00  0.00     0.116 C
HETATM   30  C1  UNL     1      93.041 118.286 125.865  1.00  0.00     0.026 C
ENDBRANCH  27  29
ENDBRANCH   1  27
BRANCH   6  31
HETATM   31  N4  UNL     1      89.481 119.489 130.451  1.00  0.00    -0.352 N
ATOM     32  H4  UNL     1      88.772 118.820 130.152  1.00  0.00     0.163 HD
BRANCH  31  33
HETATM   33  C5  UNL     1      89.209 120.308 131.614  1.00  0.00     0.205 C
HETATM   34  C6  UNL     1      88.125 121.313 131.424  1.00  0.00     0.171 C
HETATM   35  N5  UNL     1      87.571 121.477 132.749  1.00  0.00    -0.339 N
HETATM   36  C7  UNL     1      87.983 120.387 133.551  1.00  0.00     0.317 C
ATOM     37  H5  UNL     1      86.980 122.250 133.055  1.00  0.00     0.164 HD
HETATM   38  O1  UNL     1      87.778 120.155 134.769  1.00  0.00    -0.247 OA
HETATM   39  N6  UNL     1      88.738 119.485 132.726  1.00  0.00    -0.320 N
ATOM     40  H6  UNL     1      88.907 118.492 132.882  1.00  0.00     0.166 HD
ENDBRANCH  31  33
ENDBRANCH   6  31
TORSDOF 7
ENDMDL