MODEL 2
REMARK VINA RESULT: -8.969655163      3.783      7.461
REMARK  10 active torsions:
REMARK  status: ('A' for Active; 'I' for Inactive)
REMARK    1  A    between atoms: C2_2  and  C3_3
REMARK    2  A    between atoms: C3_3  and  N1_4
REMARK    3  A    between atoms: N1_4  and  C4_6
REMARK    4  A    between atoms: C5_9  and  N3_10
REMARK    5  A    between atoms: N3_10  and  C6_12
REMARK    6  A    between atoms: C6_12  and  C7_13
REMARK    7  A    between atoms: C9_17  and  N5_18
REMARK    8  A    between atoms: C11_28  and  N9_29
REMARK    9  A    between atoms: N9_29  and  C12_31
REMARK   10  A    between atoms: C15_34  and  O1_35
ROOT
HETATM    1  C4  UNL     1      91.806 117.368 127.514  1.00  0.00     0.132 A
HETATM    2  N2  UNL     1      92.059 116.083 127.792  1.00  0.00    -0.176 N
ATOM      3  H2  UNL     1      92.441 115.492 127.054  1.00  0.00     0.186 HD
HETATM    4  C5  UNL     1      91.830 115.526 129.018  1.00  0.00     0.681 A
HETATM    5  N7  UNL     1      91.332 116.324 129.960  1.00  0.00    -0.175 N
ATOM      6  H7  UNL     1      91.151 115.932 130.883  1.00  0.00     0.186 HD
HETATM    7  C10 UNL     1      91.053 117.637 129.745  1.00  0.00     0.152 A
HETATM    8  N8  UNL     1      90.555 118.413 130.707  1.00  0.00    -0.175 N
ATOM      9  H8  UNL     1      90.377 118.013 131.628  1.00  0.00     0.186 HD
HETATM   10  C11 UNL     1      90.279 119.722 130.489  1.00  0.00     0.679 A
HETATM   11  N10 UNL     1      90.511 120.251 129.282  1.00  0.00    -0.201 N
ATOM     12  H10 UNL     1      90.304 121.236 129.118  1.00  0.00     0.183 HD
HETATM   13  C18 UNL     1      91.009 119.508 128.289  1.00  0.00     0.125 A
HETATM   14  C19 UNL     1      91.287 118.186 128.509  1.00  0.00     0.069 A
ENDROOT
BRANCH   4  15
HETATM   15  N3  UNL     1      92.107 114.270 129.190  1.00  0.00    -0.220 N
ATOM     16  H3  UNL     1      93.085 113.981 129.223  1.00  0.00     0.178 HD
BRANCH  15  17
HETATM   17  C6  UNL     1      91.088 113.280 129.336  1.00  0.00     0.197 C
BRANCH  17  18
HETATM   18  C7  UNL     1      90.950 112.842 130.752  1.00  0.00     0.060 A
HETATM   19  C8  UNL     1      90.145 113.387 131.712  1.00  0.00     0.133 A
HETATM   20  N4  UNL     1      90.276 112.748 132.875  1.00  0.00    -0.200 N
HETATM   21  C9  UNL     1      91.190 111.773 132.642  1.00  0.00     0.676 A
ATOM     22  H4  UNL     1      89.793 112.949 133.750  1.00  0.00     0.183 HD
HETATM   23  N6  UNL     1      91.597 111.830 131.356  1.00  0.00    -0.193 N
ATOM     24  H6  UNL     1      92.280 111.211 130.918  1.00  0.00     0.184 HD
BRANCH  21  25
HETATM   25  N5  UNL     1      91.551 110.962 133.583  1.00  0.00    -0.234 N
ATOM     26  H52 UNL     1      91.249 110.922 134.557  1.00  0.00     0.174 HD
ATOM     27  H51 UNL     1      92.233 110.223 133.407  1.00  0.00     0.174 HD
ENDBRANCH  21  25
ENDBRANCH  17  18
ENDBRANCH  15  17
ENDBRANCH   4  15
BRANCH   1  28
HETATM   28  N1  UNL     1      92.002 117.935 126.378  1.00  0.00    -0.372 N
ATOM     29  H1  UNL     1      91.178 118.297 125.898  1.00  0.00     0.161 HD
BRANCH  28  30
HETATM   30  C3  UNL     1      93.252 118.110 125.721  1.00  0.00     0.147 C
BRANCH  30  31
HETATM   31  C2  UNL     1      93.239 117.618 124.314  1.00  0.00    -0.018 C
HETATM   32  C1  UNL     1      92.521 116.551 124.011  1.00  0.00     0.008 C
ENDBRANCH  30  31
ENDBRANCH  28  30
ENDBRANCH   1  28
BRANCH  10  33
HETATM   33  N9  UNL     1      89.811 120.424 131.433  1.00  0.00    -0.221 N
ATOM     34  H9  UNL     1      90.402 121.204 131.723  1.00  0.00     0.178 HD
BRANCH  33  35
HETATM   35  C12 UNL     1      88.586 120.296 132.158  1.00  0.00     0.099 C
HETATM   36  C13 UNL     1      88.857 119.510 133.412  1.00  0.00     0.028 C
HETATM   37  C14 UNL     1      88.495 120.135 134.696  1.00  0.00     0.034 C
HETATM   38  C15 UNL     1      88.611 121.600 134.841  1.00  0.00     0.118 C
HETATM   39  C16 UNL     1      89.063 122.287 133.566  1.00  0.00     0.034 C
HETATM   40  C17 UNL     1      88.160 121.724 132.488  1.00  0.00     0.028 C
BRANCH  38  41
HETATM   41  O1  UNL     1      87.363 122.175 135.187  1.00  0.00    -0.396 OA
ATOM     42  H1  UNL     1      87.064 122.770 134.509  1.00  0.00     0.210 HD
ENDBRANCH  38  41
ENDBRANCH  33  35
ENDBRANCH  10  33
TORSDOF 10
ENDMDL