MODEL 4
REMARK VINA RESULT: -9.336300820      2.390      4.935
REMARK  8 active torsions:
REMARK  status: ('A' for Active; 'I' for Inactive)
REMARK    1  A    between atoms: N1_1  and  C1_4
REMARK    2  A    between atoms: C6_14  and  N4_15
REMARK    3  A    between atoms: N4_15  and  C7_17
REMARK    4  A    between atoms: C11_25  and  O1_26
REMARK    5  A    between atoms: O1_26  and  C12_27
REMARK    6  A    between atoms: C12_27  and  C13_28
REMARK    7  A    between atoms: C13_28  and  C14_29
REMARK    8  A    between atoms: C14_29  and  N7_30
ROOT
HETATM    1  C1  UNL     1      89.365 121.094 129.509  1.00  0.00     0.679 A
HETATM    2  N2  UNL     1      89.313 120.494 130.696  1.00  0.00    -0.176 N
ATOM      3  H2  UNL     1      88.858 120.951 131.487  1.00  0.00     0.186 HD
HETATM    4  C2  UNL     1      89.884 119.247 130.843  1.00  0.00     0.129 A
HETATM    5  N3  UNL     1      89.826 118.700 131.925  1.00  0.00    -0.384 N
ATOM      6  H31 UNL     1      90.248 117.777 132.034  1.00  0.00     0.157 HD
ATOM      7  H32 UNL     1      89.376 119.140 132.728  1.00  0.00     0.157 HD
HETATM    8  C3  UNL     1      90.503 118.642 129.739  1.00  0.00     0.060 A
HETATM    9  C4  UNL     1      91.083 117.371 129.873  1.00  0.00    -0.028 A
HETATM   10  C5  UNL     1      91.663 116.836 128.758  1.00  0.00     0.022 A
HETATM   11  C6  UNL     1      91.675 117.538 127.538  1.00  0.00     0.112 A
HETATM   12  N5  UNL     1      91.117 118.740 127.444  1.00  0.00    -0.327 N
ATOM     13  H5  UNL     1      91.131 119.240 126.555  1.00  0.00     0.169 HD
HETATM   14  C10 UNL     1      90.523 119.308 128.543  1.00  0.00     0.137 A
HETATM   15  N6  UNL     1      89.957 120.519 128.447  1.00  0.00    -0.176 N
ATOM     16  H6  UNL     1      89.976 121.012 127.554  1.00  0.00     0.186 HD
HETATM   17  C11 UNL     1      92.210 115.506 129.028  1.00  0.00     0.159 C
HETATM   18  C20 UNL     1      92.334 115.488 130.540  1.00  0.00     0.042 C
HETATM   19  C21 UNL     1      91.228 116.450 131.006  1.00  0.00     0.043 C
ENDROOT
BRANCH  17  20
HETATM   20  O1  UNL     1      91.252 114.521 128.725  1.00  0.00    -0.381 OA
BRANCH  20  21
HETATM   21  C12 UNL     1      91.905 113.483 128.086  1.00  0.00     0.171 C
BRANCH  21  22
HETATM   22  C13 UNL     1      91.908 113.709 126.568  1.00  0.00     0.065 C
BRANCH  22  23
HETATM   23  C14 UNL     1      93.140 113.001 126.006  1.00  0.00     0.125 C
HETATM   24  C15 UNL     1      92.881 112.594 124.574  1.00  0.00     0.038 C
HETATM   25  C16 UNL     1      93.221 113.717 123.617  1.00  0.00     0.002 C
HETATM   26  C17 UNL     1      94.694 114.057 123.659  1.00  0.00     0.000 C
HETATM   27  C18 UNL     1      95.323 113.694 124.977  1.00  0.00     0.002 C
HETATM   28  C19 UNL     1      94.361 113.847 126.132  1.00  0.00     0.038 C
BRANCH  23  29
HETATM   29  N7  UNL     1      93.331 111.782 126.765  1.00  0.00    -0.070 N
ATOM     30  H73 UNL     1      93.658 111.955 127.717  1.00  0.00     0.275 HD
ATOM     31  H72 UNL     1      92.452 111.324 127.007  1.00  0.00     0.275 HD
ATOM     32  H71 UNL     1      93.959 111.182 126.232  1.00  0.00     0.275 HD
ENDBRANCH  23  29
ENDBRANCH  22  23
ENDBRANCH  21  22
ENDBRANCH  20  21
ENDBRANCH  17  20
BRANCH  11  33
HETATM   33  N4  UNL     1      92.234 117.019 126.487  1.00  0.00    -0.371 N
ATOM     34  H4  UNL     1      92.199 116.009 126.345  1.00  0.00     0.161 HD
BRANCH  33  35
HETATM   35  C7  UNL     1      92.903 117.852 125.518  1.00  0.00     0.083 A
HETATM   36  C8  UNL     1      94.254 117.434 125.011  1.00  0.00     0.027 A
HETATM   37  C9  UNL     1      93.021 117.459 124.109  1.00  0.00     0.027 A
ENDBRANCH  33  35
ENDBRANCH  11  33
BRANCH   1  38
HETATM   38  N1  UNL     1      88.832 122.272 129.355  1.00  0.00    -0.234 N
ATOM     39  H12 UNL     1      88.959 122.746 128.461  1.00  0.00     0.174 HD
ATOM     40  H11 UNL     1      88.306 122.695 130.120  1.00  0.00     0.174 HD
ENDBRANCH   1  38
TORSDOF 8
ENDMDL