MODEL 4
REMARK VINA RESULT: -8.169031256      3.986      8.290
REMARK  8 active torsions:
REMARK  status: ('A' for Active; 'I' for Inactive)
REMARK    1  A    between atoms: N1_4  and  C4_5
REMARK    2  A    between atoms: C4_5  and  C5_6
REMARK    3  A    between atoms: C5_6  and  C6_7
REMARK    4  A    between atoms: C6_7  and  C7_8
REMARK    5  A    between atoms: C7_8  and  N2_9
REMARK       I    between atoms: N2_9  and  C8_11
REMARK    6  A    between atoms: C9_16  and  O1_17
REMARK    7  A    between atoms: C16_25  and  O2_26
REMARK    8  A    between atoms: C19_30  and  O3_31
ROOT
HETATM    1  C1  UNL     1      93.202 117.305 125.985  1.00  0.00     0.041 C
HETATM    2  C2  UNL     1      91.731 117.056 126.189  1.00  0.00     0.146 C
HETATM    3  C3  UNL     1      91.320 115.616 126.010  1.00  0.00     0.307 C
HETATM    4  N1  UNL     1      92.380 114.646 126.171  1.00  0.00     0.126 N
HETATM    5  C9  UNL     1      92.479 114.076 127.479  1.00  0.00     0.259 C
HETATM    6  C10 UNL     1      93.760 114.429 128.205  1.00  0.00     0.072 C
HETATM    7  C11 UNL     1      93.368 115.326 129.372  1.00  0.00     0.010 C
HETATM    8  C12 UNL     1      92.075 114.754 129.792  1.00  0.00    -0.004 C
HETATM    9  C13 UNL     1      91.423 114.298 128.474  1.00  0.00     0.076 C
HETATM   10  C14 UNL     1      91.124 115.620 130.535  1.00  0.00     0.014 C
HETATM   11  C15 UNL     1      90.205 114.641 131.305  1.00  0.00     0.013 C
HETATM   12  C16 UNL     1      91.640 116.570 131.517  1.00  0.00     0.122 C
HETATM   13  C17 UNL     1      92.014 117.931 131.068  1.00  0.00     0.034 C
HETATM   14  C18 UNL     1      91.140 118.627 130.103  1.00  0.00     0.036 C
HETATM   15  C19 UNL     1      92.021 119.203 129.000  1.00  0.00     0.142 C
HETATM   16  C20 UNL     1      91.501 118.883 127.612  1.00  0.00     0.199 C
HETATM   17  O4  UNL     1      91.260 117.562 127.388  1.00  0.00    -0.382 OA
ENDROOT
BRANCH   4  18
HETATM   18  C4  UNL     1      92.146 113.616 125.149  1.00  0.00     0.276 C
BRANCH  18  19
HETATM   19  C5  UNL     1      92.782 113.806 123.835  1.00  0.00     0.032 C
BRANCH  19  20
HETATM   20  C6  UNL     1      94.232 114.181 123.956  1.00  0.00     0.021 C
BRANCH  20  21
HETATM   21  C7  UNL     1      95.201 113.068 123.785  1.00  0.00     0.122 C
BRANCH  21  22
HETATM   22  N2  UNL     1      96.031 113.064 122.638  1.00  0.00    -0.365 N
HETATM   23  C8  UNL     1      95.687 112.825 121.300  1.00  0.00     0.181 C
HETATM   24  N3  UNL     1      94.791 113.489 120.668  1.00  0.00    -0.374 N
HETATM   25  N4  UNL     1      96.398 111.802 120.591  1.00  0.00    -0.064 NA
ATOM     26  H32 UNL     1      94.284 114.217 121.172  1.00  0.00     0.158 HD
ATOM     27  H31 UNL     1      94.541 113.315 119.694  1.00  0.00     0.158 HD
ATOM     28  H2  UNL     1      97.017 113.262 122.809  1.00  0.00     0.162 HD
ENDBRANCH  21  22
ENDBRANCH  20  21
ENDBRANCH  19  20
ENDBRANCH  18  19
ENDBRANCH   4  18
BRANCH   5  29
HETATM   29  O1  UNL     1      92.527 112.673 127.327  1.00  0.00    -0.363 OA
ATOM     30  H1  UNL     1      92.411 112.290 128.188  1.00  0.00     0.212 HD
ENDBRANCH   5  29
BRANCH  15  31
HETATM   31  O3  UNL     1      92.179 120.567 129.138  1.00  0.00    -0.393 OA
ATOM     32  H3  UNL     1      92.306 120.991 128.296  1.00  0.00     0.210 HD
ENDBRANCH  15  31
BRANCH  12  33
HETATM   33  O2  UNL     1      90.658 116.743 132.526  1.00  0.00    -0.395 OA
ATOM     34  H2  UNL     1      90.076 117.443 132.257  1.00  0.00     0.210 HD
ENDBRANCH  12  33
TORSDOF 8
ENDMDL