MODEL 4
REMARK VINA RESULT: -9.555604764      1.487      1.766
REMARK  8 active torsions:
REMARK  status: ('A' for Active; 'I' for Inactive)
REMARK    1  A    between atoms: C2_2  and  C3_3
REMARK    2  A    between atoms: C6_6  and  N1_7
REMARK    3  A    between atoms: N1_7  and  C7_9
REMARK    4  A    between atoms: C8_12  and  N3_13
REMARK    5  A    between atoms: N3_13  and  C9_15
REMARK    6  A    between atoms: C11_17  and  C12_18
REMARK    7  A    between atoms: C15_27  and  N7_28
REMARK       I    between atoms: N7_28  and  C16_30
REMARK    8  A    between atoms: N10_35  and  O1_36
ROOT
HETATM    1  C7  UNL     1      91.723 118.470 130.408  1.00  0.00     0.734 A
HETATM    2  N2  UNL     1      91.284 117.529 131.273  1.00  0.00    -0.019 N
ATOM      3  H2  UNL     1      91.763 116.629 131.312  1.00  0.00     0.203 HD
HETATM    4  C8  UNL     1      90.234 117.747 132.085  1.00  0.00     0.713 A
HETATM    5  N6  UNL     1      89.619 118.929 132.022  1.00  0.00    -0.019 N
ATOM      6  H6  UNL     1      88.822 119.110 132.632  1.00  0.00     0.203 HD
HETATM    7  C15 UNL     1      90.037 119.911 131.153  1.00  0.00     0.741 A
HETATM    8  N10 UNL     1      91.084 119.676 130.353  1.00  0.00     0.128 N
ENDROOT
BRANCH   4   9
HETATM    9  N3  UNL     1      89.878 116.806 132.877  1.00  0.00    -0.174 N
ATOM     10  H3  UNL     1      89.380 117.070 133.727  1.00  0.00     0.186 HD
BRANCH   9  11
HETATM   11  C9  UNL     1      90.122 115.435 132.665  1.00  0.00     0.137 A
HETATM   12  C10 UNL     1      90.095 114.686 131.510  1.00  0.00     0.077 A
HETATM   13  C11 UNL     1      90.406 113.377 131.816  1.00  0.00     0.033 A
HETATM   14  N4  UNL     1      90.615 113.350 133.144  1.00  0.00    -0.303 N
HETATM   15  N5  UNL     1      90.445 114.575 133.649  1.00  0.00    -0.285 N
ATOM     16  H4  UNL     1      90.865 112.521 133.684  1.00  0.00     0.186 HD
ATOM     17  H5  UNL     1      90.544 114.822 134.633  1.00  0.00     0.188 HD
BRANCH  13  18
HETATM   18  C12 UNL     1      90.494 112.226 130.877  1.00  0.00     0.037 A
HETATM   19  C13 UNL     1      90.987 112.400 129.498  1.00  0.00     0.011 A
HETATM   20  C14 UNL     1      91.961 111.856 130.499  1.00  0.00     0.011 A
ENDBRANCH  13  18
ENDBRANCH   9  11
ENDBRANCH   4   9
BRANCH   1  21
HETATM   21  N1  UNL     1      92.715 118.307 129.620  1.00  0.00    -0.218 N
ATOM     22  H1  UNL     1      93.535 118.894 129.766  1.00  0.00     0.178 HD
BRANCH  21  23
HETATM   23  C6  UNL     1      92.760 117.360 128.546  1.00  0.00     0.099 C
HETATM   24  C5  UNL     1      91.504 117.386 127.700  1.00  0.00     0.026 C
HETATM   25  C4  UNL     1      91.525 116.139 126.830  1.00  0.00     0.006 C
HETATM   26  C3  UNL     1      92.703 116.230 125.914  1.00  0.00    -0.015 C
HETATM   27  C18 UNL     1      93.547 117.465 126.171  1.00  0.00     0.006 C
HETATM   28  C17 UNL     1      93.941 117.552 127.634  1.00  0.00     0.026 C
BRANCH  26  29
HETATM   29  C2  UNL     1      92.240 116.224 124.495  1.00  0.00     0.000 C
HETATM   30  C1  UNL     1      92.839 117.311 123.662  1.00  0.00     0.005 C
ENDBRANCH  26  29
ENDBRANCH  21  23
ENDBRANCH   1  21
BRANCH   7  31
HETATM   31  N7  UNL     1      89.333 121.127 131.150  1.00  0.00    -0.161 N
HETATM   32  C16 UNL     1      88.365 121.435 130.180  1.00  0.00     0.200 C
HETATM   33  N8  UNL     1      88.726 122.082 129.109  1.00  0.00    -0.373 N
HETATM   34  N9  UNL     1      86.977 121.082 130.321  1.00  0.00    -0.063 NA
ATOM     35  H82 UNL     1      89.709 122.332 129.008  1.00  0.00     0.158 HD
ATOM     36  H81 UNL     1      88.023 122.305 128.404  1.00  0.00     0.158 HD
ATOM     37  H7  UNL     1      89.533 121.811 131.880  1.00  0.00     0.187 HD
ENDBRANCH   7  31
BRANCH   8  38
HETATM   38  O1  UNL     1      91.518 120.630 129.485  1.00  0.00    -0.256 OA
ATOM     39  H1  UNL     1      92.074 121.333 129.799  1.00  0.00     0.246 HD
ENDBRANCH   8  38
TORSDOF 8
ENDMDL