MODEL 4
REMARK VINA RESULT: -6.872518357      2.042      4.461
REMARK  7 active torsions:
REMARK  status: ('A' for Active; 'I' for Inactive)
REMARK    1  A    between atoms: C2_2  and  O1_3
REMARK    2  A    between atoms: O1_3  and  C3_4
REMARK    3  A    between atoms: C5_6  and  N1_7
REMARK       I    between atoms: N1_7  and  C6_9
REMARK    4  A    between atoms: C10_17  and  O3_18
REMARK    5  A    between atoms: C11_20  and  C12_21
REMARK    6  A    between atoms: C13_22  and  C14_23
REMARK    7  A    between atoms: C20_29  and  C21_30
ROOT
HETATM    1  C3  UNL     1      91.691 116.233 129.146  1.00  0.00     0.120 C
HETATM    2  C4  UNL     1      91.357 117.484 128.481  1.00  0.00     0.039 C
HETATM    3  C5  UNL     1      91.220 118.758 129.221  1.00  0.00     0.014 C
HETATM    4  C7  UNL     1      92.325 119.130 130.149  1.00  0.00     0.083 C
HETATM    5  C8  UNL     1      92.710 118.079 131.146  1.00  0.00     0.098 C
HETATM    6  N3  UNL     1      91.579 117.547 131.762  1.00  0.00    -0.413 N
ATOM      7  H3  UNL     1      90.939 118.147 132.282  1.00  0.00     0.153 HD
HETATM    8  C9  UNL     1      91.338 116.165 131.652  1.00  0.00     0.149 C
HETATM    9  C10 UNL     1      90.811 115.761 130.267  1.00  0.00     0.174 C
HETATM   10  C11 UNL     1      93.654 117.153 130.481  1.00  0.00     0.103 C
HETATM   11  C20 UNL     1      93.120 116.117 129.614  1.00  0.00     0.134 C
ENDROOT
BRANCH  10  12
HETATM   12  C12 UNL     1      94.553 116.562 131.491  1.00  0.00    -0.098 C
HETATM   13  C13 UNL     1      95.291 116.089 132.330  1.00  0.00    -0.101 C
BRANCH  13  14
HETATM   14  C14 UNL     1      96.182 115.511 133.318  1.00  0.00     0.065 C
HETATM   15  C15 UNL     1      97.490 115.064 132.758  1.00  0.00     0.017 C
HETATM   16  C16 UNL     1      98.652 115.772 133.421  1.00  0.00     0.001 C
HETATM   17  C17 UNL     1      98.501 117.269 133.308  1.00  0.00     0.000 C
HETATM   18  C18 UNL     1      97.251 117.670 134.036  1.00  0.00     0.001 C
HETATM   19  C19 UNL     1      96.451 116.463 134.467  1.00  0.00     0.017 C
ENDBRANCH  13  14
ENDBRANCH  10  12
BRANCH  11  20
HETATM   20  C21 UNL     1      93.991 115.924 128.432  1.00  0.00     0.239 C
HETATM   21  N4  UNL     1      94.527 114.718 127.972  1.00  0.00    -0.062 NA
HETATM   22  O4  UNL     1      94.290 116.966 127.755  1.00  0.00    -0.276 OA
ENDBRANCH  11  20
BRANCH   1  23
HETATM   23  O1  UNL     1      91.591 115.182 128.201  1.00  0.00    -0.373 OA
BRANCH  23  24
HETATM   24  C2  UNL     1      91.036 115.460 127.017  1.00  0.00     0.165 C
HETATM   25  C1  UNL     1      91.367 114.291 126.065  1.00  0.00     0.033 C
ENDBRANCH  23  24
ENDBRANCH   1  23
BRANCH   3  26
HETATM   26  N1  UNL     1      89.907 119.007 129.748  1.00  0.00    -0.315 N
HETATM   27  C6  UNL     1      89.126 120.061 129.253  1.00  0.00     0.333 C
HETATM   28  N2  UNL     1      87.826 120.337 129.748  1.00  0.00    -0.040 NA
HETATM   29  O2  UNL     1      89.580 120.793 128.341  1.00  0.00    -0.251 OA
ATOM     30  H1  UNL     1      89.539 118.412 130.490  1.00  0.00     0.170 HD
ENDBRANCH   3  26
BRANCH   9  31
HETATM   31  O3  UNL     1      90.871 114.340 130.354  1.00  0.00    -0.391 OA
ATOM     32  H3  UNL     1      90.149 114.023 130.884  1.00  0.00     0.210 HD
ENDBRANCH   9  31
TORSDOF 7
ENDMDL