MODEL 1
REMARK VINA RESULT: -10.358915771      0.000      0.000
REMARK  7 active torsions:
REMARK  status: ('A' for Active; 'I' for Inactive)
REMARK    1  A    between atoms: C2_2  and  N1_3
REMARK    2  A    between atoms: N1_3  and  C3_5
REMARK    3  A    between atoms: C3_5  and  C5_7
REMARK    4  A    between atoms: C5_7  and  N2_8
REMARK    5  A    between atoms: N2_8  and  C6_10
REMARK    6  A    between atoms: C9_15  and  N4_16
REMARK    7  A    between atoms: N4_16  and  C10_18
ROOT
HETATM    1  C6  UNL     1      88.565 119.918 133.277  1.00  0.00     0.102 A
HETATM    2  C7  UNL     1      89.458 119.198 132.536  1.00  0.00     0.079 A
HETATM    3  C8  UNL     1      89.698 119.557 131.223  1.00  0.00     0.068 A
HETATM    4  N3  UNL     1      90.560 118.884 130.449  1.00  0.00    -0.191 N
ATOM      5  H3  UNL     1      91.063 118.083 130.829  1.00  0.00     0.184 HD
HETATM    6  C9  UNL     1      90.769 119.264 129.156  1.00  0.00     0.680 A
HETATM    7  N6  UNL     1      90.107 120.301 128.684  1.00  0.00    -0.176 N
ATOM      8  H6  UNL     1      90.270 120.575 127.715  1.00  0.00     0.186 HD
HETATM    9  C20 UNL     1      89.219 121.028 129.413  1.00  0.00     0.128 A
HETATM   10  N7  UNL     1      88.630 122.024 128.847  1.00  0.00    -0.384 N
ATOM     11  H71 UNL     1      87.964 122.570 129.394  1.00  0.00     0.157 HD
ATOM     12  H72 UNL     1      88.789 122.304 127.879  1.00  0.00     0.157 HD
HETATM   13  C21 UNL     1      89.002 120.648 130.728  1.00  0.00     0.051 A
HETATM   14  C22 UNL     1      88.112 121.353 131.496  1.00  0.00     0.107 A
HETATM   15  N8  UNL     1      87.902 120.970 132.787  1.00  0.00    -0.351 N
ATOM     16  H8  UNL     1      87.244 121.482 133.375  1.00  0.00     0.166 HD
ENDROOT
BRANCH   6  17
HETATM   17  N4  UNL     1      91.603 118.581 128.462  1.00  0.00    -0.221 N
ATOM     18  H4  UNL     1      92.558 118.565 128.819  1.00  0.00     0.178 HD
BRANCH  17  19
HETATM   19  C10 UNL     1      91.385 117.842 127.265  1.00  0.00     0.099 C
HETATM   20  C11 UNL     1      91.287 116.370 127.626  1.00  0.00     0.026 C
HETATM   21  C12 UNL     1      91.278 115.498 126.391  1.00  0.00     0.011 C
HETATM   22  C13 UNL     1      92.489 115.706 125.519  1.00  0.00    -0.037 C
HETATM   23  C14 UNL     1      93.750 115.327 126.250  1.00  0.00     0.037 C
HETATM   24  C17 UNL     1      92.300 114.922 124.243  1.00  0.00     0.037 C
HETATM   25  C18 UNL     1      92.524 117.170 125.140  1.00  0.00     0.011 C
HETATM   26  C15 UNL     1      94.484 114.225 125.483  1.00  0.00     0.233 C
HETATM   27  N5  UNL     1      93.557 113.124 125.346  1.00  0.00    -0.075 N
HETATM   28  C16 UNL     1      92.498 113.439 124.430  1.00  0.00     0.233 C
ATOM     29  H52 UNL     1      94.036 112.264 125.080  1.00  0.00     0.277 HD
ATOM     30  H51 UNL     1      93.192 112.829 126.251  1.00  0.00     0.277 HD
HETATM   31  C19 UNL     1      92.565 118.086 126.341  1.00  0.00     0.026 C
ENDBRANCH  17  19
ENDBRANCH   6  17
BRANCH   1  32
HETATM   32  N2  UNL     1      88.340 119.569 134.503  1.00  0.00    -0.374 N
ATOM     33  H2  UNL     1      88.779 118.721 134.860  1.00  0.00     0.161 HD
BRANCH  32  34
HETATM   34  C5  UNL     1      87.494 120.331 135.379  1.00  0.00     0.145 C
BRANCH  34  35
HETATM   35  C3  UNL     1      88.193 120.766 136.653  1.00  0.00     0.090 C
HETATM   36  C4  UNL     1      89.182 121.884 136.384  1.00  0.00     0.033 C
BRANCH  35  37
HETATM   37  N1  UNL     1      87.266 121.174 137.656  1.00  0.00    -0.416 N
ATOM     38  H1  UNL     1      86.924 122.133 137.726  1.00  0.00     0.153 HD
BRANCH  37  39
HETATM   39  C2  UNL     1      86.852 120.153 138.549  1.00  0.00     0.110 C
HETATM   40  C1  UNL     1      85.372 119.987 138.576  1.00  0.00     0.026 C
ENDBRANCH  37  39
ENDBRANCH  35  37
ENDBRANCH  34  35
ENDBRANCH  32  34
ENDBRANCH   1  32
TORSDOF 7
ENDMDL