MODEL 1
REMARK VINA RESULT: -9.866248847      0.000      0.000
REMARK  7 active torsions:
REMARK  status: ('A' for Active; 'I' for Inactive)
REMARK    1  A    between atoms: N1_1  and  C1_4
REMARK    2  A    between atoms: C5_13  and  C6_14
REMARK       I    between atoms: C6_14  and  N4_16
REMARK    3  A    between atoms: N4_16  and  C7_18
REMARK    4  A    between atoms: C11_22  and  C12_23
REMARK    5  A    between atoms: C12_23  and  N5_24
REMARK    6  A    between atoms: N5_24  and  C13_26
REMARK    7  A    between atoms: C16_29  and  N6_30
ROOT
HETATM    1  C7  UNL     1      92.450 115.780 131.092  1.00  0.00     0.084 C
HETATM    2  C8  UNL     1      92.084 114.387 130.724  1.00  0.00     0.025 C
HETATM    3  C9  UNL     1      90.612 114.089 130.760  1.00  0.00     0.002 C
HETATM    4  C10 UNL     1      89.974 114.603 132.028  1.00  0.00     0.006 C
HETATM    5  C11 UNL     1      90.105 116.128 131.924  1.00  0.00     0.005 C
HETATM    6  C19 UNL     1      91.538 116.469 132.053  1.00  0.00     0.031 C
ENDROOT
BRANCH   1   7
HETATM    7  N4  UNL     1      92.572 116.580 129.888  1.00  0.00    -0.356 N
HETATM    8  C6  UNL     1      93.598 117.499 129.645  1.00  0.00     0.226 C
HETATM    9  O2  UNL     1      94.482 117.630 130.561  1.00  0.00    -0.273 OA
ATOM     10  H4  UNL     1      91.860 116.464 129.168  1.00  0.00     0.162 HD
BRANCH   8  11
HETATM   11  C5  UNL     1      93.743 118.316 128.440  1.00  0.00     0.118 C
HETATM   12  C3  UNL     1      93.545 117.491 127.221  1.00  0.00     0.047 A
HETATM   13  C2  UNL     1      92.942 118.269 126.257  1.00  0.00     0.039 A
HETATM   14  C4  UNL     1      93.834 116.182 126.908  1.00  0.00     0.268 A
HETATM   15  N2  UNL     1      92.664 117.716 125.054  1.00  0.00    -0.195 N
HETATM   16  C21 UNL     1      92.714 119.653 126.798  1.00  0.00     0.059 C
HETATM   17  C1  UNL     1      92.963 116.423 124.779  1.00  0.00     0.679 A
ATOM     18  H2  UNL     1      92.218 118.287 124.336  1.00  0.00     0.184 HD
HETATM   19  N3  UNL     1      93.544 115.655 125.696  1.00  0.00    -0.156 N
ATOM     20  H3  UNL     1      93.769 114.683 125.488  1.00  0.00     0.187 HD
HETATM   21  C20 UNL     1      92.661 119.372 128.289  1.00  0.00     0.025 C
HETATM   22  O1  UNL     1      94.388 115.399 127.739  1.00  0.00    -0.267 OA
BRANCH  17  23
HETATM   23  N1  UNL     1      92.700 115.887 123.633  1.00  0.00    -0.234 N
ATOM     24  H12 UNL     1      91.858 115.315 123.564  1.00  0.00     0.174 HD
ATOM     25  H11 UNL     1      93.302 116.024 122.821  1.00  0.00     0.174 HD
ENDBRANCH  17  23
ENDBRANCH   8  11
ENDBRANCH   1   7
BRANCH   5  26
HETATM   26  C12 UNL     1      89.219 116.733 132.953  1.00  0.00     0.118 C
BRANCH  26  27
HETATM   27  N5  UNL     1      89.622 118.041 133.327  1.00  0.00    -0.417 N
ATOM     28  H5  UNL     1      90.297 118.196 134.076  1.00  0.00     0.153 HD
BRANCH  27  29
HETATM   29  C13 UNL     1      89.046 119.125 132.613  1.00  0.00     0.076 C
HETATM   30  C14 UNL     1      88.755 120.267 133.538  1.00  0.00     0.027 C
HETATM   31  C15 UNL     1      88.072 121.420 132.867  1.00  0.00     0.035 C
HETATM   32  C16 UNL     1      87.951 121.308 131.387  1.00  0.00     0.183 C
HETATM   33  C17 UNL     1      89.012 120.569 130.676  1.00  0.00     0.035 C
HETATM   34  C18 UNL     1      89.894 119.691 131.501  1.00  0.00     0.027 C
BRANCH  32  35
HETATM   35  N6  UNL     1      86.650 120.708 131.058  1.00  0.00    -0.075 N
ATOM     36  H63 UNL     1      86.713 120.037 130.293  1.00  0.00     0.274 HD
ATOM     37  H62 UNL     1      86.322 120.068 131.782  1.00  0.00     0.274 HD
ATOM     38  H61 UNL     1      85.981 121.454 130.867  1.00  0.00     0.274 HD
ENDBRANCH  32  35
ENDBRANCH  27  29
ENDBRANCH  26  27
ENDBRANCH   5  26
TORSDOF 7
ENDMDL