MODEL 5
REMARK VINA RESULT: -7.297524091      2.042      3.155
REMARK  18 active torsions:
REMARK  status: ('A' for Active; 'I' for Inactive)
REMARK    1  A    between atoms: N1_2  and  C2_3
REMARK    2  A    between atoms: N1_2  and  C23_43
REMARK    3  A    between atoms: C2_3  and  C3_4
REMARK    4  A    between atoms: C3_4  and  O1_5
REMARK    5  A    between atoms: O1_5  and  C4_6
REMARK    6  A    between atoms: C4_6  and  C5_7
REMARK    7  A    between atoms: C5_7  and  N2_8
REMARK    8  A    between atoms: N2_8  and  C6_9
REMARK    9  A    between atoms: N2_8  and  C19_35
REMARK   10  A    between atoms: C6_9  and  C7_10
REMARK   11  A    between atoms: C7_10  and  N3_11
REMARK   12  A    between atoms: C13_21  and  N6_22
REMARK   13  A    between atoms: C23_43  and  O3_44
REMARK   14  A    between atoms: C23_43  and  C24_46
REMARK   15  A    between atoms: C24_46  and  O4_47
REMARK   16  A    between atoms: O4_47  and  C25_48
REMARK   17  A    between atoms: C25_48  and  C26_49
REMARK   18  A    between atoms: C26_49  and  O5_50
ROOT
HETATM    1  N3  UNL     1       7.858   3.657  76.537  1.00  0.00    -0.375 N
ATOM      2  H3  UNL     1       8.208   4.397  75.929  1.00  0.00     0.161 HD
HETATM    3  C8  UNL     1       8.216   2.450  76.310  1.00  0.00     0.104 A
HETATM    4  C9  UNL     1       9.074   2.296  75.212  1.00  0.00     0.073 A
HETATM    5  C10 UNL     1       9.487   1.023  74.912  1.00  0.00     0.079 A
HETATM    6  C11 UNL     1      10.368   0.748  73.810  1.00  0.00     0.102 C
HETATM    7  N4  UNL     1      11.093   0.537  72.931  1.00  0.00    -0.191 NA
HETATM    8  C12 UNL     1       9.058  -0.052  75.683  1.00  0.00     0.115 A
HETATM    9  N5  UNL     1       9.447  -1.313  75.410  1.00  0.00    -0.185 N
ATOM     10  H5  UNL     1      10.072  -1.463  74.619  1.00  0.00     0.184 HD
HETATM   11  C13 UNL     1       9.057  -2.384  76.122  1.00  0.00     0.695 A
HETATM   12  N7  UNL     1       8.246  -2.169  77.148  1.00  0.00    -0.130 N
ATOM     13  H7  UNL     1       7.935  -2.966  77.704  1.00  0.00     0.205 HD
HETATM   14  N8  UNL     1       7.818  -0.942  77.481  1.00  0.00    -0.269 N
ATOM     15  H8  UNL     1       7.194  -0.819  78.279  1.00  0.00     0.189 HD
HETATM   16  C18 UNL     1       8.213   0.132  76.760  1.00  0.00     0.151 A
HETATM   17  N9  UNL     1       7.817   1.394  77.037  1.00  0.00    -0.326 N
ATOM     18  H9  UNL     1       7.193   1.551  77.828  1.00  0.00     0.169 HD
ENDROOT
BRANCH   1  19
HETATM   19  C7  UNL     1       6.985   4.005  77.612  1.00  0.00     0.141 C
BRANCH  19  20
HETATM   20  C6  UNL     1       7.198   5.480  77.985  1.00  0.00     0.143 C
BRANCH  20  21
HETATM   21  N2  UNL     1       5.946   6.176  78.098  1.00  0.00    -0.375 N
BRANCH  21  22
HETATM   22  C5  UNL     1       5.518   6.657  79.417  1.00  0.00     0.149 C
BRANCH  22  23
HETATM   23  C4  UNL     1       5.360   5.517  80.372  1.00  0.00     0.187 C
BRANCH  23  24
HETATM   24  O1  UNL     1       4.055   5.134  80.502  1.00  0.00    -0.388 OA
BRANCH  24  25
HETATM   25  C3  UNL     1       3.143   6.161  80.696  1.00  0.00     0.187 C
BRANCH  25  26
HETATM   26  C2  UNL     1       2.470   5.932  82.033  1.00  0.00     0.150 C
BRANCH  26  27
HETATM   27  N1  UNL     1       1.053   5.872  81.946  1.00  0.00    -0.366 N
HETATM   28  C1  UNL     1       0.264   7.039  82.462  1.00  0.00     0.151 C
BRANCH  27  29
HETATM   29  C23 UNL     1       0.324   4.828  81.425  1.00  0.00     0.137 C
BRANCH  29  30
HETATM   30  O3  UNL     1      -0.173   4.990  80.232  1.00  0.00    -0.348 OA
ATOM     31  H3  UNL     1      -0.082   4.266  79.625  1.00  0.00     0.219 HD
ENDBRANCH  29  30
BRANCH  29  32
HETATM   32  C24 UNL     1       0.036   3.549  82.049  1.00  0.00     0.251 C
BRANCH  32  33
HETATM   33  O4  UNL     1       0.551   3.273  83.278  1.00  0.00    -0.381 OA
BRANCH  33  34
HETATM   34  C25 UNL     1      -0.425   3.503  84.265  1.00  0.00     0.194 C
BRANCH  34  35
HETATM   35  C26 UNL     1       0.123   3.352  85.641  1.00  0.00     0.190 C
BRANCH  35  36
HETATM   36  O5  UNL     1       0.828   2.190  85.815  1.00  0.00    -0.399 OA
ATOM     37  H5  UNL     1       0.702   1.801  86.672  1.00  0.00     0.209 HD
ENDBRANCH  35  36
ENDBRANCH  34  35
ENDBRANCH  33  34
ENDBRANCH  32  33
ENDBRANCH  29  32
ENDBRANCH  27  29
ENDBRANCH  26  27
ENDBRANCH  25  26
ENDBRANCH  24  25
ENDBRANCH  23  24
ENDBRANCH  22  23
ENDBRANCH  21  22
BRANCH  21  38
HETATM   38  C19 UNL     1       5.136   6.395  76.969  1.00  0.00     0.061 A
HETATM   39  C20 UNL     1       5.778   6.801  75.792  1.00  0.00     0.119 A
HETATM   40  N10 UNL     1       5.032   7.011  74.719  1.00  0.00    -0.360 N
HETATM   41  C21 UNL     1       3.684   6.843  74.745  1.00  0.00     0.180 A
ATOM     42  H10 UNL     1       5.479   7.308  73.852  1.00  0.00     0.166 HD
HETATM   43  N11 UNL     1       3.068   6.447  75.896  1.00  0.00    -0.360 N
HETATM   44  C22 UNL     1       3.774   6.220  77.008  1.00  0.00     0.119 A
ATOM     45  H11 UNL     1       2.056   6.322  75.908  1.00  0.00     0.166 HD
ENDBRANCH  21  38
ENDBRANCH  20  21
ENDBRANCH  19  20
ENDBRANCH   1  19
BRANCH  11  46
HETATM   46  N6  UNL     1       9.534  -3.673  75.723  1.00  0.00    -0.212 N
HETATM   47  C14 UNL     1      10.202  -3.853  74.447  1.00  0.00     0.167 C
HETATM   48  C15 UNL     1      11.478  -4.603  74.682  1.00  0.00     0.188 C
HETATM   49  O2  UNL     1      11.224  -5.786  75.376  1.00  0.00    -0.388 OA
HETATM   50  C16 UNL     1      10.700  -5.558  76.630  1.00  0.00     0.188 C
HETATM   51  C17 UNL     1       9.375  -4.846  76.560  1.00  0.00     0.167 C
ENDBRANCH  11  46
TORSDOF 18
ENDMDL