MODEL 4
REMARK VINA RESULT: -6.638041450      2.241      8.758
REMARK  16 active torsions:
REMARK  status: ('A' for Active; 'I' for Inactive)
REMARK    1  A    between atoms: C2_2  and  N1_3
REMARK    2  A    between atoms: N1_3  and  C3_4
REMARK    3  A    between atoms: N1_3  and  C9_12
REMARK    4  A    between atoms: C3_4  and  C4_5
REMARK    5  A    between atoms: C4_5  and  N2_6
REMARK    6  A    between atoms: C10_15  and  N4_16
REMARK       I    between atoms: N5_19  and  C13_20
REMARK    7  A    between atoms: C13_20  and  C14_22
REMARK    8  A    between atoms: C14_22  and  N6_23
REMARK    9  A    between atoms: N6_23  and  C15_24
REMARK   10  A    between atoms: N6_23  and  C17_28
REMARK   11  A    between atoms: C15_24  and  C16_25
REMARK   12  A    between atoms: C16_25  and  O3_26
REMARK   13  A    between atoms: C17_28  and  C18_29
REMARK   14  A    between atoms: C18_29  and  O4_30
REMARK   15  A    between atoms: C20_33  and  N7_34
REMARK   16  A    between atoms: C25_45  and  O5_46
ROOT
HETATM    1  N4  UNL     1       5.907   6.119  78.994  1.00  0.00    -0.191 N
HETATM    2  C11 UNL     1       5.468   6.420  77.645  1.00  0.00     0.163 C
HETATM    3  C12 UNL     1       6.065   5.515  76.627  1.00  0.00     0.146 C
HETATM    4  N5  UNL     1       7.415   5.085  76.929  1.00  0.00    -0.345 N
HETATM    5  C13 UNL     1       8.047   4.090  76.107  1.00  0.00     0.238 C
HETATM    6  O2  UNL     1       7.364   3.653  75.137  1.00  0.00    -0.272 OA
HETATM    7  C19 UNL     1       8.104   5.671  78.029  1.00  0.00     0.175 C
HETATM    8  C20 UNL     1       7.287   5.821  79.286  1.00  0.00     0.244 C
ENDROOT
BRANCH   1   9
HETATM    9  C10 UNL     1       4.946   6.094  80.041  1.00  0.00     0.683 A
HETATM   10  N3  UNL     1       4.259   7.164  80.473  1.00  0.00    -0.174 N
HETATM   11  C9  UNL     1       3.357   7.113  81.471  1.00  0.00     0.154 A
ATOM     12  H3  UNL     1       4.430   8.063  80.021  1.00  0.00     0.186 HD
HETATM   13  C25 UNL     1       3.093   5.917  82.114  1.00  0.00     0.128 A
HETATM   14  C24 UNL     1       3.794   4.809  81.678  1.00  0.00     0.146 A
HETATM   15  N10 UNL     1       4.684   4.915  80.677  1.00  0.00    -0.199 N
ATOM     16  H10 UNL     1       5.186   4.078  80.380  1.00  0.00     0.183 HD
BRANCH  11  17
HETATM   17  N1  UNL     1       2.612   8.270  81.898  1.00  0.00    -0.363 N
BRANCH  17  18
HETATM   18  C2  UNL     1       3.212   9.034  82.957  1.00  0.00     0.120 C
HETATM   19  C1  UNL     1       2.302   9.269  84.119  1.00  0.00     0.026 C
ENDBRANCH  17  18
BRANCH  17  20
HETATM   20  C3  UNL     1       1.379   8.562  81.257  1.00  0.00     0.154 C
BRANCH  20  21
HETATM   21  C4  UNL     1       1.430   8.815  79.793  1.00  0.00     0.292 C
BRANCH  21  22
HETATM   22  N2  UNL     1       0.566   8.073  78.952  1.00  0.00     0.094 N
HETATM   23  C5  UNL     1       1.211   7.828  77.696  1.00  0.00     0.298 C
HETATM   24  C6  UNL     1       1.846   6.487  77.546  1.00  0.00     0.198 C
HETATM   25  O1  UNL     1       0.940   5.476  77.909  1.00  0.00    -0.388 OA
HETATM   26  C7  UNL     1       0.826   5.629  79.314  1.00  0.00     0.198 C
HETATM   27  C8  UNL     1       0.047   6.865  79.550  1.00  0.00     0.298 C
ENDBRANCH  21  22
ENDBRANCH  20  21
ENDBRANCH  17  20
ENDBRANCH  11  17
BRANCH  13  28
HETATM   28  O5  UNL     1       2.169   5.853  83.140  1.00  0.00    -0.351 OA
HETATM   29  C26 UNL     1       0.881   5.314  82.995  1.00  0.00     0.210 C
ENDBRANCH  13  28
ENDBRANCH   1   9
BRANCH   8  30
HETATM   30  N7  UNL     1       7.886   6.823  80.156  1.00  0.00    -0.260 N
HETATM   31  C21 UNL     1       8.283   8.038  79.754  1.00  0.00     0.204 A
HETATM   32  N8  UNL     1       8.768   8.654  80.844  1.00  0.00    -0.340 N
HETATM   33  C22 UNL     1       8.682   7.849  81.916  1.00  0.00     0.092 A
ATOM     34  H8  UNL     1       9.148   9.600  80.856  1.00  0.00     0.168 HD
HETATM   35  C23 UNL     1       9.109   8.166  83.303  1.00  0.00     0.090 C
HETATM   36  N9  UNL     1       8.123   6.707  81.446  1.00  0.00    -0.284 N
ATOM     37  H9  UNL     1       7.917   5.882  82.008  1.00  0.00     0.188 HD
ENDBRANCH   8  30
BRANCH   5  38
HETATM   38  C14 UNL     1       9.400   3.574  76.330  1.00  0.00     0.230 C
BRANCH  38  39
HETATM   39  N6  UNL     1       9.473   2.181  76.569  1.00  0.00    -0.361 N
BRANCH  39  40
HETATM   40  C15 UNL     1      10.233   1.362  75.754  1.00  0.00     0.089 C
BRANCH  40  41
HETATM   41  C16 UNL     1       9.969   1.332  74.289  1.00  0.00     0.208 C
BRANCH  41  42
HETATM   42  O3  UNL     1       8.668   1.096  73.907  1.00  0.00    -0.396 OA
ATOM     43  H3  UNL     1       8.294   1.705  73.282  1.00  0.00     0.209 HD
ENDBRANCH  41  42
ENDBRANCH  40  41
ENDBRANCH  39  40
BRANCH  39  44
HETATM   44  C17 UNL     1       8.649   1.746  77.599  1.00  0.00     0.089 C
BRANCH  44  45
HETATM   45  C18 UNL     1       7.710   0.594  77.261  1.00  0.00     0.208 C
BRANCH  45  46
HETATM   46  O4  UNL     1       6.891   0.844  76.191  1.00  0.00    -0.396 OA
ATOM     47  H4  UNL     1       5.999   0.541  76.312  1.00  0.00     0.209 HD
ENDBRANCH  45  46
ENDBRANCH  44  45
ENDBRANCH  39  44
ENDBRANCH  38  39
ENDBRANCH   5  38
TORSDOF 16
ENDMDL