MODEL 5
REMARK VINA RESULT: -7.239433612      3.254      9.931
REMARK  18 active torsions:
REMARK  status: ('A' for Active; 'I' for Inactive)
REMARK    1  A    between atoms: C2_2  and  C3_3
REMARK    2  A    between atoms: C3_3  and  N1_4
REMARK       I    between atoms: N1_4  and  C4_5
REMARK    3  A    between atoms: N1_4  and  C23_45
REMARK    4  A    between atoms: C4_5  and  C5_7
REMARK    5  A    between atoms: C5_7  and  N2_8
REMARK    6  A    between atoms: C6_13  and  C7_14
REMARK    7  A    between atoms: C7_14  and  C8_15
REMARK    8  A    between atoms: C7_14  and  N7_28
REMARK    9  A    between atoms: C8_15  and  O2_16
REMARK   10  A    between atoms: C8_15  and  N5_18
REMARK   11  A    between atoms: N6_21  and  C11_22
REMARK   12  A    between atoms: C11_22  and  C12_23
REMARK   13  A    between atoms: C12_23  and  O3_24
REMARK   14  A    between atoms: N9_32  and  C16_33
REMARK   15  A    between atoms: C16_33  and  C17_34
REMARK   16  A    between atoms: C23_45  and  C24_46
REMARK   17  A    between atoms: C23_45  and  C26_48
REMARK   18  A    between atoms: C26_48  and  O5_49
ROOT
HETATM    1  C7  UNL     1       3.206   6.821  81.076  1.00  0.00     0.257 C
ENDROOT
BRANCH   1   2
HETATM    2  C6  UNL     1       4.644   6.827  80.807  1.00  0.00     0.146 A
HETATM    3  N4  UNL     1       5.637   6.958  81.698  1.00  0.00    -0.270 N
HETATM    4  N3  UNL     1       6.767   6.908  81.039  1.00  0.00    -0.224 N
ATOM      5  H4  UNL     1       5.532   7.074  82.707  1.00  0.00     0.190 HD
HETATM    6  N2  UNL     1       6.550   6.747  79.729  1.00  0.00    -0.209 N
ATOM      7  H3  UNL     1       7.690   6.983  81.467  1.00  0.00     0.210 HD
HETATM    8  N11 UNL     1       5.244   6.699  79.596  1.00  0.00    -0.267 N
ATOM      9  H11 UNL     1       4.752   6.581  78.711  1.00  0.00     0.190 HD
BRANCH   6  10
HETATM   10  C5  UNL     1       7.601   6.617  78.721  1.00  0.00     0.274 C
BRANCH  10  11
HETATM   11  C4  UNL     1       7.668   5.213  78.215  1.00  0.00     0.245 C
HETATM   12  N1  UNL     1       8.631   4.686  77.355  1.00  0.00    -0.315 N
HETATM   13  O1  UNL     1       6.726   4.497  78.648  1.00  0.00    -0.271 OA
BRANCH  12  14
HETATM   14  C3  UNL     1       9.685   5.644  76.941  1.00  0.00     0.158 C
BRANCH  14  15
HETATM   15  C2  UNL     1      10.999   5.087  76.753  1.00  0.00    -0.017 C
HETATM   16  C1  UNL     1      11.706   5.142  75.654  1.00  0.00     0.008 C
ENDBRANCH  14  15
ENDBRANCH  12  14
BRANCH  12  17
HETATM   17  C23 UNL     1       8.638   3.379  76.827  1.00  0.00     0.034 C
BRANCH  17  18
HETATM   18  C24 UNL     1       8.672   2.169  77.652  1.00  0.00    -0.004 C
HETATM   19  C25 UNL     1       7.878   0.975  77.352  1.00  0.00     0.038 C
ENDBRANCH  17  18
BRANCH  17  20
HETATM   20  C26 UNL     1       7.726   3.213  75.589  1.00  0.00     0.220 C
BRANCH  20  21
HETATM   21  O5  UNL     1       6.487   3.755  75.736  1.00  0.00    -0.395 OA
ATOM     22  H5  UNL     1       5.777   3.133  75.638  1.00  0.00     0.209 HD
ENDBRANCH  20  21
ENDBRANCH  17  20
ENDBRANCH  12  17
ENDBRANCH  10  11
ENDBRANCH   6  10
ENDBRANCH   1   2
BRANCH   1  23
HETATM   23  C8  UNL     1       2.682   5.528  81.564  1.00  0.00     0.147 C
BRANCH  23  24
HETATM   24  O2  UNL     1       3.555   4.558  81.455  1.00  0.00    -0.347 OA
ATOM     25  H2  UNL     1       3.230   3.733  81.798  1.00  0.00     0.219 HD
ENDBRANCH  23  24
BRANCH  23  26
HETATM   26  N5  UNL     1       1.430   5.237  82.101  1.00  0.00    -0.360 N
HETATM   27  C9  UNL     1       0.422   4.427  81.526  1.00  0.00     0.155 C
HETATM   28  C10 UNL     1      -0.199   3.541  82.626  1.00  0.00     0.292 C
HETATM   29  N6  UNL     1      -0.844   4.379  83.626  1.00  0.00     0.093 N
HETATM   30  C13 UNL     1      -0.392   5.733  83.580  1.00  0.00     0.292 C
HETATM   31  C14 UNL     1       1.105   5.829  83.412  1.00  0.00     0.155 C
BRANCH  29  32
HETATM   32  C11 UNL     1      -0.654   3.771  84.918  1.00  0.00     0.298 C
BRANCH  32  33
HETATM   33  C12 UNL     1      -0.192   2.351  84.892  1.00  0.00     0.194 C
BRANCH  33  34
HETATM   34  O3  UNL     1       0.870   2.240  85.810  1.00  0.00    -0.399 OA
ATOM     35  H3  UNL     1       1.536   1.696  85.405  1.00  0.00     0.209 HD
ENDBRANCH  33  34
ENDBRANCH  32  33
ENDBRANCH  29  32
ENDBRANCH  23  26
ENDBRANCH   1  23
BRANCH   1  36
HETATM   36  N7  UNL     1       2.367   7.252  79.956  1.00  0.00    -0.221 N
HETATM   37  N8  UNL     1       1.948   6.595  78.904  1.00  0.00    -0.289 N
HETATM   38  C15 UNL     1       1.179   7.361  78.109  1.00  0.00     0.204 A
ATOM     39  H8  UNL     1       2.177   5.621  78.711  1.00  0.00     0.188 HD
HETATM   40  N9  UNL     1       1.112   8.565  78.695  1.00  0.00    -0.289 N
HETATM   41  C22 UNL     1       1.830   8.492  79.809  1.00  0.00     0.345 A
HETATM   42  O4  UNL     1       1.974   9.450  80.602  1.00  0.00    -0.245 OA
BRANCH  40  43
HETATM   43  C16 UNL     1       0.355   9.654  78.107  1.00  0.00     0.173 C
BRANCH  43  44
HETATM   44  C17 UNL     1      -1.048   9.318  77.880  1.00  0.00    -0.037 A
HETATM   45  C18 UNL     1      -1.565   9.259  76.617  1.00  0.00     0.026 A
HETATM   46  C19 UNL     1      -2.880   8.945  76.342  1.00  0.00     0.088 A
HETATM   47  N10 UNL     1      -3.685   8.687  77.370  1.00  0.00    -0.375 N
HETATM   48  C20 UNL     1      -3.201   8.738  78.633  1.00  0.00     0.088 A
ATOM     49  H10 UNL     1      -4.663   8.451  77.206  1.00  0.00     0.164 HD
HETATM   50  C21 UNL     1      -1.896   9.048  78.943  1.00  0.00     0.026 A
ENDBRANCH  43  44
ENDBRANCH  40  43
ENDBRANCH   1  36
TORSDOF 18
ENDMDL