MODEL 2
REMARK VINA RESULT: -6.869096892      3.007      6.722
REMARK  17 active torsions:
REMARK  status: ('A' for Active; 'I' for Inactive)
REMARK    1  A    between atoms: N1_2  and  C2_3
REMARK    2  A    between atoms: N1_2  and  C21_41
REMARK    3  A    between atoms: C2_3  and  C3_4
REMARK    4  A    between atoms: C3_4  and  O1_5
REMARK    5  A    between atoms: O1_5  and  N2_6
REMARK    6  A    between atoms: N2_6  and  C4_8
REMARK    7  A    between atoms: C4_8  and  N3_9
REMARK    8  A    between atoms: C7_12  and  N4_13
REMARK    9  A    between atoms: N5_16  and  C10_17
REMARK   10  A    between atoms: C13_23  and  N7_24
REMARK   11  A    between atoms: C16_27  and  C17_28
REMARK   12  A    between atoms: C17_28  and  N8_29
REMARK   13  A    between atoms: C20_36  and  N11_37
REMARK   14  A    between atoms: C21_41  and  C22_42
REMARK   15  A    between atoms: C22_42  and  O3_43
REMARK   16  A    between atoms: C22_42  and  C23_45
REMARK   17  A    between atoms: C23_45  and  N12_46
ROOT
HETATM    1  N3  UNL     1       1.981   6.558  80.449  1.00  0.00    -0.152 N
HETATM    2  C5  UNL     1       2.218   6.908  79.185  1.00  0.00     0.119 A
HETATM    3  C6  UNL     1       1.264   7.666  78.506  1.00  0.00     0.067 A
HETATM    4  C7  UNL     1       0.114   8.025  79.179  1.00  0.00     0.120 A
HETATM    5  N6  UNL     1      -0.044   7.628  80.437  1.00  0.00    -0.176 N
ATOM      6  H6  UNL     1      -0.900   7.893  80.923  1.00  0.00     0.186 HD
HETATM    7  C13 UNL     1       0.860   6.900  81.101  1.00  0.00     0.690 A
ENDROOT
BRANCH   1   8
HETATM    8  C4  UNL     1       2.904   5.742  81.148  1.00  0.00     0.229 C
BRANCH   8   9
HETATM    9  N2  UNL     1       3.993   5.423  81.004  1.00  0.00    -0.261 N
ATOM     10  H2  UNL     1       4.461   5.618  81.890  1.00  0.00     0.195 HD
BRANCH   9  11
HETATM   11  O1  UNL     1       4.933   4.908  80.199  1.00  0.00    -0.278 OA
BRANCH  11  12
HETATM   12  C3  UNL     1       6.121   5.815  80.153  1.00  0.00     0.231 C
BRANCH  12  13
HETATM   13  C2  UNL     1       5.950   6.379  78.760  1.00  0.00     0.300 C
BRANCH  13  14
HETATM   14  N1  UNL     1       6.105   5.331  77.783  1.00  0.00     0.088 N
HETATM   15  C1  UNL     1       5.110   5.565  76.733  1.00  0.00     0.310 C
BRANCH  14  16
HETATM   16  C21 UNL     1       7.445   5.164  77.348  1.00  0.00     0.305 C
BRANCH  16  17
HETATM   17  C22 UNL     1       7.777   3.689  77.662  1.00  0.00     0.166 C
BRANCH  17  18
HETATM   18  O3  UNL     1       9.126   3.595  78.009  1.00  0.00    -0.392 OA
ATOM     19  H3  UNL     1       9.597   4.313  77.605  1.00  0.00     0.210 HD
ENDBRANCH  17  18
BRANCH  17  20
HETATM   20  C23 UNL     1       7.508   2.834  76.444  1.00  0.00     0.183 C
BRANCH  20  21
HETATM   21  N12 UNL     1       7.894   1.460  76.660  1.00  0.00    -0.285 N
HETATM   22  C24 UNL     1       8.317   0.558  75.744  1.00  0.00     0.130 A
HETATM   23  C25 UNL     1       8.549  -0.668  76.432  1.00  0.00     0.127 A
HETATM   24  N13 UNL     1       8.253  -0.411  77.697  1.00  0.00    -0.296 N
HETATM   25  N14 UNL     1       7.873   0.831  77.819  1.00  0.00    -0.241 N
ATOM     26  H13 UNL     1       8.314  -1.083  78.461  1.00  0.00     0.187 HD
ATOM     27  H14 UNL     1       7.595   1.261  78.702  1.00  0.00     0.208 HD
ENDBRANCH  20  21
ENDBRANCH  17  20
ENDBRANCH  16  17
ENDBRANCH  14  16
ENDBRANCH  13  14
ENDBRANCH  12  13
ENDBRANCH  11  12
ENDBRANCH   9  11
ENDBRANCH   8   9
ENDBRANCH   1   8
BRANCH   7  28
HETATM   28  N7  UNL     1       0.569   6.478  82.412  1.00  0.00    -0.187 N
HETATM   29  C14 UNL     1       0.164   7.511  83.384  1.00  0.00     0.144 C
HETATM   30  C15 UNL     1      -0.053   6.780  84.671  1.00  0.00     0.030 C
HETATM   31  C16 UNL     1      -0.221   5.338  84.345  1.00  0.00     0.058 C
HETATM   32  C20 UNL     1       0.595   5.222  83.013  1.00  0.00     0.305 C
BRANCH  31  33
HETATM   33  C17 UNL     1       0.446   4.391  85.293  1.00  0.00     0.158 C
BRANCH  33  34
HETATM   34  N8  UNL     1      -0.456   3.421  85.826  1.00  0.00    -0.287 N
HETATM   35  C18 UNL     1      -1.793   3.776  86.067  1.00  0.00     0.130 A
HETATM   36  C19 UNL     1      -2.377   2.636  86.539  1.00  0.00     0.127 A
HETATM   37  N9  UNL     1      -1.451   1.631  86.584  1.00  0.00    -0.296 N
HETATM   38  N10 UNL     1      -0.317   2.145  86.151  1.00  0.00    -0.241 N
ATOM     39  H9  UNL     1      -1.607   0.671  86.892  1.00  0.00     0.187 HD
ATOM     40  H10 UNL     1       0.557   1.625  86.076  1.00  0.00     0.208 HD
ENDBRANCH  33  34
ENDBRANCH  31  33
BRANCH  32  41
HETATM   41  N11 UNL     1       0.065   4.076  82.351  1.00  0.00    -0.057 N
ATOM     42 3H11 UNL     1      -0.760   3.768  82.865  1.00  0.00     0.276 HD
ATOM     43 2H11 UNL     1      -0.340   4.382  81.466  1.00  0.00     0.276 HD
ATOM     44 1H11 UNL     1       0.645   3.257  82.167  1.00  0.00     0.276 HD
ENDBRANCH  32  41
ENDBRANCH   7  28
BRANCH   4  45
HETATM   45  N4  UNL     1      -0.970   8.759  78.535  1.00  0.00    -0.364 N
HETATM   46  C8  UNL     1      -0.697   9.455  77.335  1.00  0.00     0.144 C
HETATM   47  C9  UNL     1      -1.908   9.212  76.400  1.00  0.00     0.145 C
HETATM   48  N5  UNL     1      -3.016   9.703  77.183  1.00  0.00    -0.356 N
HETATM   49  C11 UNL     1      -3.412   8.929  78.306  1.00  0.00     0.145 C
HETATM   50  C12 UNL     1      -2.233   8.662  79.223  1.00  0.00     0.144 C
BRANCH  48  51
HETATM   51  C10 UNL     1      -3.632  10.924  76.878  1.00  0.00     0.350 C
HETATM   52  O2  UNL     1      -3.292  12.052  77.364  1.00  0.00    -0.284 OA
ENDBRANCH  48  51
ENDBRANCH   4  45
TORSDOF 17
ENDMDL