MODEL 1
REMARK VINA RESULT: -6.701548856      0.000      0.000
REMARK  17 active torsions:
REMARK  status: ('A' for Active; 'I' for Inactive)
REMARK    1  A    between atoms: C2_2  and  N1_3
REMARK    2  A    between atoms: N1_3  and  C3_4
REMARK    3  A    between atoms: N1_3  and  C15_26
REMARK    4  A    between atoms: C3_4  and  C4_5
REMARK    5  A    between atoms: C5_6  and  C6_7
REMARK    6  A    between atoms: C6_7  and  N2_8
REMARK       I    between atoms: N2_8  and  C7_10
REMARK    7  A    between atoms: C7_10  and  C8_12
REMARK    8  A    between atoms: C8_12  and  N3_13
REMARK    9  A    between atoms: C10_17  and  N5_18
REMARK   10  A    between atoms: C15_26  and  C16_27
REMARK   11  A    between atoms: C16_27  and  O3_28
REMARK   12  A    between atoms: C16_27  and  C17_30
REMARK   13  A    between atoms: C17_30  and  N7_31
REMARK   14  A    between atoms: N8_33  and  C19_34
REMARK   15  A    between atoms: C19_34  and  C20_35
REMARK   16  A    between atoms: C20_35  and  O4_36
REMARK   17  A    between atoms: O4_36  and  C21_37
ROOT
HETATM    1  N1  UNL     1      -0.978   5.134  84.610  1.00  0.00     0.101 N
ENDROOT
BRANCH   1   2
HETATM    2  C2  UNL     1      -1.780   5.454  85.764  1.00  0.00     0.269 C
HETATM    3  C1  UNL     1      -1.699   4.322  86.751  1.00  0.00     0.037 C
ENDBRANCH   1   2
BRANCH   1   4
HETATM    4  C3  UNL     1       0.385   5.594  84.766  1.00  0.00     0.365 C
BRANCH   4   5
HETATM    5  C4  UNL     1       0.472   6.984  84.321  1.00  0.00    -0.075 C
HETATM    6  C5  UNL     1       0.554   8.136  83.975  1.00  0.00    -0.085 C
BRANCH   6   7
HETATM    7  C6  UNL     1       0.672   9.561  83.572  1.00  0.00     0.217 C
BRANCH   7   8
HETATM    8  N2  UNL     1       1.295   9.656  82.267  1.00  0.00    -0.349 N
HETATM    9  C7  UNL     1       2.701   9.471  82.165  1.00  0.00     0.239 C
HETATM   10  O1  UNL     1       3.424   9.229  83.161  1.00  0.00    -0.272 OA
ATOM     11  H2  UNL     1       0.735   9.853  81.437  1.00  0.00     0.163 HD
BRANCH   9  12
HETATM   12  C8  UNL     1       3.395   9.558  80.832  1.00  0.00     0.272 C
BRANCH  12  13
HETATM   13  N3  UNL     1       3.855   8.214  80.453  1.00  0.00    -0.224 N
HETATM   14  N4  UNL     1       3.595   7.076  81.072  1.00  0.00    -0.291 N
HETATM   15  C9  UNL     1       4.182   6.068  80.444  1.00  0.00     0.158 A
ATOM     16  H4  UNL     1       3.025   6.987  81.913  1.00  0.00     0.188 HD
HETATM   17  C10 UNL     1       4.858   6.590  79.359  1.00  0.00     0.136 A
HETATM   18  N6  UNL     1       4.621   7.913  79.414  1.00  0.00    -0.267 N
ATOM     19  H6  UNL     1       4.983   8.594  78.746  1.00  0.00     0.190 HD
BRANCH  17  20
HETATM   20  N5  UNL     1       5.635   5.924  78.387  1.00  0.00    -0.361 N
HETATM   21  C11 UNL     1       6.832   5.239  78.796  1.00  0.00     0.150 C
HETATM   22  C12 UNL     1       7.303   4.206  77.813  1.00  0.00     0.187 C
HETATM   23  O2  UNL     1       7.198   4.673  76.521  1.00  0.00    -0.388 OA
HETATM   24  C13 UNL     1       5.872   4.896  76.159  1.00  0.00     0.187 C
HETATM   25  C14 UNL     1       5.219   5.939  77.010  1.00  0.00     0.150 C
ENDBRANCH  17  20
ENDBRANCH  12  13
ENDBRANCH   9  12
ENDBRANCH   7   8
ENDBRANCH   6   7
ENDBRANCH   4   5
ENDBRANCH   1   4
BRANCH   1  26
HETATM   26  C15 UNL     1      -1.129   3.784  84.200  1.00  0.00     0.306 C
BRANCH  26  27
HETATM   27  C16 UNL     1       0.119   3.085  83.799  1.00  0.00     0.166 C
BRANCH  27  28
HETATM   28  O3  UNL     1       0.386   2.091  84.772  1.00  0.00    -0.392 OA
ATOM     29  H3  UNL     1       1.173   1.631  84.506  1.00  0.00     0.210 HD
ENDBRANCH  27  28
BRANCH  27  30
HETATM   30  C17 UNL     1       0.026   2.477  82.440  1.00  0.00     0.180 C
BRANCH  30  31
HETATM   31  N7  UNL     1      -0.096   3.430  81.357  1.00  0.00    -0.270 N
HETATM   32  C18 UNL     1       0.531   4.587  81.116  1.00  0.00     0.215 A
HETATM   33  N8  UNL     1       0.094   5.146  79.982  1.00  0.00    -0.270 N
HETATM   34  N10 UNL     1      -0.824   4.319  79.507  1.00  0.00    -0.005 NA
HETATM   35  N11 UNL     1      -0.946   3.286  80.322  1.00  0.00    -0.005 NA
BRANCH  33  36
HETATM   36  C19 UNL     1       0.519   6.408  79.361  1.00  0.00     0.173 C
BRANCH  36  37
HETATM   37  C20 UNL     1      -0.036   7.506  80.265  1.00  0.00     0.197 C
BRANCH  37  38
HETATM   38  O4  UNL     1      -0.284   8.629  79.467  1.00  0.00    -0.348 OA
BRANCH  38  39
HETATM   39  C21 UNL     1      -1.369   8.749  78.615  1.00  0.00     0.089 A
HETATM   40  C22 UNL     1      -2.645   8.673  79.109  1.00  0.00     0.055 A
HETATM   41  C23 UNL     1      -3.686   8.803  78.203  1.00  0.00     0.090 A
HETATM   42  N9  UNL     1      -3.451   8.992  76.901  1.00  0.00    -0.374 N
HETATM   43  C24 UNL     1      -2.204   9.072  76.379  1.00  0.00     0.109 A
ATOM     44  H9  UNL     1      -4.248   9.081  76.271  1.00  0.00     0.164 HD
HETATM   45  C25 UNL     1      -1.145   8.943  77.282  1.00  0.00     0.060 A
HETATM   46  S1  UNL     1       0.504   9.039  76.651  1.00  0.00    -0.048 SA
ENDBRANCH  38  39
ENDBRANCH  37  38
ENDBRANCH  36  37
ENDBRANCH  33  36
ENDBRANCH  30  31
ENDBRANCH  27  30
ENDBRANCH  26  27
ENDBRANCH   1  26
TORSDOF 17
ENDMDL