MODEL 4
REMARK VINA RESULT: -7.131495666      0.951      2.335
REMARK  16 active torsions:
REMARK  status: ('A' for Active; 'I' for Inactive)
REMARK    1  A    between atoms: C2_2  and  C3_3
REMARK    2  A    between atoms: C3_3  and  C4_4
REMARK    3  A    between atoms: N1_5  and  O1_6
REMARK    4  A    between atoms: C5_8  and  C6_9
REMARK    5  A    between atoms: C6_9  and  C7_10
REMARK    6  A    between atoms: N3_14  and  C9_16
REMARK    7  A    between atoms: C9_16  and  C10_17
REMARK    8  A    between atoms: N4_18  and  C11_19
REMARK    9  A    between atoms: N4_18  and  C13_21
REMARK   10  A    between atoms: C13_21  and  C14_22
REMARK   11  A    between atoms: C14_22  and  C15_23
REMARK   12  A    between atoms: N9_39  and  C23_40
REMARK   13  A    between atoms: C23_40  and  C24_41
REMARK   14  A    between atoms: C24_41  and  N10_42
REMARK   15  A    between atoms: N10_42  and  C25_43
REMARK   16  A    between atoms: N10_42  and  C27_45
ROOT
HETATM    1  C7  UNL     1       0.406   5.480  81.160  1.00  0.00     0.139 A
HETATM    2  N2  UNL     1       0.069   6.406  82.072  1.00  0.00    -0.175 N
ATOM      3  H2  UNL     1       0.062   7.388  81.797  1.00  0.00     0.186 HD
HETATM    4  C8  UNL     1      -0.258   6.084  83.332  1.00  0.00     0.705 A
HETATM    5  N3  UNL     1      -0.607   6.896  84.232  1.00  0.00    -0.220 N
ATOM      6  H3  UNL     1      -0.821   6.481  85.138  1.00  0.00     0.178 HD
HETATM    7  N5  UNL     1      -0.247   4.763  83.723  1.00  0.00     0.077 N
HETATM    8  C17 UNL     1      -0.575   4.442  84.983  1.00  0.00     0.368 A
HETATM    9  O2  UNL     1      -0.885   5.327  85.817  1.00  0.00    -0.245 OA
HETATM   10  N6  UNL     1      -0.555   3.126  85.310  1.00  0.00    -0.254 N
HETATM   11  C18 UNL     1      -0.910   2.722  86.659  1.00  0.00     0.166 C
HETATM   12  C19 UNL     1      -0.223   2.178  84.421  1.00  0.00     0.346 A
HETATM   13  O3  UNL     1      -0.210   0.949  84.747  1.00  0.00    -0.246 OA
HETATM   14  N7  UNL     1       0.099   2.521  83.176  1.00  0.00    -0.135 N
HETATM   15  C20 UNL     1       0.472   1.559  82.140  1.00  0.00     0.180 C
HETATM   16  C21 UNL     1       0.091   3.840  82.807  1.00  0.00     0.715 A
HETATM   17  N8  UNL     1       0.412   4.172  81.554  1.00  0.00    -0.174 N
ATOM     18  H8  UNL     1       0.663   3.443  80.885  1.00  0.00     0.186 HD
ENDROOT
BRANCH   1  19
HETATM   19  C6  UNL     1       0.731   5.785  79.767  1.00  0.00     0.087 C
BRANCH  19  20
HETATM   20  C5  UNL     1       1.916   6.068  79.307  1.00  0.00     0.136 A
HETATM   21  N1  UNL     1       3.046   6.336  79.966  1.00  0.00    -0.202 N
HETATM   22  C4  UNL     1       4.046   6.526  79.071  1.00  0.00     0.139 A
HETATM   23  N9  UNL     1       3.543   6.374  77.809  1.00  0.00    -0.292 N
HETATM   24  C22 UNL     1       2.236   6.096  77.955  1.00  0.00     0.279 A
HETATM   25  O4  UNL     1       1.449   5.894  76.969  1.00  0.00    -0.265 OA
BRANCH  21  26
HETATM   26  O1  UNL     1       3.149   6.409  81.359  1.00  0.00    -0.281 OA
ATOM     27  H1  UNL     1       2.471   6.192  81.989  1.00  0.00     0.245 HD
ENDBRANCH  21  26
BRANCH  22  28
HETATM   28  C3  UNL     1       5.285   6.824  79.359  1.00  0.00     0.050 C
BRANCH  28  29
HETATM   29  C2  UNL     1       6.346   5.970  79.834  1.00  0.00    -0.006 C
HETATM   30  C1  UNL     1       7.430   6.490  80.441  1.00  0.00     0.011 C
ENDBRANCH  28  29
ENDBRANCH  22  28
BRANCH  23  31
HETATM   31  C23 UNL     1       4.237   6.417  76.538  1.00  0.00     0.178 C
BRANCH  31  32
HETATM   32  C24 UNL     1       4.993   5.186  76.193  1.00  0.00     0.078 C
BRANCH  32  33
HETATM   33  N10 UNL     1       6.386   5.152  76.248  1.00  0.00    -0.392 N
BRANCH  33  34
HETATM   34  C25 UNL     1       7.154   6.157  75.622  1.00  0.00     0.117 C
HETATM   35  C26 UNL     1       7.871   7.070  76.608  1.00  0.00     0.026 C
ENDBRANCH  33  34
BRANCH  33  36
HETATM   36  C27 UNL     1       7.007   3.851  76.251  1.00  0.00     0.117 C
HETATM   37  C28 UNL     1       7.739   3.544  77.527  1.00  0.00     0.026 C
ENDBRANCH  33  36
ENDBRANCH  32  33
ENDBRANCH  31  32
ENDBRANCH  23  31
ENDBRANCH  19  20
ENDBRANCH   1  19
BRANCH   5  38
HETATM   38  C9  UNL     1      -0.747   8.328  84.158  1.00  0.00     0.182 C
BRANCH  38  39
HETATM   39  C10 UNL     1       0.562   9.030  84.401  1.00  0.00     0.083 C
HETATM   40  N4  UNL     1       1.168   9.755  83.416  1.00  0.00    -0.373 N
BRANCH  40  41
HETATM   41  C11 UNL     1       2.212  10.603  83.887  1.00  0.00     0.122 C
HETATM   42  C12 UNL     1       3.200   9.979  84.800  1.00  0.00     0.027 C
ENDBRANCH  40  41
BRANCH  40  43
HETATM   43  C13 UNL     1       0.827   9.863  82.091  1.00  0.00     0.063 C
BRANCH  43  44
HETATM   44  C14 UNL     1      -0.111  10.993  81.760  1.00  0.00     0.044 C
BRANCH  44  45
HETATM   45  C15 UNL     1      -0.969  10.761  80.545  1.00  0.00     0.001 C
HETATM   46  C16 UNL     1      -1.348   9.306  80.358  1.00  0.00     0.005 C
ENDBRANCH  44  45
ENDBRANCH  43  44
ENDBRANCH  40  43
ENDBRANCH  38  39
ENDBRANCH   5  38
TORSDOF 16
ENDMDL