MODEL 2
REMARK VINA RESULT: -6.057535941      2.731      5.627
REMARK  16 active torsions:
REMARK  status: ('A' for Active; 'I' for Inactive)
REMARK    1  A    between atoms: O1_1  and  C1_3
REMARK    2  A    between atoms: C1_3  and  C2_4
REMARK    3  A    between atoms: C2_4  and  O2_5
REMARK    4  A    between atoms: O2_5  and  C3_6
REMARK    5  A    between atoms: C3_6  and  C4_7
REMARK    6  A    between atoms: C4_7  and  O3_8
REMARK    7  A    between atoms: O3_8  and  C5_9
REMARK    8  A    between atoms: C5_9  and  C6_10
REMARK    9  A    between atoms: C6_10  and  O4_11
REMARK   10  A    between atoms: O4_11  and  C7_12
REMARK   11  A    between atoms: C7_12  and  C8_13
REMARK   12  A    between atoms: C8_13  and  N1_14
REMARK   13  A    between atoms: N2_17  and  C11_18
REMARK   14  A    between atoms: C12_21  and  N4_22
REMARK   15  A    between atoms: C17_30  and  N6_31
REMARK   16  A    between atoms: C22_37  and  N7_38
ROOT
HETATM    1  C11 UNL     1       6.676   5.833  79.090  1.00  0.00     0.150 A
HETATM    2  N3  UNL     1       6.807   4.718  78.282  1.00  0.00    -0.174 N
ATOM      3  H3  UNL     1       5.968   4.208  78.005  1.00  0.00     0.186 HD
HETATM    4  C12 UNL     1       7.987   4.287  77.857  1.00  0.00     0.683 A
HETATM    5  N5  UNL     1       9.066   4.975  78.237  1.00  0.00    -0.174 N
ATOM      6  H5  UNL     1       9.978   4.653  77.914  1.00  0.00     0.186 HD
HETATM    7  C17 UNL     1       9.020   6.086  79.034  1.00  0.00     0.150 A
HETATM    8  C22 UNL     1       7.789   6.543  79.484  1.00  0.00     0.121 A
ENDROOT
BRANCH   1   9
HETATM    9  N2  UNL     1       5.384   6.217  79.479  1.00  0.00    -0.359 N
HETATM   10  C10 UNL     1       4.599   7.158  78.750  1.00  0.00     0.168 C
HETATM   11  C9  UNL     1       3.615   7.940  79.564  1.00  0.00     0.078 C
HETATM   12  N1  UNL     1       2.955   7.148  80.522  1.00  0.00    -0.388 N
HETATM   13  C27 UNL     1       3.276   5.776  80.607  1.00  0.00     0.141 C
HETATM   14  C26 UNL     1       4.793   5.631  80.663  1.00  0.00     0.144 C
BRANCH  12  15
HETATM   15  C8  UNL     1       2.762   7.796  81.802  1.00  0.00     0.148 C
BRANCH  15  16
HETATM   16  C7  UNL     1       1.409   7.365  82.331  1.00  0.00     0.187 C
BRANCH  16  17
HETATM   17  O4  UNL     1       1.453   7.091  83.688  1.00  0.00    -0.387 OA
BRANCH  17  18
HETATM   18  C6  UNL     1       0.925   5.897  84.080  1.00  0.00     0.193 C
BRANCH  18  19
HETATM   19  C5  UNL     1      -0.153   5.484  83.066  1.00  0.00     0.193 C
BRANCH  19  20
HETATM   20  O3  UNL     1      -1.322   5.439  83.771  1.00  0.00    -0.387 OA
BRANCH  20  21
HETATM   21  C4  UNL     1      -1.365   5.824  85.056  1.00  0.00     0.193 C
BRANCH  21  22
HETATM   22  C3  UNL     1      -1.942   4.834  86.004  1.00  0.00     0.193 C
BRANCH  22  23
HETATM   23  O2  UNL     1      -0.967   3.966  86.451  1.00  0.00    -0.387 OA
BRANCH  23  24
HETATM   24  C2  UNL     1      -1.198   2.661  86.010  1.00  0.00     0.193 C
BRANCH  24  25
HETATM   25  C1  UNL     1      -0.052   2.283  85.094  1.00  0.00     0.190 C
BRANCH  25  26
HETATM   26  O1  UNL     1      -0.168   0.924  84.782  1.00  0.00    -0.399 OA
ATOM     27  H1  UNL     1       0.692   0.527  84.855  1.00  0.00     0.209 HD
ENDBRANCH  25  26
ENDBRANCH  24  25
ENDBRANCH  23  24
ENDBRANCH  22  23
ENDBRANCH  21  22
ENDBRANCH  20  21
ENDBRANCH  19  20
ENDBRANCH  18  19
ENDBRANCH  17  18
ENDBRANCH  16  17
ENDBRANCH  15  16
ENDBRANCH  12  15
ENDBRANCH   1   9
BRANCH   8  28
HETATM   28  N7  UNL     1       7.695   7.663  80.346  1.00  0.00    -0.350 N
HETATM   29  C23 UNL     1       7.656   7.834  81.769  1.00  0.00     0.152 C
HETATM   30  C24 UNL     1       6.834   9.101  81.971  1.00  0.00     0.254 C
HETATM   31  N8  UNL     1       6.761   9.758  80.697  1.00  0.00    -0.058 N
HETATM   32  C25 UNL     1       7.615   9.034  79.797  1.00  0.00     0.357 C
ATOM     33  H82 UNL     1       5.806   9.853  80.351  1.00  0.00     0.279 HD
ATOM     34  H81 UNL     1       6.983  10.751  80.747  1.00  0.00     0.279 HD
ENDBRANCH   8  28
BRANCH   4  35
HETATM   35  N4  UNL     1       8.103   3.122  77.015  1.00  0.00    -0.213 N
HETATM   36  C13 UNL     1       7.994   1.780  77.570  1.00  0.00     0.167 C
HETATM   37  C14 UNL     1       8.437   0.819  76.457  1.00  0.00     0.188 C
HETATM   38  O5  UNL     1       7.567   1.056  75.402  1.00  0.00    -0.388 OA
HETATM   39  C15 UNL     1       7.961   2.196  74.731  1.00  0.00     0.188 C
HETATM   40  C16 UNL     1       8.333   3.344  75.604  1.00  0.00     0.167 C
ENDBRANCH   4  35
BRANCH   7  41
HETATM   41  N6  UNL     1      10.205   6.759  79.380  1.00  0.00    -0.361 N
HETATM   42  C18 UNL     1      10.971   6.575  80.592  1.00  0.00     0.150 C
HETATM   43  C19 UNL     1      11.232   7.972  81.181  1.00  0.00     0.187 C
HETATM   44  O6  UNL     1      12.088   8.613  80.261  1.00  0.00    -0.388 OA
HETATM   45  C20 UNL     1      11.321   8.934  79.158  1.00  0.00     0.187 C
HETATM   46  C21 UNL     1      10.734   7.737  78.449  1.00  0.00     0.150 C
ENDBRANCH   7  41
TORSDOF 16
ENDMDL