MODEL 1
REMARK VINA RESULT: -7.571063569      0.000      0.000
REMARK  15 active torsions:
REMARK  status: ('A' for Active; 'I' for Inactive)
REMARK    1  A    between atoms: N1_2  and  C2_3
REMARK    2  A    between atoms: N1_2  and  C19_31
REMARK    3  A    between atoms: C2_3  and  C3_4
REMARK    4  A    between atoms: C3_4  and  N2_5
REMARK    5  A    between atoms: C6_10  and  C7_11
REMARK    6  A    between atoms: N4_13  and  C9_14
REMARK    7  A    between atoms: C9_14  and  C10_15
REMARK       I    between atoms: C10_15  and  N5_17
REMARK    8  A    between atoms: N5_17  and  C11_19
REMARK    9  A    between atoms: C11_19  and  C12_20
REMARK   10  A    between atoms: C12_20  and  C13_21
REMARK   11  A    between atoms: C13_21  and  N6_22
REMARK   12  A    between atoms: C21_37  and  N10_38
REMARK   13  A    between atoms: N11_41  and  C24_42
REMARK   14  A    between atoms: C24_42  and  C25_43
REMARK   15  A    between atoms: C25_43  and  O3_44
ROOT
HETATM    1  N2  UNL     1       7.081   7.472  80.270  1.00  0.00    -0.335 N
HETATM    2  C4  UNL     1       7.923   8.498  80.622  1.00  0.00     0.183 A
HETATM    3  N3  UNL     1       7.301   9.245  81.513  1.00  0.00    -0.360 N
ATOM      4  H3  UNL     1       7.686  10.081  81.954  1.00  0.00     0.166 HD
HETATM    5  C5  UNL     1       6.093   8.741  81.747  1.00  0.00     0.121 A
HETATM    6  C6  UNL     1       5.949   7.589  80.938  1.00  0.00     0.079 A
ENDROOT
BRANCH   1   7
HETATM    7  C3  UNL     1       7.532   6.450  79.358  1.00  0.00     0.175 C
BRANCH   7   8
HETATM    8  C2  UNL     1       7.693   6.857  77.943  1.00  0.00     0.101 C
BRANCH   8   9
HETATM    9  N1  UNL     1       6.671   6.703  76.998  1.00  0.00    -0.199 N
HETATM   10  C1  UNL     1       5.463   7.495  76.974  1.00  0.00     0.174 C
BRANCH   9  11
HETATM   11  C19 UNL     1       6.790   5.715  75.949  1.00  0.00     0.699 A
HETATM   12  N8  UNL     1       6.294   5.937  74.725  1.00  0.00    -0.186 N
HETATM   13  C20 UNL     1       6.431   5.008  73.767  1.00  0.00     0.215 A
ATOM     14  H8  UNL     1       5.813   6.813  74.522  1.00  0.00     0.185 HD
HETATM   15  N9  UNL     1       7.069   3.831  74.015  1.00  0.00    -0.187 N
HETATM   16  C21 UNL     1       7.574   3.591  75.244  1.00  0.00     0.696 A
ATOM     17  H9  UNL     1       7.165   3.134  73.277  1.00  0.00     0.185 HD
HETATM   18  N12 UNL     1       7.418   4.541  76.171  1.00  0.00    -0.022 N
ATOM     19  H12 UNL     1       7.797   4.368  77.103  1.00  0.00     0.203 HD
BRANCH  16  20
HETATM   20  N10 UNL     1       8.255   2.363  75.515  1.00  0.00    -0.211 N
HETATM   21  C22 UNL     1       7.909   1.507  76.614  1.00  0.00     0.161 C
HETATM   22  C23 UNL     1       8.169   0.051  76.389  1.00  0.00     0.147 C
HETATM   23  N11 UNL     1       9.427  -0.237  75.770  1.00  0.00    -0.369 N
HETATM   24  C26 UNL     1      10.185   0.868  75.372  1.00  0.00     0.083 C
HETATM   25  C27 UNL     1       9.368   1.937  74.657  1.00  0.00     0.186 C
BRANCH  23  26
HETATM   26  C24 UNL     1       9.546  -1.491  75.165  1.00  0.00     0.089 C
BRANCH  26  27
HETATM   27  C25 UNL     1      10.188  -2.505  76.078  1.00  0.00     0.208 C
BRANCH  27  28
HETATM   28  O3  UNL     1      11.423  -2.039  76.559  1.00  0.00    -0.396 OA
ATOM     29  H3  UNL     1      12.059  -2.743  76.606  1.00  0.00     0.209 HD
ENDBRANCH  27  28
ENDBRANCH  26  27
ENDBRANCH  23  26
ENDBRANCH  16  20
ENDBRANCH   9  11
ENDBRANCH   8   9
ENDBRANCH   7   8
ENDBRANCH   1   7
BRANCH   6  30
HETATM   30  C7  UNL     1       4.705   6.807  80.912  1.00  0.00     0.077 A
HETATM   31  C8  UNL     1       3.471   7.029  80.398  1.00  0.00     0.124 A
HETATM   32  N4  UNL     1       2.631   5.993  80.674  1.00  0.00    -0.342 N
HETATM   33  C18 UNL     1       3.351   5.111  81.372  1.00  0.00     0.183 A
HETATM   34  N7  UNL     1       4.585   5.586  81.518  1.00  0.00    -0.349 N
ATOM     35  H7  UNL     1       5.337   5.107  82.014  1.00  0.00     0.166 HD
BRANCH  32  36
HETATM   36  C9  UNL     1       1.261   5.866  80.292  1.00  0.00     0.232 C
BRANCH  36  37
HETATM   37  C10 UNL     1       0.353   5.745  81.492  1.00  0.00     0.239 C
HETATM   38  O1  UNL     1      -0.218   4.652  81.605  1.00  0.00    -0.271 OA
HETATM   39  N5  UNL     1       0.202   6.817  82.384  1.00  0.00    -0.339 N
ATOM     40  H5  UNL     1       0.752   7.651  82.178  1.00  0.00     0.167 HD
BRANCH  39  41
HETATM   41  C11 UNL     1      -0.609   6.886  83.522  1.00  0.00     0.065 C
BRANCH  41  42
HETATM   42  C12 UNL     1      -0.450   5.974  84.672  1.00  0.00     0.074 C
BRANCH  42  43
HETATM   43  C13 UNL     1      -1.645   5.353  85.260  1.00  0.00     0.277 C
BRANCH  43  44
HETATM   44  N6  UNL     1      -1.481   3.876  85.252  1.00  0.00     0.092 N
HETATM   45  C14 UNL     1      -2.099   3.385  86.479  1.00  0.00     0.298 C
HETATM   46  C15 UNL     1      -1.437   2.071  86.893  1.00  0.00     0.198 C
HETATM   47  O2  UNL     1      -1.068   1.425  85.700  1.00  0.00    -0.388 OA
HETATM   48  C16 UNL     1       0.090   2.079  85.264  1.00  0.00     0.198 C
HETATM   49  C17 UNL     1      -0.050   3.586  85.401  1.00  0.00     0.298 C
ENDBRANCH  43  44
ENDBRANCH  42  43
ENDBRANCH  41  42
ENDBRANCH  39  41
ENDBRANCH  36  37
ENDBRANCH  32  36
ENDBRANCH   6  30
TORSDOF 15
ENDMDL