MODEL 4
REMARK VINA RESULT: -6.940000892      2.560      3.316
REMARK  17 active torsions:
REMARK  status: ('A' for Active; 'I' for Inactive)
REMARK    1  A    between atoms: C3_6  and  S1_7
REMARK    2  A    between atoms: S1_7  and  N3_10
REMARK    3  A    between atoms: N3_10  and  C4_11
REMARK    4  A    between atoms: N3_10  and  C18_33
REMARK    5  A    between atoms: C4_11  and  C5_12
REMARK    6  A    between atoms: C5_12  and  N4_13
REMARK    7  A    between atoms: C11_19  and  O3_20
REMARK    8  A    between atoms: O3_20  and  C12_21
REMARK    9  A    between atoms: C12_21  and  C13_22
REMARK   10  A    between atoms: C13_22  and  O4_23
REMARK   11  A    between atoms: C13_22  and  C14_25
REMARK   12  A    between atoms: C14_25  and  O5_26
REMARK   13  A    between atoms: O5_26  and  N5_27
REMARK   14  A    between atoms: C18_33  and  C19_34
REMARK   15  A    between atoms: N6_36  and  C21_37
REMARK   16  A    between atoms: C21_37  and  C22_38
REMARK   17  A    between atoms: C22_38  and  O8_39
ROOT
HETATM    1  N3  UNL     1       2.576   8.008  80.666  1.00  0.00    -0.178 NA
ENDROOT
BRANCH   1   2
HETATM    2  S1  UNL     1       3.193   6.446  81.042  1.00  0.00     0.264 S
HETATM    3  O1  UNL     1       2.371   5.450  80.272  1.00  0.00    -0.204 OA
HETATM    4  O2  UNL     1       2.983   6.111  82.499  1.00  0.00    -0.204 OA
BRANCH   2   5
HETATM    5  C3  UNL     1       4.867   6.265  80.657  1.00  0.00     0.161 A
HETATM    6  N2  UNL     1       5.955   6.550  81.378  1.00  0.00    -0.341 N
HETATM    7  C2  UNL     1       7.062   6.258  80.691  1.00  0.00     0.183 A
ATOM      8  H2  UNL     1       5.941   6.936  82.322  1.00  0.00     0.167 HD
HETATM    9  N1  UNL     1       6.691   5.777  79.502  1.00  0.00    -0.354 N
HETATM   10  C1  UNL     1       7.607   5.336  78.428  1.00  0.00     0.156 C
HETATM   11  C23 UNL     1       5.359   5.776  79.469  1.00  0.00     0.134 A
ENDBRANCH   2   5
ENDBRANCH   1   2
BRANCH   1  12
HETATM   12  C4  UNL     1       3.547   8.958  81.120  1.00  0.00     0.143 C
BRANCH  12  13
HETATM   13  C5  UNL     1       3.541   9.337  82.545  1.00  0.00     0.288 C
BRANCH  13  14
HETATM   14  N4  UNL     1       2.676  10.355  83.004  1.00  0.00     0.094 N
HETATM   15  C6  UNL     1       1.847  10.939  81.973  1.00  0.00     0.277 C
HETATM   16  C7  UNL     1       0.449  11.228  82.434  1.00  0.00     0.069 C
HETATM   17  C8  UNL     1      -0.117   9.962  82.954  1.00  0.00    -0.048 A
HETATM   18  C9  UNL     1      -1.345   9.483  82.581  1.00  0.00     0.010 A
HETATM   19  C16 UNL     1       0.671   9.274  83.850  1.00  0.00    -0.021 A
HETATM   20  C10 UNL     1      -1.805   8.288  83.112  1.00  0.00     0.037 A
HETATM   21  C11 UNL     1      -1.047   7.567  84.015  1.00  0.00     0.069 A
HETATM   22  C15 UNL     1       0.216   8.118  84.361  1.00  0.00     0.046 A
HETATM   23  C17 UNL     1       1.978   9.902  84.166  1.00  0.00     0.311 C
BRANCH  21  24
HETATM   24  O3  UNL     1      -1.450   6.421  84.553  1.00  0.00    -0.349 OA
BRANCH  24  25
HETATM   25  C12 UNL     1      -1.443   5.100  84.506  1.00  0.00     0.209 C
BRANCH  25  26
HETATM   26  C13 UNL     1      -1.319   4.283  85.757  1.00  0.00     0.168 C
BRANCH  26  27
HETATM   27  O4  UNL     1      -2.253   3.298  85.947  1.00  0.00    -0.391 OA
ATOM     28  H4  UNL     1      -2.192   2.800  86.754  1.00  0.00     0.210 HD
ENDBRANCH  26  27
BRANCH  26  29
HETATM   29  C14 UNL     1       0.047   3.577  85.806  1.00  0.00     0.241 C
BRANCH  29  30
HETATM   30  O5  UNL     1       0.438   3.148  84.529  1.00  0.00    -0.219 OA
BRANCH  30  31
HETATM   31  N5  UNL     1       0.101   1.869  84.154  1.00  0.00     0.005 N
HETATM   32  O6  UNL     1       0.130   1.504  82.952  1.00  0.00    -0.511 OA
HETATM   33  O7  UNL     1      -0.278   0.961  85.113  1.00  0.00    -0.511 OA
ENDBRANCH  30  31
ENDBRANCH  29  30
ENDBRANCH  26  29
ENDBRANCH  25  26
ENDBRANCH  24  25
ENDBRANCH  21  24
ENDBRANCH  13  14
ENDBRANCH  12  13
ENDBRANCH   1  12
BRANCH   1  34
HETATM   34  C18 UNL     1       2.185   8.167  79.323  1.00  0.00     0.109 C
BRANCH  34  35
HETATM   35  C19 UNL     1       0.668   8.262  79.198  1.00  0.00     0.078 A
HETATM   36  C20 UNL     1      -0.056   9.381  78.861  1.00  0.00     0.143 A
HETATM   37  N6  UNL     1      -1.352   9.014  78.880  1.00  0.00    -0.285 N
HETATM   38  N7  UNL     1      -1.427   7.724  79.215  1.00  0.00    -0.240 N
HETATM   39  N8  UNL     1      -0.210   7.264  79.408  1.00  0.00    -0.284 N
ATOM     40  H7  UNL     1      -2.287   7.184  79.305  1.00  0.00     0.208 HD
ATOM     41  H8  UNL     1       0.029   6.308  79.673  1.00  0.00     0.188 HD
BRANCH  37  42
HETATM   42  C21 UNL     1      -2.494   9.858  78.589  1.00  0.00     0.175 C
BRANCH  42  43
HETATM   43  C22 UNL     1      -3.618   9.062  77.948  1.00  0.00     0.185 C
BRANCH  43  44
HETATM   44  O8  UNL     1      -3.117   8.483  76.796  1.00  0.00    -0.399 OA
ATOM     45  H8  UNL     1      -3.578   8.863  76.059  1.00  0.00     0.209 HD
ENDBRANCH  43  44
ENDBRANCH  42  43
ENDBRANCH  37  42
ENDBRANCH  34  35
ENDBRANCH   1  34
TORSDOF 17
ENDMDL