MODEL 4
REMARK VINA RESULT: -6.946483771      1.946      3.199
REMARK  18 active torsions:
REMARK  status: ('A' for Active; 'I' for Inactive)
REMARK    1  A    between atoms: O1_2  and  C2_3
REMARK    2  A    between atoms: C2_3  and  C3_5
REMARK    3  A    between atoms: N1_7  and  C5_8
REMARK    4  A    between atoms: C5_8  and  C6_9
REMARK    5  A    between atoms: C6_9  and  O3_10
REMARK    6  A    between atoms: C6_9  and  N2_12
REMARK    7  A    between atoms: N2_12  and  C7_13
REMARK    8  A    between atoms: N2_12  and  C9_17
REMARK    9  A    between atoms: C7_13  and  C8_14
REMARK   10  A    between atoms: C8_14  and  O4_15
REMARK   11  A    between atoms: C9_17  and  C10_18
REMARK   12  A    between atoms: C10_18  and  N3_19
REMARK   13  A    between atoms: N4_22  and  C13_23
REMARK   14  A    between atoms: C13_23  and  C14_24
REMARK   15  A    between atoms: N6_28  and  C16_29
REMARK   16  A    between atoms: C16_29  and  C17_30
REMARK   17  A    between atoms: C17_30  and  C18_31
REMARK   18  A    between atoms: C18_31  and  N7_32
ROOT
HETATM    1  N3  UNL     1       7.505   5.769  78.094  1.00  0.00     0.096 N
HETATM    2  C11 UNL     1       7.372   6.105  79.504  1.00  0.00     0.292 C
HETATM    3  C12 UNL     1       6.098   5.627  80.082  1.00  0.00     0.152 C
HETATM    4  N4  UNL     1       4.904   5.913  79.315  1.00  0.00    -0.386 N
HETATM    5  C26 UNL     1       5.021   5.827  77.916  1.00  0.00     0.088 C
HETATM    6  C27 UNL     1       6.359   6.148  77.358  1.00  0.00     0.317 C
ENDROOT
BRANCH   1   7
HETATM    7  C10 UNL     1       7.894   4.376  78.006  1.00  0.00     0.292 C
BRANCH   7   8
HETATM    8  C9  UNL     1       7.651   3.783  76.674  1.00  0.00     0.149 C
BRANCH   8   9
HETATM    9  N2  UNL     1       8.587   2.690  76.387  1.00  0.00    -0.383 N
BRANCH   9  10
HETATM   10  C6  UNL     1       8.051   1.653  75.652  1.00  0.00     0.235 C
BRANCH  10  11
HETATM   11  C5  UNL     1       8.767   0.515  75.106  1.00  0.00     0.203 C
BRANCH  11  12
HETATM   12  N1  UNL     1       8.687  -0.778  75.741  1.00  0.00    -0.282 N
HETATM   13  C4  UNL     1       9.322  -1.916  75.420  1.00  0.00     0.149 A
HETATM   14  C3  UNL     1       8.965  -2.919  76.284  1.00  0.00     0.141 A
HETATM   15  N10 UNL     1       8.099  -2.340  77.126  1.00  0.00    -0.279 N
HETATM   16  N9  UNL     1       7.935  -1.083  76.809  1.00  0.00    -0.240 N
ATOM     17  H10 UNL     1       7.635  -2.811  77.903  1.00  0.00     0.189 HD
ATOM     18  H9  UNL     1       7.324  -0.430  77.300  1.00  0.00     0.208 HD
BRANCH  14  19
HETATM   19  C2  UNL     1       9.417  -4.312  76.315  1.00  0.00     0.312 C
HETATM   20  O2  UNL     1       9.026  -5.079  77.227  1.00  0.00    -0.258 OA
BRANCH  19  21
HETATM   21  O1  UNL     1      10.273  -4.819  75.357  1.00  0.00    -0.321 OA
HETATM   22  C1  UNL     1      10.336  -6.154  74.938  1.00  0.00     0.213 C
ENDBRANCH  19  21
ENDBRANCH  14  19
ENDBRANCH  11  12
ENDBRANCH  10  11
BRANCH  10  23
HETATM   23  O3  UNL     1       7.284   2.212  74.590  1.00  0.00    -0.375 OA
ATOM     24  H3  UNL     1       6.597   2.733  74.988  1.00  0.00     0.212 HD
ENDBRANCH  10  23
ENDBRANCH   9  10
BRANCH   9  25
HETATM   25  C7  UNL     1       9.420   2.487  77.511  1.00  0.00     0.145 C
BRANCH  25  26
HETATM   26  C8  UNL     1      10.897   2.690  77.286  1.00  0.00     0.183 C
BRANCH  26  27
HETATM   27  O4  UNL     1      11.475   1.493  76.793  1.00  0.00    -0.399 OA
ATOM     28  H4  UNL     1      10.852   1.042  76.236  1.00  0.00     0.209 HD
ENDBRANCH  26  27
ENDBRANCH  25  26
ENDBRANCH   9  25
ENDBRANCH   8   9
ENDBRANCH   7   8
ENDBRANCH   1   7
BRANCH   4  29
HETATM   29  C13 UNL     1       4.131   6.955  79.877  1.00  0.00     0.163 C
BRANCH  29  30
HETATM   30  C14 UNL     1       2.851   6.528  80.450  1.00  0.00    -0.006 A
HETATM   31  C15 UNL     1       1.604   6.494  79.888  1.00  0.00     0.117 A
HETATM   32  N5  UNL     1       0.712   6.001  80.756  1.00  0.00    -0.309 N
HETATM   33  N6  UNL     1       1.376   5.724  81.854  1.00  0.00    -0.303 N
ATOM     34  H5  UNL     1      -0.286   5.868  80.596  1.00  0.00     0.186 HD
HETATM   35  C25 UNL     1       2.667   6.020  81.733  1.00  0.00     0.120 A
BRANCH  33  36
HETATM   36  C16 UNL     1       0.753   5.129  83.046  1.00  0.00     0.150 C
BRANCH  36  37
HETATM   37  C17 UNL     1       0.991   6.165  84.140  1.00  0.00     0.052 C
BRANCH  37  38
HETATM   38  C18 UNL     1      -0.290   6.906  84.381  1.00  0.00     0.274 C
BRANCH  38  39
HETATM   39  N7  UNL     1      -0.097   8.293  84.714  1.00  0.00     0.090 N
HETATM   40  C19 UNL     1       1.225   8.761  84.410  1.00  0.00     0.274 C
HETATM   41  C20 UNL     1       1.322   9.824  83.373  1.00  0.00     0.060 C
HETATM   42  C21 UNL     1       0.809   9.390  82.039  1.00  0.00     0.273 C
HETATM   43  N8  UNL     1      -0.564   9.856  81.938  1.00  0.00     0.086 N
HETATM   44  C22 UNL     1      -0.994   9.573  80.557  1.00  0.00     0.309 C
HETATM   45  C23 UNL     1      -1.446   9.057  82.775  1.00  0.00     0.302 C
HETATM   46  C24 UNL     1      -1.138   9.151  84.226  1.00  0.00     0.302 C
ENDBRANCH  38  39
ENDBRANCH  37  38
ENDBRANCH  36  37
ENDBRANCH  33  36
ENDBRANCH  29  30
ENDBRANCH   4  29
TORSDOF 18
ENDMDL