MODEL 1
REMARK VINA RESULT: -7.873592988      0.000      0.000
REMARK  12 active torsions:
REMARK  status: ('A' for Active; 'I' for Inactive)
REMARK    1  A    between atoms: C2_2  and  O2_4
REMARK    2  A    between atoms: O2_4  and  C3_5
REMARK    3  A    between atoms: C3_5  and  N1_6
REMARK    4  A    between atoms: C6_10  and  N2_11
REMARK    5  A    between atoms: N2_11  and  C7_13
REMARK    6  A    between atoms: C8_16  and  C9_17
REMARK    7  A    between atoms: C9_17  and  N4_18
REMARK    8  A    between atoms: N4_18  and  C10_20
REMARK    9  A    between atoms: C10_20  and  O4_21
REMARK   10  A    between atoms: C10_20  and  C11_23
REMARK   11  A    between atoms: C14_29  and  C15_30
REMARK   12  A    between atoms: C15_30  and  O6_31
ROOT
HETATM    1  C7  UNL     1      17.747   4.677  11.357  1.00  0.00     0.696 A
HETATM    2  N3  UNL     1      17.365   4.697  10.018  1.00  0.00    -0.176 N
ATOM      3  H3  UNL     1      16.412   4.586   9.671  1.00  0.00     0.185 HD
HETATM    4  C8  UNL     1      18.447   4.884   9.268  1.00  0.00     0.130 A
HETATM    5  N7  UNL     1      19.473   4.979  10.104  1.00  0.00    -0.271 N
ATOM      6  H7  UNL     1      20.441   5.126   9.816  1.00  0.00     0.189 HD
HETATM    7  N8  UNL     1      19.070   4.855  11.378  1.00  0.00    -0.127 N
HETATM    8  C16 UNL     1      19.965   4.914  12.542  1.00  0.00     0.197 C
ENDROOT
BRANCH   4   9
HETATM    9  C9  UNL     1      18.468   4.968   7.759  1.00  0.00     0.200 C
BRANCH   9  10
HETATM   10  N4  UNL     1      19.645   5.674   7.335  1.00  0.00    -0.362 N
ATOM     11  H4  UNL     1      19.799   6.640   7.624  1.00  0.00     0.162 HD
BRANCH  10  12
HETATM   12  C10 UNL     1      20.592   5.013   6.510  1.00  0.00     0.165 C
BRANCH  12  13
HETATM   13  O4  UNL     1      20.369   4.784   5.162  1.00  0.00    -0.345 OA
ATOM     14  H4  UNL     1      20.514   5.451   4.501  1.00  0.00     0.219 HD
ENDBRANCH  12  13
BRANCH  12  15
HETATM   15  C11 UNL     1      21.734   4.596   7.028  1.00  0.00     0.099 A
HETATM   16  C12 UNL     1      22.356   5.289   8.044  1.00  0.00     0.125 A
HETATM   17  N5  UNL     1      23.514   4.846   8.553  1.00  0.00    -0.329 N
HETATM   18  C13 UNL     1      24.088   3.709   8.073  1.00  0.00     0.274 A
ATOM     19  H5  UNL     1      23.969   5.365   9.304  1.00  0.00     0.168 HD
HETATM   20  O5  UNL     1      25.169   3.346   8.587  1.00  0.00    -0.266 OA
HETATM   21  C14 UNL     1      23.467   3.016   7.058  1.00  0.00     0.123 A
HETATM   22  N6  UNL     1      22.309   3.480   6.565  1.00  0.00    -0.346 N
ATOM     23  H6  UNL     1      21.852   2.965   5.812  1.00  0.00     0.166 HD
BRANCH  21  24
HETATM   24  C15 UNL     1      24.013   1.904   6.577  1.00  0.00     0.166 C
BRANCH  24  25
HETATM   25  O6  UNL     1      23.386   0.685   6.726  1.00  0.00    -0.370 OA
ATOM     26  H6  UNL     1      23.126   0.371   7.584  1.00  0.00     0.216 HD
ENDBRANCH  24  25
ENDBRANCH  21  24
ENDBRANCH  12  15
ENDBRANCH  10  12
ENDBRANCH   9  10
ENDBRANCH   4   9
BRANCH   1  27
HETATM   27  N2  UNL     1      16.901   4.511  12.284  1.00  0.00    -0.211 N
ATOM     28  H2  UNL     1      16.554   5.389  12.669  1.00  0.00     0.178 HD
BRANCH  27  29
HETATM   29  C6  UNL     1      16.346   3.397  12.888  1.00  0.00     0.201 C
HETATM   30  C5  UNL     1      16.487   2.148  12.025  1.00  0.00     0.139 C
HETATM   31  C4  UNL     1      16.883   1.075  12.952  1.00  0.00     0.230 C
HETATM   32  N1  UNL     1      16.923   1.606  14.271  1.00  0.00    -0.264 N
HETATM   33  O3  UNL     1      17.129  -0.102  12.568  1.00  0.00    -0.273 OA
HETATM   34  C17 UNL     1      17.109   3.002  14.138  1.00  0.00     0.252 C
HETATM   35  O7  UNL     1      17.739   3.804  14.838  1.00  0.00    -0.271 OA
BRANCH  32  36
HETATM   36  C3  UNL     1      16.826   0.828  15.502  1.00  0.00     0.315 C
BRANCH  36  37
HETATM   37  O2  UNL     1      15.528   0.634  15.920  1.00  0.00    -0.301 OA
BRANCH  37  38
HETATM   38  C2  UNL     1      14.796   1.315  16.837  1.00  0.00     0.256 C
HETATM   39  C1  UNL     1      15.406   2.161  17.913  1.00  0.00     0.126 C
HETATM   40  O1  UNL     1      13.548   1.236  16.787  1.00  0.00    -0.266 OA
ENDBRANCH  37  38
ENDBRANCH  36  37
ENDBRANCH  32  36
ENDBRANCH  27  29
ENDBRANCH   1  27
TORSDOF 12
ENDMDL