MODEL 5
REMARK VINA RESULT: -7.288634953      2.162      2.866
REMARK  8 active torsions:
REMARK  status: ('A' for Active; 'I' for Inactive)
REMARK    1  A    between atoms: C3_7  and  C4_8
REMARK    2  A    between atoms: C4_8  and  N3_9
REMARK       I    between atoms: N4_12  and  C7_13
REMARK    3  A    between atoms: C7_13  and  C8_15
REMARK    4  A    between atoms: C8_15  and  N5_16
REMARK    5  A    between atoms: C10_21  and  N7_22
REMARK    6  A    between atoms: N7_22  and  N8_24
REMARK       I    between atoms: N8_24  and  C11_26
REMARK    7  A    between atoms: N11_33  and  C13_34
REMARK    8  A    between atoms: C13_34  and  C14_35
ROOT
HETATM    1  N5  UNL     1      16.794   5.284  13.186  1.00  0.00    -0.228 N
HETATM    2  C9  UNL     1      16.085   5.940  14.118  1.00  0.00     0.343 A
HETATM    3  O2  UNL     1      16.092   7.216  14.108  1.00  0.00    -0.245 OA
HETATM    4  N6  UNL     1      15.355   5.357  15.075  1.00  0.00    -0.287 N
ATOM      5  H6  UNL     1      14.838   5.915  15.755  1.00  0.00     0.172 HD
HETATM    6  C10 UNL     1      15.323   4.014  15.116  1.00  0.00     0.195 A
HETATM    7  C12 UNL     1      16.054   3.348  14.156  1.00  0.00     0.308 A
HETATM    8  O3  UNL     1      16.050   2.092  14.161  1.00  0.00    -0.262 OA
HETATM    9  N11 UNL     1      16.780   3.964  13.204  1.00  0.00    -0.238 N
ENDROOT
BRANCH   1  10
HETATM   10  C8  UNL     1      17.538   6.012  12.209  1.00  0.00     0.257 C
BRANCH  10  11
HETATM   11  C7  UNL     1      18.976   6.154  12.539  1.00  0.00     0.239 C
HETATM   12  N4  UNL     1      19.973   6.336  11.578  1.00  0.00    -0.347 N
HETATM   13  C6  UNL     1      21.364   6.472  11.925  1.00  0.00     0.156 C
HETATM   14  C15 UNL     1      19.628   6.395  10.181  1.00  0.00     0.156 C
HETATM   15  C5  UNL     1      22.201   6.639  10.648  1.00  0.00     0.292 C
HETATM   16  N3  UNL     1      21.878   5.633   9.664  1.00  0.00     0.098 N
HETATM   17  C16 UNL     1      20.489   5.430   9.430  1.00  0.00     0.292 C
HETATM   18  O1  UNL     1      19.315   6.108  13.746  1.00  0.00    -0.271 OA
BRANCH  16  19
HETATM   19  C4  UNL     1      22.602   4.399   9.910  1.00  0.00     0.350 C
BRANCH  19  20
HETATM   20  C3  UNL     1      23.350   3.976   8.704  1.00  0.00     0.126 A
HETATM   21  N2  UNL     1      23.827   2.798   8.318  1.00  0.00    -0.286 N
HETATM   22  N1  UNL     1      24.433   2.907   7.151  1.00  0.00    -0.288 N
ATOM     23  H2  UNL     1      23.739   1.932   8.850  1.00  0.00     0.188 HD
HETATM   24  C2  UNL     1      24.359   4.187   6.744  1.00  0.00     0.093 A
ATOM     25  H1  UNL     1      24.882   2.147   6.641  1.00  0.00     0.188 HD
HETATM   26  C1  UNL     1      24.918   4.749   5.468  1.00  0.00     0.090 C
HETATM   27  N12 UNL     1      23.691   4.840   7.703  1.00  0.00    -0.332 N
ATOM     28  H12 UNL     1      23.470   5.835   7.689  1.00  0.00     0.168 HD
ENDBRANCH  19  20
ENDBRANCH  16  19
ENDBRANCH  10  11
ENDBRANCH   1  10
BRANCH   9  29
HETATM   29  C13 UNL     1      17.517   3.179  12.235  1.00  0.00     0.266 C
BRANCH  29  30
HETATM   30  C14 UNL     1      16.746   2.970  10.984  1.00  0.00     0.193 C
HETATM   31  O4  UNL     1      17.256   3.402   9.919  1.00  0.00    -0.647 OA
HETATM   32  O5  UNL     1      15.535   2.334  11.001  1.00  0.00    -0.647 OA
ENDBRANCH  29  30
ENDBRANCH   9  29
BRANCH   6  33
HETATM   33  N7  UNL     1      14.626   3.451  16.033  1.00  0.00    -0.278 N
ATOM     34  H7  UNL     1      14.083   4.063  16.642  1.00  0.00     0.189 HD
BRANCH  33  35
HETATM   35  N8  UNL     1      14.541   2.097  16.271  1.00  0.00    -0.272 N
HETATM   36  C11 UNL     1      15.090   1.567  17.465  1.00  0.00     0.200 C
HETATM   37  N9  UNL     1      15.463   0.339  17.540  1.00  0.00    -0.372 N
HETATM   38  N10 UNL     1      15.224   2.419  18.589  1.00  0.00    -0.062 NA
ATOM     39  H92 UNL     1      15.367  -0.274  16.731  1.00  0.00     0.158 HD
ATOM     40  H91 UNL     1      15.858  -0.042  18.400  1.00  0.00     0.158 HD
ATOM     41  H8  UNL     1      14.087   1.482  15.595  1.00  0.00     0.189 HD
ENDBRANCH  33  35
ENDBRANCH   6  33
TORSDOF 8
ENDMDL