MODEL 3
REMARK VINA RESULT: -7.377989491      1.166      1.570
REMARK  10 active torsions:
REMARK  status: ('A' for Active; 'I' for Inactive)
REMARK    1  A    between atoms: C4_7  and  C5_8
REMARK    2  A    between atoms: C5_8  and  C6_9
REMARK       I    between atoms: C6_9  and  N3_11
REMARK    3  A    between atoms: N3_11  and  C7_13
REMARK    4  A    between atoms: C8_16  and  N5_17
REMARK    5  A    between atoms: N5_17  and  N6_19
REMARK    6  A    between atoms: N8_28  and  C12_29
REMARK    7  A    between atoms: C12_29  and  C13_30
REMARK    8  A    between atoms: C13_30  and  O3_31
REMARK    9  A    between atoms: C13_30  and  C14_33
REMARK   10  A    between atoms: C14_33  and  O4_34
ROOT
HETATM    1  C7  UNL     1      16.694   5.341  12.835  1.00  0.00     0.143 A
HETATM    2  N4  UNL     1      16.871   5.479  11.511  1.00  0.00    -0.174 N
ATOM      3  H4  UNL     1      16.878   6.417  11.112  1.00  0.00     0.186 HD
HETATM    4  C8  UNL     1      17.041   4.410  10.681  1.00  0.00     0.699 A
HETATM    5  N7  UNL     1      17.042   3.150  11.146  1.00  0.00    -0.174 N
ATOM      6  H7  UNL     1      17.170   2.352  10.525  1.00  0.00     0.186 HD
HETATM    7  C9  UNL     1      16.864   2.990  12.477  1.00  0.00     0.146 A
HETATM    8  C10 UNL     1      16.690   4.057  13.337  1.00  0.00     0.122 A
HETATM    9  C11 UNL     1      16.514   3.860  14.707  1.00  0.00     0.269 A
HETATM   10  O2  UNL     1      16.366   4.870  15.405  1.00  0.00    -0.267 OA
HETATM   11  N8  UNL     1      16.519   2.596  15.155  1.00  0.00    -0.263 N
HETATM   12  C15 UNL     1      16.688   1.525  14.337  1.00  0.00     0.333 A
HETATM   13  O5  UNL     1      16.693   0.337  14.775  1.00  0.00    -0.246 OA
HETATM   14  N9  UNL     1      16.855   1.759  13.030  1.00  0.00    -0.288 N
HETATM   15  C16 UNL     1      17.038   0.637  12.105  1.00  0.00     0.163 C
ENDROOT
BRANCH   1  16
HETATM   16  N3  UNL     1      16.538   6.303  13.630  1.00  0.00    -0.311 N
HETATM   17  C6  UNL     1      17.246   7.525  13.703  1.00  0.00     0.227 C
HETATM   18  O1  UNL     1      16.783   8.470  12.980  1.00  0.00    -0.273 OA
ATOM     19  H3  UNL     1      15.794   6.185  14.319  1.00  0.00     0.170 HD
BRANCH  17  20
HETATM   20  C5  UNL     1      18.425   7.770  14.517  1.00  0.00     0.147 C
BRANCH  20  21
HETATM   21  C4  UNL     1      19.713   7.924  13.846  1.00  0.00     0.021 A
HETATM   22  C3  UNL     1      20.128   7.051  12.901  1.00  0.00     0.032 A
HETATM   23  C2  UNL     1      21.406   7.190  12.227  1.00  0.00     0.108 A
HETATM   24  N2  UNL     1      22.195   8.168  12.518  1.00  0.00    -0.307 N
HETATM   25  N1  UNL     1      21.872   9.129  13.479  1.00  0.00    -0.262 N
ATOM     26  H2  UNL     1      23.088   8.242  12.029  1.00  0.00     0.186 HD
HETATM   27  C1  UNL     1      22.748  10.228  13.816  1.00  0.00     0.181 C
HETATM   28  C17 UNL     1      20.611   9.023  14.169  1.00  0.00     0.268 A
HETATM   29  O6  UNL     1      20.365   9.900  15.018  1.00  0.00    -0.266 OA
ENDBRANCH  20  21
ENDBRANCH  17  20
ENDBRANCH   1  16
BRANCH   4  30
HETATM   30  N5  UNL     1      17.202   4.620   9.438  1.00  0.00    -0.138 N
ATOM     31  H5  UNL     1      17.420   3.812   8.855  1.00  0.00     0.205 HD
BRANCH  30  32
HETATM   32  N6  UNL     1      17.107   5.843   8.810  1.00  0.00    -0.331 N
ATOM     33  H62 UNL     1      16.891   5.818   7.814  1.00  0.00     0.177 HD
ATOM     34  H61 UNL     1      17.233   6.752   9.255  1.00  0.00     0.177 HD
ENDBRANCH  30  32
ENDBRANCH   4  30
BRANCH  11  35
HETATM   35  C12 UNL     1      16.333   2.343  16.549  1.00  0.00     0.171 C
BRANCH  35  36
HETATM   36  C13 UNL     1      14.914   2.440  17.003  1.00  0.00     0.160 C
BRANCH  36  37
HETATM   37  O3  UNL     1      14.776   3.074  18.252  1.00  0.00    -0.392 OA
ATOM     38  H3  UNL     1      14.890   2.482  18.986  1.00  0.00     0.210 HD
ENDBRANCH  36  37
BRANCH  36  39
HETATM   39  C14 UNL     1      14.168   1.146  17.054  1.00  0.00     0.197 C
BRANCH  39  40
HETATM   40  O4  UNL     1      15.098   0.085  17.165  1.00  0.00    -0.398 OA
ATOM     41  H4  UNL     1      15.308  -0.044  18.082  1.00  0.00     0.209 HD
ENDBRANCH  39  40
ENDBRANCH  36  39
ENDBRANCH  35  36
ENDBRANCH  11  35
TORSDOF 10
ENDMDL