MODEL 2
REMARK VINA RESULT: -6.799321096      1.204      1.708
REMARK  13 active torsions:
REMARK  status: ('A' for Active; 'I' for Inactive)
REMARK    1  A    between atoms: N1_1  and  C1_5
REMARK    2  A    between atoms: C1_5  and  C2_6
REMARK    3  A    between atoms: C1_5  and  C3_9
REMARK    4  A    between atoms: C3_9  and  C4_11
REMARK    5  A    between atoms: C4_11  and  C5_12
REMARK    6  A    between atoms: C5_12  and  C6_13
REMARK    7  A    between atoms: C8_18  and  C9_19
REMARK    8  A    between atoms: C9_19  and  O5_20
REMARK    9  A    between atoms: C9_19  and  C10_22
REMARK       I    between atoms: C10_22  and  N2_24
REMARK   10  A    between atoms: N2_24  and  C11_26
REMARK   11  A    between atoms: N3_27  and  N4_28
REMARK   12  A    between atoms: N6_33  and  O7_34
REMARK   13  A    between atoms: N7_36  and  O8_37
ROOT
HETATM    1  C6  UNL     1      15.936   5.737  13.626  1.00  0.00     0.130 C
HETATM    2  S1  UNL     1      15.300   7.111  14.672  1.00  0.00    -0.077 SA
HETATM    3  S2  UNL     1      15.824   8.871  13.545  1.00  0.00    -0.018 SA
HETATM    4  C7  UNL     1      16.114   8.245  11.892  1.00  0.00     0.210 C
HETATM    5  O4  UNL     1      15.506   8.760  10.970  1.00  0.00    -0.284 OA
HETATM    6  C8  UNL     1      17.076   7.131  11.728  1.00  0.00     0.176 C
HETATM    7  C12 UNL     1      17.140   6.221  12.872  1.00  0.00     0.156 C
HETATM    8  O9  UNL     1      18.222   5.818  13.253  1.00  0.00    -0.296 OA
ENDROOT
BRANCH   6   9
HETATM    9  C9  UNL     1      16.697   6.423  10.422  1.00  0.00     0.230 C
BRANCH   9  10
HETATM   10  O5  UNL     1      16.817   7.424   9.429  1.00  0.00    -0.385 OA
ATOM     11  H5  UNL     1      17.478   8.017   9.765  1.00  0.00     0.210 HD
ENDBRANCH   9  10
BRANCH   9  12
HETATM   12  C10 UNL     1      17.631   5.339  10.088  1.00  0.00     0.266 C
HETATM   13  O6  UNL     1      18.860   5.560  10.115  1.00  0.00    -0.270 OA
HETATM   14  N2  UNL     1      17.185   4.043   9.734  1.00  0.00    -0.151 N
ATOM     15  H2  UNL     1      16.997   3.828   8.756  1.00  0.00     0.187 HD
BRANCH  14  16
HETATM   16  C11 UNL     1      17.010   3.116  10.645  1.00  0.00     0.767 A
HETATM   17  N3  UNL     1      16.000   2.236  10.721  1.00  0.00    -0.005 N
HETATM   18  N5  UNL     1      16.144   1.440  11.773  1.00  0.00    -0.162 N
HETATM   19  N6  UNL     1      17.250   1.817  12.367  1.00  0.00    -0.035 N
ATOM     20  H5  UNL     1      15.519   0.687  12.062  1.00  0.00     0.215 HD
HETATM   21  N7  UNL     1      17.800   2.839  11.700  1.00  0.00     0.064 N
BRANCH  17  22
HETATM   22  N4  UNL     1      14.933   2.137   9.840  1.00  0.00    -0.308 N
ATOM     23  H42 UNL     1      13.960   2.214  10.136  1.00  0.00     0.179 HD
ATOM     24  H41 UNL     1      14.996   1.983   8.834  1.00  0.00     0.179 HD
ENDBRANCH  17  22
BRANCH  19  25
HETATM   25  O7  UNL     1      17.762   1.238  13.514  1.00  0.00    -0.250 OA
ATOM     26  H7  UNL     1      17.858   1.684  14.348  1.00  0.00     0.248 HD
ENDBRANCH  19  25
BRANCH  21  27
HETATM   27  O8  UNL     1      18.958   3.468  12.049  1.00  0.00    -0.251 OA
ATOM     28  H8  UNL     1      19.677   3.107  12.554  1.00  0.00     0.247 HD
ENDBRANCH  21  27
ENDBRANCH  14  16
ENDBRANCH   9  12
ENDBRANCH   6   9
BRANCH   1  29
HETATM   29  C5  UNL     1      16.299   4.622  14.529  1.00  0.00     0.031 C
BRANCH  29  30
HETATM   30  C4  UNL     1      15.334   3.509  14.668  1.00  0.00     0.083 C
BRANCH  30  31
HETATM   31  C3  UNL     1      14.934   3.164  16.048  1.00  0.00     0.168 C
HETATM   32  O3  UNL     1      14.395   3.998  16.744  1.00  0.00    -0.295 OA
BRANCH  31  33
HETATM   33  C1  UNL     1      15.162   1.818  16.639  1.00  0.00     0.352 C
BRANCH  33  34
HETATM   34  N1  UNL     1      15.286   1.934  18.096  1.00  0.00    -0.058 N
ATOM     35  H13 UNL     1      14.389   2.055  18.567  1.00  0.00     0.275 HD
ATOM     36  H12 UNL     1      15.552   1.059  18.548  1.00  0.00     0.275 HD
ATOM     37  H11 UNL     1      15.941   2.695  18.278  1.00  0.00     0.275 HD
ENDBRANCH  33  34
BRANCH  33  38
HETATM   38  C2  UNL     1      16.393   1.159  16.154  1.00  0.00     0.212 C
HETATM   39  O1  UNL     1      16.322   0.060  15.531  1.00  0.00    -0.646 OA
HETATM   40  O2  UNL     1      17.673   1.666  16.331  1.00  0.00    -0.646 OA
ENDBRANCH  33  38
ENDBRANCH  31  33
ENDBRANCH  30  31
ENDBRANCH  29  30
ENDBRANCH   1  29
TORSDOF 13
ENDMDL