MODEL 1
REMARK VINA RESULT: -7.944830275      0.000      0.000
REMARK  9 active torsions:
REMARK  status: ('A' for Active; 'I' for Inactive)
REMARK    1  A    between atoms: N1_1  and  C1_4
REMARK    2  A    between atoms: N3_9  and  C3_10
REMARK    3  A    between atoms: C3_10  and  C4_11
REMARK    4  A    between atoms: C4_11  and  O2_12
REMARK    5  A    between atoms: C4_11  and  C5_14
REMARK    6  A    between atoms: C5_14  and  N4_15
REMARK    7  A    between atoms: N6_28  and  S1_30
REMARK    8  A    between atoms: S1_30  and  C13_33
REMARK    9  A    between atoms: C13_33  and  N7_34
ROOT
HETATM    1  C1  UNL     1      18.400   4.888   9.273  1.00  0.00     0.113 A
HETATM    2  N2  UNL     1      17.262   4.220   9.495  1.00  0.00    -0.294 N
ATOM      3  H2  UNL     1      16.593   4.149   8.728  1.00  0.00     0.172 HD
HETATM    4  C2  UNL     1      16.944   3.639  10.659  1.00  0.00     0.329 A
HETATM    5  O1  UNL     1      15.870   3.016  10.851  1.00  0.00    -0.246 OA
HETATM    6  N3  UNL     1      17.802   3.717  11.680  1.00  0.00    -0.282 N
HETATM    7  C9  UNL     1      18.981   4.375  11.545  1.00  0.00     0.123 A
HETATM    8  C10 UNL     1      19.302   4.970  10.346  1.00  0.00     0.037 A
HETATM    9  C11 UNL     1      20.627   5.631  10.411  1.00  0.00     0.123 A
HETATM   10  C12 UNL     1      21.082   5.373  11.789  1.00  0.00     0.096 A
HETATM   11  N6  UNL     1      22.199   5.747  12.358  1.00  0.00    -0.272 N
ATOM     12  H6  UNL     1      22.375   5.490  13.329  1.00  0.00     0.180 HD
HETATM   13  N10 UNL     1      20.071   4.620  12.433  1.00  0.00    -0.331 N
ATOM     14  H10 UNL     1      20.114   4.297  13.400  1.00  0.00     0.168 HD
ENDROOT
BRANCH   6  15
HETATM   15  C3  UNL     1      17.537   3.117  12.973  1.00  0.00     0.168 C
BRANCH  15  16
HETATM   16  C4  UNL     1      16.676   4.006  13.844  1.00  0.00     0.155 C
BRANCH  16  17
HETATM   17  O2  UNL     1      15.328   3.685  13.741  1.00  0.00    -0.392 OA
ATOM     18  H2  UNL     1      14.807   4.125  14.402  1.00  0.00     0.210 HD
ENDBRANCH  16  17
BRANCH  16  19
HETATM   19  C5  UNL     1      17.147   3.805  15.278  1.00  0.00     0.170 C
BRANCH  19  20
HETATM   20  N4  UNL     1      16.263   2.861  15.957  1.00  0.00    -0.259 N
HETATM   21  C6  UNL     1      14.961   3.102  16.478  1.00  0.00     0.332 A
HETATM   22  O3  UNL     1      14.373   4.207  16.421  1.00  0.00    -0.246 OA
HETATM   23  N5  UNL     1      14.445   1.913  17.061  1.00  0.00    -0.271 N
HETATM   24  C7  UNL     1      15.406   0.891  16.925  1.00  0.00     0.318 A
ATOM     25  H5  UNL     1      13.531   1.816  17.504  1.00  0.00     0.174 HD
HETATM   26  O4  UNL     1      15.332  -0.310  17.310  1.00  0.00    -0.262 OA
HETATM   27  C8  UNL     1      16.541   1.491  16.233  1.00  0.00     0.320 A
HETATM   28  O5  UNL     1      17.592   0.864  15.939  1.00  0.00    -0.262 OA
ENDBRANCH  19  20
ENDBRANCH  16  19
ENDBRANCH  15  16
ENDBRANCH   6  15
BRANCH   1  29
HETATM   29  N1  UNL     1      18.688   5.445   8.133  1.00  0.00    -0.385 N
ATOM     30  H12 UNL     1      18.079   5.305   7.327  1.00  0.00     0.157 HD
ATOM     31  H11 UNL     1      19.511   6.030   7.990  1.00  0.00     0.157 HD
ENDBRANCH   1  29
BRANCH  11  32
HETATM   32  S1  UNL     1      23.366   6.653  11.512  1.00  0.00     0.252 S
HETATM   33  O6  UNL     1      24.552   6.892  12.421  1.00  0.00    -0.204 OA
HETATM   34  O7  UNL     1      23.857   6.008  10.268  1.00  0.00    -0.204 OA
BRANCH  32  35
HETATM   35  C13 UNL     1      22.668   8.272  11.159  1.00  0.00     0.336 C
BRANCH  35  36
HETATM   36  N7  UNL     1      22.186   8.791  12.428  1.00  0.00    -0.175 N
HETATM   37  N8  UNL     1      22.779   9.176  13.524  1.00  0.00    -0.162 N
HETATM   38  O8  UNL     1      21.590   9.444  14.024  1.00  0.00    -0.123 OA
ATOM     39  H8  UNL     1      23.743   9.241  13.852  1.00  0.00     0.220 HD
HETATM   40  N9  UNL     1      20.999   9.060  12.928  1.00  0.00    -0.162 N
ATOM     41  H9  UNL     1      20.035   8.995  12.600  1.00  0.00     0.220 HD
ENDBRANCH  35  36
ENDBRANCH  32  35
ENDBRANCH  11  32
TORSDOF 9
ENDMDL