MODEL 3
REMARK VINA RESULT: -8.520332344      3.512      4.678
REMARK  10 active torsions:
REMARK  status: ('A' for Active; 'I' for Inactive)
REMARK    1  A    between atoms: O1_2  and  C2_3
REMARK    2  A    between atoms: C2_3  and  C3_5
REMARK       I    between atoms: C3_5  and  N1_7
REMARK    3  A    between atoms: N1_7  and  C4_9
REMARK    4  A    between atoms: C7_16  and  C8_17
REMARK    5  A    between atoms: C8_17  and  N4_18
REMARK       I    between atoms: N4_18  and  C9_20
REMARK    6  A    between atoms: C9_20  and  C10_22
REMARK    7  A    between atoms: C10_22  and  N5_23
REMARK    8  A    between atoms: N5_23  and  C11_25
REMARK    9  A    between atoms: N11_39  and  C14_40
REMARK   10  A    between atoms: C14_40  and  O7_41
ROOT
HETATM    1  C4  UNL     1      17.141   2.838  12.900  1.00  0.00     0.708 A
HETATM    2  N2  UNL     1      18.145   3.596  13.491  1.00  0.00    -0.021 N
ATOM      3  H2  UNL     1      18.295   3.522  14.497  1.00  0.00     0.203 HD
HETATM    4  C5  UNL     1      18.923   4.425  12.775  1.00  0.00     0.710 A
HETATM    5  N3  UNL     1      19.833   5.226  13.354  1.00  0.00    -0.200 N
ATOM      6  H3  UNL     1      19.981   5.150  14.360  1.00  0.00     0.183 HD
HETATM    7  C6  UNL     1      20.571   6.141  12.648  1.00  0.00     0.120 A
HETATM    8  C7  UNL     1      20.391   6.263  11.310  1.00  0.00     0.045 A
HETATM    9  C12 UNL     1      19.442   5.403  10.745  1.00  0.00     0.280 A
HETATM   10  O5  UNL     1      19.248   5.465   9.494  1.00  0.00    -0.266 OA
HETATM   11  N10 UNL     1      18.725   4.516  11.449  1.00  0.00    -0.057 N
HETATM   12  C13 UNL     1      17.760   3.783  10.890  1.00  0.00     0.366 A
HETATM   13  O6  UNL     1      17.579   3.866   9.652  1.00  0.00    -0.245 OA
HETATM   14  N11 UNL     1      16.946   2.934  11.593  1.00  0.00    -0.109 N
ENDROOT
BRANCH   8  15
HETATM   15  C8  UNL     1      21.139   7.187  10.416  1.00  0.00     0.168 C
BRANCH  15  16
HETATM   16  N4  UNL     1      20.270   8.211   9.914  1.00  0.00    -0.355 N
HETATM   17  C9  UNL     1      19.494   9.213  10.421  1.00  0.00     0.236 C
HETATM   18  O4  UNL     1      19.398   9.532  11.613  1.00  0.00    -0.272 OA
ATOM     19  H4  UNL     1      20.216   8.182   8.896  1.00  0.00     0.162 HD
BRANCH  17  20
HETATM   20  C10 UNL     1      18.639  10.009   9.452  1.00  0.00     0.240 C
BRANCH  20  21
HETATM   21  N5  UNL     1      17.293   9.490   9.485  1.00  0.00    -0.215 N
ATOM     22  H5  UNL     1      16.541  10.115   9.778  1.00  0.00     0.178 HD
BRANCH  21  23
HETATM   23  C11 UNL     1      16.995   8.303   9.168  1.00  0.00     0.710 A
HETATM   24  N6  UNL     1      16.252   7.503   9.988  1.00  0.00    -0.115 N
HETATM   25  N7  UNL     1      16.095   6.330   9.444  1.00  0.00    -0.213 N
ATOM     26  H6  UNL     1      15.876   7.784  10.894  1.00  0.00     0.207 HD
HETATM   27  N8  UNL     1      16.719   6.351   8.292  1.00  0.00    -0.213 N
ATOM     28  H7  UNL     1      15.582   5.543   9.841  1.00  0.00     0.210 HD
HETATM   29  N9  UNL     1      17.284   7.559   8.099  1.00  0.00    -0.115 N
ATOM     30  H8  UNL     1      16.770   5.569   7.639  1.00  0.00     0.210 HD
ATOM     31  H9  UNL     1      17.829   7.851   7.288  1.00  0.00     0.207 HD
ENDBRANCH  21  23
ENDBRANCH  20  21
ENDBRANCH  17  20
ENDBRANCH  15  16
ENDBRANCH   8  15
BRANCH  14  32
HETATM   32  C14 UNL     1      15.857   2.311  10.845  1.00  0.00     0.319 C
BRANCH  32  33
HETATM   33  O7  UNL     1      16.264   1.019  10.470  1.00  0.00    -0.381 OA
ATOM     34  H7  UNL     1      16.887   1.099   9.757  1.00  0.00     0.211 HD
ENDBRANCH  32  33
ENDBRANCH  14  32
BRANCH   1  35
HETATM   35  N1  UNL     1      16.515   2.122  13.700  1.00  0.00    -0.150 N
HETATM   36  C3  UNL     1      16.745   1.088  14.571  1.00  0.00     0.335 C
HETATM   37  O3  UNL     1      16.657  -0.147  14.266  1.00  0.00    -0.261 OA
ATOM     38  H1  UNL     1      15.529   2.383  13.711  1.00  0.00     0.188 HD
BRANCH  36  39
HETATM   39  C2  UNL     1      17.131   1.415  15.959  1.00  0.00     0.351 C
HETATM   40  O2  UNL     1      18.176   2.130  16.132  1.00  0.00    -0.254 OA
BRANCH  39  41
HETATM   41  O1  UNL     1      16.421   0.969  17.021  1.00  0.00    -0.319 OA
HETATM   42  C1  UNL     1      15.047   1.252  17.248  1.00  0.00     0.213 C
ENDBRANCH  39  41
ENDBRANCH  36  39
ENDBRANCH   1  35
TORSDOF 10
ENDMDL