MODEL 3
REMARK VINA RESULT: -7.170657530      1.479      5.642
REMARK  10 active torsions:
REMARK  status: ('A' for Active; 'I' for Inactive)
REMARK    1  A    between atoms: N1_1  and  C1_5
REMARK    2  A    between atoms: C1_5  and  C2_6
REMARK    3  A    between atoms: C2_6  and  N2_7
REMARK    4  A    between atoms: N3_10  and  C5_11
REMARK    5  A    between atoms: C6_14  and  N5_15
REMARK       I    between atoms: N5_15  and  C7_17
REMARK    6  A    between atoms: C7_17  and  C8_19
REMARK    7  A    between atoms: C8_19  and  N6_20
REMARK    8  A    between atoms: C8_19  and  C9_24
REMARK    9  A    between atoms: C9_24  and  O2_25
REMARK   10  A    between atoms: C10_29  and  N8_30
ROOT
HETATM    1  C5  UNL     1      19.562   7.758  13.554  1.00  0.00     0.710 A
HETATM    2  N4  UNL     1      20.624   7.265  12.919  1.00  0.00    -0.021 N
ATOM      3  H4  UNL     1      21.426   7.870  12.740  1.00  0.00     0.203 HD
HETATM    4  C6  UNL     1      20.660   5.979  12.509  1.00  0.00     0.714 A
HETATM    5  N7  UNL     1      19.591   5.212  12.762  1.00  0.00    -0.021 N
ATOM      6  H7  UNL     1      19.614   4.240  12.454  1.00  0.00     0.203 HD
HETATM    7  C10 UNL     1      18.475   5.656  13.406  1.00  0.00     0.716 A
HETATM    8  N12 UNL     1      18.501   6.932  13.786  1.00  0.00    -0.021 N
ATOM      9  H12 UNL     1      17.688   7.310  14.273  1.00  0.00     0.203 HD
ENDROOT
BRANCH   1  10
HETATM   10  N3  UNL     1      19.514   9.133  13.975  1.00  0.00    -0.207 N
HETATM   11  C4  UNL     1      20.259   9.549  15.171  1.00  0.00     0.186 C
HETATM   12  C3  UNL     1      21.227  10.613  14.706  1.00  0.00     0.083 C
HETATM   13  N2  UNL     1      20.629  11.661  13.982  1.00  0.00    -0.369 N
HETATM   14  C17 UNL     1      19.611  11.367  13.077  1.00  0.00     0.083 C
HETATM   15  C16 UNL     1      18.773  10.161  13.303  1.00  0.00     0.186 C
BRANCH  13  16
HETATM   16  C2  UNL     1      20.772  12.973  14.482  1.00  0.00     0.154 C
BRANCH  16  17
HETATM   17  C1  UNL     1      21.975  13.138  15.380  1.00  0.00     0.249 C
BRANCH  17  18
HETATM   18  N1  UNL     1      21.688  14.174  16.348  1.00  0.00    -0.078 N
ATOM     19  H13 UNL     1      20.780  14.612  16.195  1.00  0.00     0.274 HD
ATOM     20  H12 UNL     1      21.509  13.800  17.279  1.00  0.00     0.274 HD
ATOM     21  H11 UNL     1      22.454  14.849  16.338  1.00  0.00     0.274 HD
ENDBRANCH  17  18
ENDBRANCH  16  17
ENDBRANCH  13  16
ENDBRANCH   1  10
BRANCH   4  22
HETATM   22  N5  UNL     1      21.681   5.474  11.882  1.00  0.00    -0.157 N
HETATM   23  C7  UNL     1      22.767   6.183  11.367  1.00  0.00     0.268 C
HETATM   24  O1  UNL     1      23.027   6.262  10.126  1.00  0.00    -0.270 OA
ATOM     25  H5  UNL     1      21.690   4.462  11.753  1.00  0.00     0.187 HD
BRANCH  23  26
HETATM   26  C8  UNL     1      23.684   6.894  12.299  1.00  0.00     0.298 C
BRANCH  26  27
HETATM   27  N6  UNL     1      24.137   8.149  11.728  1.00  0.00    -0.064 N
ATOM     28  H63 UNL     1      23.662   8.355  10.850  1.00  0.00     0.275 HD
ATOM     29  H62 UNL     1      23.813   8.948  12.271  1.00  0.00     0.275 HD
ATOM     30  H61 UNL     1      25.151   8.155  11.617  1.00  0.00     0.275 HD
ENDBRANCH  26  27
BRANCH  26  31
HETATM   31  C9  UNL     1      24.886   6.042  12.652  1.00  0.00     0.206 C
BRANCH  31  32
HETATM   32  O2  UNL     1      24.730   4.736  12.231  1.00  0.00    -0.398 OA
ATOM     33  H2  UNL     1      25.460   4.190  12.499  1.00  0.00     0.209 HD
ENDBRANCH  31  32
ENDBRANCH  26  31
ENDBRANCH  23  26
ENDBRANCH   4  22
BRANCH   7  34
HETATM   34  N8  UNL     1      17.407   4.735  13.616  1.00  0.00    -0.150 N
HETATM   35  C11 UNL     1      17.450   3.470  12.844  1.00  0.00     0.178 C
HETATM   36  C12 UNL     1      16.495   2.448  13.352  1.00  0.00     0.139 A
HETATM   37  C13 UNL     1      16.994   1.064  13.594  1.00  0.00     0.133 A
HETATM   38  N9  UNL     1      16.356   2.657  14.814  1.00  0.00    -0.252 N
HETATM   39  C14 UNL     1      16.939   1.385  15.057  1.00  0.00     0.240 A
HETATM   40  O3  UNL     1      17.281   0.761  16.113  1.00  0.00    -0.272 OA
HETATM   41  N10 UNL     1      15.764   3.908  15.104  1.00  0.00    -0.268 N
HETATM   42  C15 UNL     1      16.312   4.940  14.486  1.00  0.00     0.224 C
ATOM     43  H10 UNL     1      14.975   4.007  15.743  1.00  0.00     0.190 HD
HETATM   44  N11 UNL     1      15.799   6.237  14.655  1.00  0.00    -0.061 NA
ENDBRANCH   7  34
TORSDOF 10
ENDMDL