MODEL 1
REMARK VINA RESULT: -7.643579704      0.000      0.000
REMARK  9 active torsions:
REMARK  status: ('A' for Active; 'I' for Inactive)
REMARK    1  A    between atoms: C4_8  and  N3_9
REMARK       I    between atoms: N5_18  and  C10_20
REMARK    2  A    between atoms: C10_20  and  C11_22
REMARK    3  A    between atoms: C11_22  and  N6_23
REMARK       I    between atoms: N6_23  and  C12_25
REMARK    4  A    between atoms: C12_25  and  C13_27
REMARK    5  A    between atoms: C13_27  and  N7_28
REMARK    6  A    between atoms: C13_27  and  C14_32
REMARK    7  A    between atoms: C14_32  and  C15_33
REMARK    8  A    between atoms: C15_33  and  N8_34
REMARK    9  A    between atoms: C15_33  and  O4_38
ROOT
HETATM    1  N3  UNL     1      18.869   6.595  11.491  1.00  0.00    -0.170 N
HETATM    2  C5  UNL     1      19.022   7.995  11.814  1.00  0.00     0.176 C
HETATM    3  C6  UNL     1      17.629   8.636  11.735  1.00  0.00     0.253 C
HETATM    4  N4  UNL     1      16.851   8.333  12.895  1.00  0.00    -0.073 N
ATOM      5  H41 UNL     1      16.228   9.109  13.118  1.00  0.00     0.277 HD
ATOM      6  H42 UNL     1      17.438   8.336  13.728  1.00  0.00     0.277 HD
HETATM    7  C7  UNL     1      16.104   7.093  12.805  1.00  0.00     0.240 C
HETATM    8  C8  UNL     1      17.045   5.959  13.180  1.00  0.00     0.104 C
HETATM    9  C9  UNL     1      17.839   5.672  11.956  1.00  0.00     0.104 C
HETATM   10  N5  UNL     1      17.685   4.656  11.254  1.00  0.00    -0.315 N
ATOM     11  H5  UNL     1      18.330   4.665  10.465  1.00  0.00     0.170 HD
HETATM   12  C10 UNL     1      16.908   3.531  11.227  1.00  0.00     0.240 C
HETATM   13  O2  UNL     1      16.980   2.818  10.145  1.00  0.00    -0.271 OA
ENDROOT
BRANCH   1  14
HETATM   14  C4  UNL     1      19.839   6.030  10.605  1.00  0.00     0.688 A
HETATM   15  N2  UNL     1      21.050   5.521  10.929  1.00  0.00    -0.182 N
HETATM   16  C3  UNL     1      21.683   5.084   9.825  1.00  0.00     0.162 A
ATOM     17  H2  UNL     1      21.428   5.475  11.876  1.00  0.00     0.184 HD
HETATM   18  C2  UNL     1      22.902   4.490   9.544  1.00  0.00     0.282 A
HETATM   19  C16 UNL     1      20.855   5.317   8.751  1.00  0.00     0.160 A
HETATM   20  N1  UNL     1      23.293   4.144   8.305  1.00  0.00    -0.269 N
HETATM   21  O1  UNL     1      23.671   4.268  10.513  1.00  0.00    -0.265 OA
HETATM   22  C1  UNL     1      24.580   3.521   8.037  1.00  0.00     0.164 C
HETATM   23  C18 UNL     1      22.449   4.392   7.284  1.00  0.00     0.332 A
HETATM   24  N10 UNL     1      21.259   4.966   7.518  1.00  0.00    -0.287 N
HETATM   25  O5  UNL     1      22.795   4.077   6.121  1.00  0.00    -0.246 OA
HETATM   26  C17 UNL     1      20.390   5.213   6.403  1.00  0.00     0.163 C
HETATM   27  N9  UNL     1      19.738   5.897   9.275  1.00  0.00    -0.173 N
ATOM     28  H9  UNL     1      18.931   6.191   8.726  1.00  0.00     0.186 HD
ENDBRANCH   1  14
BRANCH  12  29
HETATM   29  C11 UNL     1      15.991   2.982  12.232  1.00  0.00     0.225 C
BRANCH  29  30
HETATM   30  N6  UNL     1      16.666   2.361  13.348  1.00  0.00    -0.351 N
HETATM   31  C12 UNL     1      16.191   2.625  14.655  1.00  0.00     0.248 C
HETATM   32  O3  UNL     1      15.204   3.387  14.811  1.00  0.00    -0.271 OA
ATOM     33  H6  UNL     1      17.466   1.746  13.197  1.00  0.00     0.163 HD
BRANCH  31  34
HETATM   34  C13 UNL     1      16.841   2.018  15.864  1.00  0.00     0.278 C
BRANCH  34  35
HETATM   35  N7  UNL     1      18.131   2.633  16.025  1.00  0.00    -0.066 N
ATOM     36  H73 UNL     1      18.730   2.515  15.208  1.00  0.00     0.275 HD
ATOM     37  H72 UNL     1      18.088   3.652  16.015  1.00  0.00     0.275 HD
ATOM     38  H71 UNL     1      18.548   2.262  16.879  1.00  0.00     0.275 HD
ENDBRANCH  34  35
BRANCH  34  39
HETATM   39  C14 UNL     1      15.927   2.279  17.023  1.00  0.00     0.103 C
BRANCH  39  40
HETATM   40  C15 UNL     1      15.077   1.095  17.393  1.00  0.00     0.318 C
BRANCH  40  41
HETATM   41  N8  UNL     1      13.729   1.372  16.877  1.00  0.00    -0.053 N
ATOM     42  H83 UNL     1      13.702   2.144  16.211  1.00  0.00     0.277 HD
ATOM     43  H82 UNL     1      13.381   0.649  16.247  1.00  0.00     0.277 HD
ATOM     44  H81 UNL     1      13.132   1.520  17.691  1.00  0.00     0.277 HD
ENDBRANCH  40  41
BRANCH  40  45
HETATM   45  O4  UNL     1      15.563  -0.056  16.782  1.00  0.00    -0.370 OA
ATOM     46  H4  UNL     1      16.372  -0.331  17.197  1.00  0.00     0.212 HD
ENDBRANCH  40  45
ENDBRANCH  39  40
ENDBRANCH  34  39
ENDBRANCH  31  34
ENDBRANCH  29  30
ENDBRANCH  12  29
TORSDOF 9
ENDMDL