MODEL 4
REMARK VINA RESULT: -6.136016044      0.631      1.073
REMARK  12 active torsions:
REMARK  status: ('A' for Active; 'I' for Inactive)
REMARK    1  A    between atoms: N2_7  and  C3_8
REMARK    2  A    between atoms: C4_10  and  C5_11
REMARK    3  A    between atoms: C4_10  and  C6_14
REMARK    4  A    between atoms: C5_11  and  O4_12
REMARK    5  A    between atoms: C6_14  and  O5_15
REMARK    6  A    between atoms: C8_23  and  C9_24
REMARK    7  A    between atoms: C9_24  and  C10_25
REMARK    8  A    between atoms: C10_25  and  C11_26
REMARK    9  A    between atoms: C11_26  and  N4_27
REMARK   10  A    between atoms: N5_30  and  C14_31
REMARK   11  A    between atoms: C14_31  and  C15_32
REMARK   12  A    between atoms: C15_32  and  O8_33
ROOT
HETATM    1  O1  UNL     1      19.650   5.263  11.960  1.00  0.00    -0.266 OA
HETATM    2  C1  UNL     1      18.791   4.646  12.631  1.00  0.00     0.269 A
HETATM    3  N1  UNL     1      18.338   3.437  12.263  1.00  0.00    -0.274 N
ATOM      4  H1  UNL     1      18.694   2.997  11.415  1.00  0.00     0.173 HD
HETATM    5  C2  UNL     1      17.410   2.802  13.015  1.00  0.00     0.332 A
HETATM    6  O2  UNL     1      17.038   1.660  12.594  1.00  0.00    -0.246 OA
HETATM    7  N2  UNL     1      16.911   3.343  14.136  1.00  0.00    -0.266 N
HETATM    8  C7  UNL     1      17.374   4.555  14.492  1.00  0.00     0.125 A
HETATM    9  C8  UNL     1      18.320   5.267  13.780  1.00  0.00     0.101 A
ENDROOT
BRANCH   7  10
HETATM   10  C3  UNL     1      15.929   2.622  14.884  1.00  0.00     0.380 C
HETATM   11  O3  UNL     1      15.394   3.468  15.860  1.00  0.00    -0.315 OA
HETATM   12  C4  UNL     1      14.837   2.707  16.850  1.00  0.00     0.189 C
HETATM   13  N3  UNL     1      15.884   1.868  17.434  1.00  0.00    -0.279 N
HETATM   14  S1  UNL     1      16.709   1.403  15.963  1.00  0.00     0.276 S
ATOM     15  H3  UNL     1      16.074   1.627  18.406  1.00  0.00     0.175 HD
HETATM   16  O6  UNL     1      16.342   0.016  15.591  1.00  0.00    -0.201 OA
HETATM   17  O7  UNL     1      18.180   1.623  16.064  1.00  0.00    -0.201 OA
BRANCH  12  18
HETATM   18  C5  UNL     1      13.682   1.852  16.395  1.00  0.00     0.228 C
BRANCH  18  19
HETATM   19  O4  UNL     1      13.685   0.704  17.202  1.00  0.00    -0.396 OA
ATOM     20  H4  UNL     1      12.910   0.751  17.749  1.00  0.00     0.209 HD
ENDBRANCH  18  19
ENDBRANCH  12  18
BRANCH  12  21
HETATM   21  C6  UNL     1      14.358   3.617  17.945  1.00  0.00     0.228 C
BRANCH  21  22
HETATM   22  O5  UNL     1      14.682   3.145  19.213  1.00  0.00    -0.396 OA
ATOM     23  H5  UNL     1      13.915   2.931  19.730  1.00  0.00     0.209 HD
ENDBRANCH  21  22
ENDBRANCH  12  21
ENDBRANCH   7  10
BRANCH   9  24
HETATM   24  C9  UNL     1      18.784   6.567  14.188  1.00  0.00    -0.058 C
BRANCH  24  25
HETATM   25  C10 UNL     1      19.161   7.676  14.559  1.00  0.00    -0.070 C
BRANCH  25  26
HETATM   26  C11 UNL     1      19.638   8.977  14.979  1.00  0.00     0.366 C
BRANCH  26  27
HETATM   27  N4  UNL     1      19.705   9.921  13.930  1.00  0.00     0.102 N
HETATM   28  C12 UNL     1      18.448  10.454  13.458  1.00  0.00     0.293 C
HETATM   29  C13 UNL     1      18.743  10.885  12.006  1.00  0.00     0.147 C
HETATM   30  N5  UNL     1      19.680  11.950  12.054  1.00  0.00    -0.407 N
HETATM   31  C16 UNL     1      20.842  11.720  12.862  1.00  0.00     0.147 C
HETATM   32  C17 UNL     1      20.543  11.074  14.198  1.00  0.00     0.293 C
BRANCH  30  33
HETATM   33  C14 UNL     1      19.163  13.275  12.086  1.00  0.00     0.143 C
BRANCH  33  34
HETATM   34  C15 UNL     1      17.909  13.372  11.258  1.00  0.00     0.183 C
BRANCH  34  35
HETATM   35  O8  UNL     1      17.242  14.535  11.645  1.00  0.00    -0.399 OA
ATOM     36  H8  UNL     1      17.184  14.528  12.593  1.00  0.00     0.209 HD
ENDBRANCH  34  35
ENDBRANCH  33  34
ENDBRANCH  30  33
ENDBRANCH  26  27
ENDBRANCH  25  26
ENDBRANCH  24  25
ENDBRANCH   9  24
TORSDOF 12
ENDMDL