MODEL 3
REMARK VINA RESULT: -6.007506186      2.292      4.927
REMARK  10 active torsions:
REMARK  status: ('A' for Active; 'I' for Inactive)
REMARK    1  A    between atoms: C2_3  and  N2_4
REMARK    2  A    between atoms: N2_4  and  N3_6
REMARK    3  A    between atoms: N6_21  and  C9_22
REMARK    4  A    between atoms: C9_22  and  C10_23
REMARK    5  A    between atoms: C10_23  and  C11_24
REMARK    6  A    between atoms: C11_24  and  N7_25
REMARK       I    between atoms: N8_28  and  C14_29
REMARK    7  A    between atoms: C14_29  and  C15_31
REMARK    8  A    between atoms: C15_31  and  O5_32
REMARK    9  A    between atoms: C15_31  and  C16_34
REMARK   10  A    between atoms: C16_34  and  O6_35
ROOT
HETATM    1  C1  UNL     1      19.923   9.052  15.253  1.00  0.00     0.161 C
HETATM    2  N1  UNL     1      19.710   8.820  13.861  1.00  0.00    -0.297 N
HETATM    3  C2  UNL     1      20.770   8.551  13.089  1.00  0.00     0.194 C
HETATM    4  C3  UNL     1      20.744   7.625  12.022  1.00  0.00     0.292 C
HETATM    5  O1  UNL     1      21.828   7.066  11.825  1.00  0.00    -0.264 OA
HETATM    6  N4  UNL     1      19.705   7.307  11.236  1.00  0.00    -0.304 N
ATOM      7  H4  UNL     1      19.961   6.911  10.332  1.00  0.00     0.171 HD
HETATM    8  C4  UNL     1      18.389   7.426  11.443  1.00  0.00     0.147 A
HETATM    9  C5  UNL     1      17.783   8.159  12.462  1.00  0.00     0.152 A
HETATM   10  C6  UNL     1      18.394   8.897  13.481  1.00  0.00     0.280 C
HETATM   11  O2  UNL     1      17.667   9.698  14.099  1.00  0.00    -0.265 OA
HETATM   12  N5  UNL     1      16.444   8.052  12.333  1.00  0.00    -0.296 N
HETATM   13  C7  UNL     1      15.466   8.688  13.223  1.00  0.00     0.161 C
HETATM   14  C8  UNL     1      16.240   7.285  11.280  1.00  0.00     0.330 A
HETATM   15  O3  UNL     1      15.097   6.963  10.853  1.00  0.00    -0.246 OA
HETATM   16  N6  UNL     1      17.403   6.883  10.713  1.00  0.00    -0.283 N
ENDROOT
BRANCH  16  17
HETATM   17  C9  UNL     1      17.583   6.036   9.572  1.00  0.00     0.137 C
BRANCH  17  18
HETATM   18  C10 UNL     1      17.876   4.606   9.851  1.00  0.00     0.050 C
BRANCH  18  19
HETATM   19  C11 UNL     1      16.767   3.813  10.433  1.00  0.00     0.274 C
BRANCH  19  20
HETATM   20  N7  UNL     1      17.094   3.168  11.677  1.00  0.00     0.091 N
HETATM   21  C12 UNL     1      16.643   3.954  12.781  1.00  0.00     0.292 C
HETATM   22  C13 UNL     1      17.172   3.422  14.112  1.00  0.00     0.156 C
HETATM   23  N8  UNL     1      16.978   2.003  14.177  1.00  0.00    -0.347 N
HETATM   24  C14 UNL     1      16.485   1.358  15.342  1.00  0.00     0.250 C
HETATM   25  C17 UNL     1      17.287   1.190  13.024  1.00  0.00     0.156 C
HETATM   26  O4  UNL     1      16.300   0.078  15.323  1.00  0.00    -0.270 OA
HETATM   27  C18 UNL     1      16.771   1.784  11.736  1.00  0.00     0.292 C
BRANCH  24  28
HETATM   28  C15 UNL     1      16.144   1.997  16.616  1.00  0.00     0.233 C
BRANCH  28  29
HETATM   29  O5  UNL     1      15.163   3.002  16.384  1.00  0.00    -0.384 OA
ATOM     30  H5  UNL     1      15.265   3.691  17.030  1.00  0.00     0.210 HD
ENDBRANCH  28  29
BRANCH  28  31
HETATM   31  C16 UNL     1      15.409   1.002  17.529  1.00  0.00     0.205 C
BRANCH  31  32
HETATM   32  O6  UNL     1      14.164   0.655  17.059  1.00  0.00    -0.398 OA
ATOM     33  H6  UNL     1      13.478   0.759  17.708  1.00  0.00     0.209 HD
ENDBRANCH  31  32
ENDBRANCH  28  31
ENDBRANCH  24  28
ENDBRANCH  19  20
ENDBRANCH  18  19
ENDBRANCH  17  18
ENDBRANCH  16  17
BRANCH   3  34
HETATM   34  N2  UNL     1      21.834   9.163  13.302  1.00  0.00    -0.287 N
ATOM     35  H2  UNL     1      22.236   9.037  14.230  1.00  0.00     0.188 HD
BRANCH  34  36
HETATM   36  N3  UNL     1      22.529   9.971  12.472  1.00  0.00    -0.343 N
ATOM     37  H32 UNL     1      22.595   9.632  11.512  1.00  0.00     0.176 HD
ATOM     38  H31 UNL     1      22.987  10.859  12.677  1.00  0.00     0.176 HD
ENDBRANCH  34  36
ENDBRANCH   3  34
TORSDOF 10
ENDMDL