MODEL 1
REMARK VINA RESULT: -8.520450664      0.000      0.000
REMARK  9 active torsions:
REMARK  status: ('A' for Active; 'I' for Inactive)
REMARK    1  A    between atoms: C4_7  and  S1_8
REMARK    2  A    between atoms: S1_8  and  C5_9
REMARK    3  A    between atoms: S1_8  and  N5_23
REMARK    4  A    between atoms: C5_9  and  N3_10
REMARK    5  A    between atoms: C5_9  and  C10_20
REMARK       I    between atoms: N3_10  and  C6_12
REMARK    6  A    between atoms: C6_12  and  C7_14
REMARK    7  A    between atoms: C7_14  and  N4_17
REMARK    8  A    between atoms: N4_17  and  O2_18
REMARK    9  A    between atoms: C13_28  and  N7_29
ROOT
HETATM    1  S1  UNL     1      -2.972   3.167  12.291  1.00  0.00    -0.029 SA
ENDROOT
BRANCH   1   2
HETATM    2  C4  UNL     1      -4.162   3.718  13.415  1.00  0.00     0.110 A
HETATM    3  C3  UNL     1      -4.603   2.897  14.440  1.00  0.00     0.083 A
HETATM    4  N2  UNL     1      -4.114   1.656  14.582  1.00  0.00    -0.349 N
HETATM    5  C18 UNL     1      -5.542   3.364  15.308  1.00  0.00     0.063 A
HETATM    6  C2  UNL     1      -4.570   0.894  15.592  1.00  0.00     0.186 A
ATOM      7  H2  UNL     1      -3.410   1.297  13.936  1.00  0.00     0.166 HD
HETATM    8  N1  UNL     1      -5.493   1.305  16.474  1.00  0.00    -0.314 N
HETATM    9  C1  UNL     1      -5.973   0.469  17.555  1.00  0.00     0.160 C
HETATM   10  C19 UNL     1      -5.981   2.552  16.326  1.00  0.00     0.260 A
HETATM   11  O5  UNL     1      -6.845   3.001  17.115  1.00  0.00    -0.267 OA
HETATM   12  C17 UNL     1      -6.037   4.643  15.152  1.00  0.00     0.036 A
HETATM   13  C16 UNL     1      -5.586   5.446  14.126  1.00  0.00     0.090 A
HETATM   14  N10 UNL     1      -4.659   4.958  13.284  1.00  0.00    -0.358 N
ATOM     15  H10 UNL     1      -4.322   5.548  12.523  1.00  0.00     0.166 HD
ENDBRANCH   1   2
BRANCH   1  16
HETATM   16  C5  UNL     1      -3.661   2.781  10.706  1.00  0.00     0.265 C
BRANCH  16  17
HETATM   17  N3  UNL     1      -4.598   3.763  10.258  1.00  0.00    -0.336 N
HETATM   18  C6  UNL     1      -4.261   4.696   9.244  1.00  0.00     0.245 C
HETATM   19  O1  UNL     1      -3.119   4.681   8.715  1.00  0.00    -0.271 OA
ATOM     20  H3  UNL     1      -5.528   3.794  10.675  1.00  0.00     0.164 HD
BRANCH  18  21
HETATM   21  C7  UNL     1      -5.230   5.727   8.766  1.00  0.00     0.130 C
HETATM   22  C8  UNL     1      -5.937   5.129   7.552  1.00  0.00     0.046 C
HETATM   23  C9  UNL     1      -4.562   7.014   8.404  1.00  0.00     0.046 C
BRANCH  21  24
HETATM   24  N4  UNL     1      -6.241   5.994   9.769  1.00  0.00    -0.084 NA
BRANCH  24  25
HETATM   25  O2  UNL     1      -5.611   6.559  10.827  1.00  0.00    -0.295 OA
ATOM     26  H2  UNL     1      -5.988   6.177  11.611  1.00  0.00     0.238 HD
ENDBRANCH  24  25
ENDBRANCH  21  24
ENDBRANCH  18  21
ENDBRANCH  16  17
BRANCH  16  27
HETATM   27  C10 UNL     1      -4.335   1.463  10.741  1.00  0.00     0.208 C
HETATM   28  O3  UNL     1      -5.264   1.243  11.542  1.00  0.00    -0.646 OA
HETATM   29  O4  UNL     1      -3.939   0.435   9.872  1.00  0.00    -0.646 OA
ENDBRANCH  16  27
ENDBRANCH   1  16
BRANCH   1  30
HETATM   30  N5  UNL     1      -1.589   4.145  12.185  1.00  0.00    -0.266 N
HETATM   31  C11 UNL     1      -1.182   5.042  13.090  1.00  0.00     0.197 A
HETATM   32  N6  UNL     1      -0.031   5.640  12.668  1.00  0.00    -0.345 N
HETATM   33  C12 UNL     1       0.293   5.110  11.474  1.00  0.00     0.122 A
ATOM     34  H6  UNL     1       0.492   6.360  13.167  1.00  0.00     0.167 HD
HETATM   35  C13 UNL     1       1.349   5.328  10.579  1.00  0.00     0.131 A
HETATM   36  C15 UNL     1      -0.698   4.168  11.181  1.00  0.00     0.150 A
HETATM   37  N8  UNL     1       1.409   4.633   9.438  1.00  0.00    -0.337 N
HETATM   38  C14 UNL     1       0.463   3.731   9.155  1.00  0.00     0.183 A
ATOM     39  H8  UNL     1       2.175   4.791   8.785  1.00  0.00     0.168 HD
HETATM   40  N9  UNL     1      -0.565   3.510  10.012  1.00  0.00    -0.336 N
ATOM     41  H9  UNL     1      -1.267   2.814   9.761  1.00  0.00     0.168 HD
BRANCH  35  42
HETATM   42  N7  UNL     1       2.251   6.208  10.880  1.00  0.00    -0.383 N
ATOM     43  H72 UNL     1       2.158   6.801  11.705  1.00  0.00     0.157 HD
ATOM     44  H71 UNL     1       3.066   6.302  10.274  1.00  0.00     0.157 HD
ENDBRANCH  35  42
ENDBRANCH   1  30
TORSDOF 9
ENDMDL