MODEL 2
REMARK VINA RESULT: -7.469318664      0.855      2.178
REMARK  12 active torsions:
REMARK  status: ('A' for Active; 'I' for Inactive)
REMARK    1  A    between atoms: C2_2  and  N1_3
REMARK       I    between atoms: N1_3  and  C3_5
REMARK    2  A    between atoms: C3_5  and  C4_7
REMARK    3  A    between atoms: C4_7  and  O2_8
REMARK    4  A    between atoms: C5_11  and  N2_12
REMARK    5  A    between atoms: C7_16  and  N4_17
REMARK    6  A    between atoms: N4_17  and  C8_19
REMARK    7  A    between atoms: C8_19  and  C9_20
REMARK    8  A    between atoms: C10_21  and  C11_22
REMARK    9  A    between atoms: C11_22  and  O4_23
REMARK   10  A    between atoms: O4_23  and  C12_24
REMARK   11  A    between atoms: C20_42  and  C21_43
REMARK   12  A    between atoms: C21_43  and  O7_44
ROOT
HETATM    1  N2  UNL     1      -3.563   5.312  10.108  1.00  0.00    -0.244 N
HETATM    2  C6  UNL     1      -3.324   6.357  10.917  1.00  0.00     0.210 A
HETATM    3  N3  UNL     1      -4.122   7.457  10.920  1.00  0.00    -0.187 N
ATOM      4  H3  UNL     1      -3.926   8.243  11.540  1.00  0.00     0.185 HD
HETATM    5  C7  UNL     1      -5.191   7.486  10.073  1.00  0.00     0.683 A
HETATM    6  N8  UNL     1      -5.446   6.449   9.257  1.00  0.00    -0.141 N
ATOM      7  H8  UNL     1      -6.246   6.469   8.624  1.00  0.00     0.189 HD
HETATM    8  C19 UNL     1      -4.623   5.378   9.292  1.00  0.00     0.345 A
HETATM    9  O5  UNL     1      -4.869   4.413   8.525  1.00  0.00    -0.246 OA
ENDROOT
BRANCH   5  10
HETATM   10  N4  UNL     1      -5.906   8.552  10.123  1.00  0.00    -0.215 N
ATOM     11  H4  UNL     1      -5.723   9.299   9.453  1.00  0.00     0.178 HD
BRANCH  10  12
HETATM   12  C8  UNL     1      -6.954   8.730  11.088  1.00  0.00     0.232 C
BRANCH  12  13
HETATM   13  C9  UNL     1      -7.022   7.533  11.926  1.00  0.00    -0.084 C
HETATM   14  C10 UNL     1      -7.064   6.524  12.613  1.00  0.00    -0.078 C
BRANCH  14  15
HETATM   15  C11 UNL     1      -7.091   5.308  13.433  1.00  0.00     0.269 C
BRANCH  15  16
HETATM   16  O4  UNL     1      -6.401   5.567  14.624  1.00  0.00    -0.343 OA
BRANCH  16  17
HETATM   17  C12 UNL     1      -5.130   5.058  14.789  1.00  0.00     0.064 A
HETATM   18  C13 UNL     1      -5.004   3.861  15.338  1.00  0.00     0.052 A
HETATM   19  C14 UNL     1      -6.127   3.163  15.725  1.00  0.00     0.106 A
HETATM   20  C16 UNL     1      -3.744   3.317  15.519  1.00  0.00     0.116 A
HETATM   21  N5  UNL     1      -5.964   1.949  16.280  1.00  0.00    -0.361 N
HETATM   22  C15 UNL     1      -4.741   1.400  16.465  1.00  0.00     0.181 A
ATOM     23  H5  UNL     1      -6.789   1.424  16.571  1.00  0.00     0.166 HD
HETATM   24  N6  UNL     1      -3.653   2.090  16.084  1.00  0.00    -0.338 N
ATOM     25  H6  UNL     1      -2.731   1.677  16.223  1.00  0.00     0.168 HD
HETATM   26  N7  UNL     1      -2.704   3.954  15.165  1.00  0.00    -0.375 N
HETATM   27  C17 UNL     1      -2.654   5.250  14.560  1.00  0.00     0.128 A
ATOM     28  H7  UNL     1      -1.809   3.492  15.329  1.00  0.00     0.161 HD
HETATM   29  C18 UNL     1      -3.995   5.886  14.340  1.00  0.00     0.085 A
ENDBRANCH  16  17
ENDBRANCH  15  16
ENDBRANCH  14  15
ENDBRANCH  12  13
ENDBRANCH  10  12
ENDBRANCH   5  10
BRANCH   1  30
HETATM   30  C5  UNL     1      -2.725   4.132  10.091  1.00  0.00     0.386 C
HETATM   31  O3  UNL     1      -3.539   3.038   9.898  1.00  0.00    -0.296 OA
HETATM   32  C4  UNL     1      -3.504   2.285  11.088  1.00  0.00     0.278 C
HETATM   33  C20 UNL     1      -2.096   2.567  11.563  1.00  0.00     0.222 C
HETATM   34  O6  UNL     1      -2.026   3.948  11.257  1.00  0.00    -0.330 OA
BRANCH  32  35
HETATM   35  C3  UNL     1      -3.791   0.869  10.850  1.00  0.00     0.283 C
HETATM   36  N1  UNL     1      -3.828  -0.031  11.942  1.00  0.00    -0.357 N
ATOM     37  H1  UNL     1      -3.656   0.295  12.893  1.00  0.00     0.162 HD
HETATM   38  O1  UNL     1      -4.002   0.465   9.690  1.00  0.00    -0.267 OA
BRANCH  36  39
HETATM   39  C2  UNL     1      -4.113  -1.425  11.676  1.00  0.00     0.118 C
HETATM   40  C1  UNL     1      -2.859  -2.228  11.458  1.00  0.00     0.026 C
ENDBRANCH  36  39
ENDBRANCH  32  35
BRANCH  32  41
HETATM   41  O2  UNL     1      -4.348   2.840  12.061  1.00  0.00    -0.356 OA
ATOM     42  H2  UNL     1      -3.874   3.095  12.843  1.00  0.00     0.213 HD
ENDBRANCH  32  41
BRANCH  33  43
HETATM   43  C21 UNL     1      -1.043   1.832  10.785  1.00  0.00     0.202 C
BRANCH  43  44
HETATM   44  O7  UNL     1       0.039   2.702  10.516  1.00  0.00    -0.398 OA
ATOM     45  H7  UNL     1      -0.283   3.483  10.081  1.00  0.00     0.209 HD
ENDBRANCH  43  44
ENDBRANCH  33  43
ENDBRANCH   1  30
TORSDOF 12
ENDMDL