MODEL 4
REMARK VINA RESULT: -7.393745319      3.105      5.078
REMARK  8 active torsions:
REMARK  status: ('A' for Active; 'I' for Inactive)
REMARK    1  A    between atoms: N1_4  and  C4_5
REMARK    2  A    between atoms: N5_12  and  C5_13
REMARK    3  A    between atoms: C7_15  and  N6_16
REMARK    4  A    between atoms: N7_19  and  C10_20
REMARK    5  A    between atoms: C10_20  and  C11_21
REMARK    6  A    between atoms: C11_21  and  O1_22
REMARK    7  A    between atoms: C14_28  and  N9_29
REMARK    8  A    between atoms: N12_38  and  S1_39
ROOT
HETATM    1  C4  UNL     1      -4.648   2.624  15.306  1.00  0.00     0.727 A
HETATM    2  N2  UNL     1      -4.913   2.173  16.600  1.00  0.00    -0.114 N
ATOM      3  H2  UNL     1      -5.189   2.743  17.400  1.00  0.00     0.207 HD
HETATM    4  N3  UNL     1      -4.737   0.871  16.583  1.00  0.00    -0.213 N
ATOM      5  H3  UNL     1      -4.853   0.241  17.377  1.00  0.00     0.210 HD
HETATM    6  N4  UNL     1      -4.386   0.524  15.371  1.00  0.00    -0.205 N
ATOM      7  H4  UNL     1      -4.186  -0.433  15.080  1.00  0.00     0.211 HD
HETATM    8  N5  UNL     1      -4.325   1.578  14.570  1.00  0.00    -0.052 N
ENDROOT
BRANCH   8   9
HETATM    9  C5  UNL     1      -3.965   1.485  13.200  1.00  0.00     0.166 A
HETATM   10  C6  UNL     1      -2.791   2.118  12.758  1.00  0.00     0.100 A
HETATM   11  C7  UNL     1      -2.372   2.087  11.454  1.00  0.00     0.122 A
HETATM   12  N8  UNL     1      -3.116   1.422  10.557  1.00  0.00    -0.177 N
HETATM   13  C14 UNL     1      -4.258   0.804  10.973  1.00  0.00     0.679 A
ATOM     14  H8  UNL     1      -2.832   1.379   9.579  1.00  0.00     0.185 HD
HETATM   15  N10 UNL     1      -4.647   0.849  12.254  1.00  0.00    -0.174 N
ATOM     16  H10 UNL     1      -5.509   0.371  12.516  1.00  0.00     0.186 HD
BRANCH  11  17
HETATM   17  N6  UNL     1      -1.175   2.781  11.093  1.00  0.00    -0.363 N
HETATM   18  C8  UNL     1      -0.649   2.820   9.770  1.00  0.00     0.154 C
HETATM   19  C9  UNL     1      -0.142   4.232   9.467  1.00  0.00     0.292 C
HETATM   20  N7  UNL     1       0.588   4.804  10.531  1.00  0.00     0.093 N
HETATM   21  C12 UNL     1      -0.189   4.887  11.730  1.00  0.00     0.292 C
HETATM   22  C13 UNL     1      -0.494   3.468  12.200  1.00  0.00     0.154 C
BRANCH  20  23
HETATM   23  C10 UNL     1       1.894   4.347  10.794  1.00  0.00     0.298 C
BRANCH  23  24
HETATM   24  C11 UNL     1       2.748   5.234  11.652  1.00  0.00     0.194 C
BRANCH  24  25
HETATM   25  O1  UNL     1       3.568   4.560  12.531  1.00  0.00    -0.399 OA
ATOM     26  H1  UNL     1       4.065   5.122  13.113  1.00  0.00     0.209 HD
ENDBRANCH  24  25
ENDBRANCH  23  24
ENDBRANCH  20  23
ENDBRANCH  11  17
BRANCH  13  27
HETATM   27  N9  UNL     1      -4.934   0.182  10.095  1.00  0.00    -0.234 N
ATOM     28  H92 UNL     1      -4.482  -0.311   9.325  1.00  0.00     0.174 HD
ATOM     29  H91 UNL     1      -5.949   0.197  10.191  1.00  0.00     0.174 HD
ENDBRANCH  13  27
ENDBRANCH   8   9
BRANCH   1  30
HETATM   30  N1  UNL     1      -4.732   3.982  14.967  1.00  0.00    -0.145 N
HETATM   31  C3  UNL     1      -6.113   4.493  14.910  1.00  0.00     0.172 C
HETATM   32  C2  UNL     1      -6.390   4.772  13.403  1.00  0.00     0.111 C
HETATM   33  C1  UNL     1      -7.386   5.891  13.306  1.00  0.00     0.031 C
HETATM   34  N12 UNL     1      -5.145   5.170  12.843  1.00  0.00    -0.099 NA
HETATM   35  N11 UNL     1      -4.728   6.432  13.245  1.00  0.00    -0.139 NA
HETATM   36  C16 UNL     1      -3.590   6.218  14.164  1.00  0.00     0.233 C
HETATM   37  C15 UNL     1      -3.618   4.777  14.639  1.00  0.00     0.254 C
HETATM   38  O2  UNL     1      -2.491   4.249  14.741  1.00  0.00    -0.271 OA
BRANCH  34  39
HETATM   39  S1  UNL     1      -4.938   4.909  11.185  1.00  0.00     0.201 S
HETATM   40  O3  UNL     1      -3.495   5.070  10.814  1.00  0.00    -0.581 OA
HETATM   41  O4  UNL     1      -5.337   3.485  10.802  1.00  0.00    -0.581 OA
HETATM   42  O5  UNL     1      -5.861   5.963  10.255  1.00  0.00    -0.581 OA
ENDBRANCH  34  39
ENDBRANCH   1  30
TORSDOF 8
ENDMDL