MODEL 3
REMARK VINA RESULT: -7.791311098      6.331      9.680
REMARK  9 active torsions:
REMARK  status: ('A' for Active; 'I' for Inactive)
REMARK    1  A    between atoms: C2_2  and  N1_3
REMARK    2  A    between atoms: C6_10  and  N4_11
REMARK    3  A    between atoms: N5_14  and  C9_15
REMARK    4  A    between atoms: C9_15  and  C10_16
REMARK    5  A    between atoms: C10_16  and  C11_17
REMARK    6  A    between atoms: C11_17  and  N6_18
REMARK    7  A    between atoms: C13_20  and  N7_21
REMARK    8  A    between atoms: C13_20  and  O2_25
REMARK    9  A    between atoms: C14_27  and  N8_28
ROOT
HETATM    1  N4  UNL     1      -4.585   5.258   9.411  1.00  0.00    -0.300 N
HETATM    2  C7  UNL     1      -5.826   5.965   9.168  1.00  0.00     0.178 C
HETATM    3  C8  UNL     1      -6.132   6.062   7.702  1.00  0.00     0.098 C
HETATM    4  N5  UNL     1      -5.654   7.208   7.036  1.00  0.00    -0.272 N
HETATM    5  S1  UNL     1      -4.149   7.805   7.527  1.00  0.00     0.326 S
HETATM    6  O4  UNL     1      -4.249   8.740   8.708  1.00  0.00    -0.182 OA
HETATM    7  O5  UNL     1      -3.529   8.603   6.409  1.00  0.00    -0.182 OA
HETATM    8  N9  UNL     1      -3.077   6.484   7.901  1.00  0.00    -0.240 N
ATOM      9  H9  UNL     1      -2.153   6.486   7.470  1.00  0.00     0.183 HD
HETATM   10  C16 UNL     1      -3.371   5.495   8.690  1.00  0.00     0.207 C
HETATM   11  N10 UNL     1      -2.356   4.517   8.864  1.00  0.00    -0.062 NA
ENDROOT
BRANCH   4  12
HETATM   12  C9  UNL     1      -6.627   8.245   6.809  1.00  0.00     0.143 C
BRANCH  12  13
HETATM   13  C10 UNL     1      -7.683   8.323   7.853  1.00  0.00     0.041 C
BRANCH  13  14
HETATM   14  C11 UNL     1      -7.868   9.757   8.279  1.00  0.00     0.127 C
BRANCH  14  15
HETATM   15  N6  UNL     1      -9.102  10.353   7.876  1.00  0.00    -0.345 N
HETATM   16  C12 UNL     1     -10.311   9.666   7.405  1.00  0.00     0.197 C
HETATM   17  C13 UNL     1     -10.671  10.553   6.222  1.00  0.00     0.275 C
HETATM   18  C14 UNL     1     -10.536  11.935   6.831  1.00  0.00     0.338 C
HETATM   19  C15 UNL     1      -9.446  11.745   7.821  1.00  0.00     0.255 C
HETATM   20  O3  UNL     1      -8.885  12.619   8.518  1.00  0.00    -0.271 OA
BRANCH  17  21
HETATM   21  N7  UNL     1      -9.644  10.366   5.214  1.00  0.00    -0.043 N
ATOM     22  H73 UNL     1      -9.009  11.161   5.139  1.00  0.00     0.278 HD
ATOM     23  H72 UNL     1      -8.950   9.666   5.476  1.00  0.00     0.278 HD
ATOM     24  H71 UNL     1     -10.117  10.149   4.336  1.00  0.00     0.278 HD
ENDBRANCH  17  21
BRANCH  17  25
HETATM   25  O2  UNL     1     -11.948  10.320   5.751  1.00  0.00    -0.362 OA
ATOM     26  H2  UNL     1     -11.977   9.627   5.101  1.00  0.00     0.212 HD
ENDBRANCH  17  25
BRANCH  18  27
HETATM   27  N8  UNL     1     -11.778  12.346   7.453  1.00  0.00    -0.062 N
ATOM     28  H83 UNL     1     -12.285  13.016   6.877  1.00  0.00     0.275 HD
ATOM     29  H82 UNL     1     -12.466  11.592   7.456  1.00  0.00     0.275 HD
ATOM     30  H81 UNL     1     -11.609  12.706   8.393  1.00  0.00     0.275 HD
ENDBRANCH  18  27
ENDBRANCH  14  15
ENDBRANCH  13  14
ENDBRANCH  12  13
ENDBRANCH   4  12
BRANCH   1  31
HETATM   31  C6  UNL     1      -4.558   4.264  10.428  1.00  0.00     0.144 A
HETATM   32  C5  UNL     1      -4.506   4.392  11.792  1.00  0.00     0.184 A
HETATM   33  N3  UNL     1      -4.500   3.146  12.353  1.00  0.00    -0.088 N
HETATM   34  N2  UNL     1      -4.465   2.510  13.511  1.00  0.00    -0.226 N
HETATM   35  C17 UNL     1      -4.547   2.251  11.339  1.00  0.00     0.711 A
HETATM   36  C3  UNL     1      -4.490   1.196  13.236  1.00  0.00     0.358 A
HETATM   37  C4  UNL     1      -4.410   3.126  14.821  1.00  0.00     0.184 C
HETATM   38  N1  UNL     1      -4.540   1.036  11.908  1.00  0.00    -0.130 N
HETATM   39  O1  UNL     1      -4.467   0.289  14.135  1.00  0.00    -0.244 OA
HETATM   40  N11 UNL     1      -4.582   2.942  10.186  1.00  0.00    -0.173 N
ATOM     41  H11 UNL     1      -4.620   2.522   9.258  1.00  0.00     0.186 HD
BRANCH  38  42
HETATM   42  C2  UNL     1      -4.579  -0.219  11.216  1.00  0.00     0.148 C
HETATM   43  C1  UNL     1      -3.216  -0.869  11.114  1.00  0.00     0.027 C
ENDBRANCH  38  42
ENDBRANCH   1  31
TORSDOF 9
ENDMDL