MODEL 4
REMARK VINA RESULT: -7.079780546      1.907      2.297
REMARK  11 active torsions:
REMARK  status: ('A' for Active; 'I' for Inactive)
REMARK    1  A    between atoms: C2_2  and  O1_3
REMARK    2  A    between atoms: C2_2  and  C3_5
REMARK    3  A    between atoms: C5_8  and  N2_9
REMARK    4  A    between atoms: N3_13  and  C9_14
REMARK    5  A    between atoms: C9_14  and  O2_15
REMARK    6  A    between atoms: C12_19  and  N4_20
REMARK    7  A    between atoms: N4_20  and  C13_22
REMARK    8  A    between atoms: C13_22  and  O3_23
REMARK    9  A    between atoms: C13_22  and  C14_25
REMARK   10  A    between atoms: C14_25  and  N5_28
REMARK   11  A    between atoms: C19_33  and  N7_34
ROOT
HETATM    1  N7  UNL     1      -7.015   6.028   7.549  1.00  0.00    -0.126 N
ATOM      2  H7  UNL     1      -7.943   5.640   7.718  1.00  0.00     0.197 HD
HETATM    3  C20 UNL     1      -5.932   5.167   7.223  1.00  0.00     0.196 C
HETATM    4  N8  UNL     1      -5.053   4.457   6.972  1.00  0.00    -0.171 NA
ENDROOT
BRANCH   1   5
HETATM    5  C19 UNL     1      -6.801   7.441   7.639  1.00  0.00     0.686 A
HETATM    6  N5  UNL     1      -6.154   8.244   8.588  1.00  0.00    -0.203 N
HETATM    7  C17 UNL     1      -6.259   9.640   8.123  1.00  0.00     0.162 A
HETATM    8  C18 UNL     1      -7.022   9.551   6.848  1.00  0.00     0.158 A
HETATM    9  N6  UNL     1      -7.291   8.174   6.657  1.00  0.00    -0.224 N
ATOM     10  H6  UNL     1      -7.801   7.795   5.860  1.00  0.00     0.177 HD
BRANCH   6  11
HETATM   11  C14 UNL     1      -5.511   7.810   9.786  1.00  0.00     0.086 C
HETATM   12  C15 UNL     1      -5.245   9.024  10.662  1.00  0.00     0.043 C
HETATM   13  C16 UNL     1      -4.271   7.003   9.570  1.00  0.00     0.043 C
BRANCH  11  14
HETATM   14  C13 UNL     1      -6.463   6.936  10.636  1.00  0.00     0.242 C
BRANCH  14  15
HETATM   15  N4  UNL     1      -5.742   5.794  10.996  1.00  0.00    -0.376 N
ATOM     16  H4  UNL     1      -5.727   5.021  10.331  1.00  0.00     0.157 HD
BRANCH  15  17
HETATM   17  C12 UNL     1      -5.060   5.629  12.161  1.00  0.00     0.242 C
HETATM   18  C11 UNL     1      -5.699   5.457  13.475  1.00  0.00     0.287 C
HETATM   19  N1  UNL     1      -4.560   5.516  14.389  1.00  0.00     0.127 N
HETATM   20  C10 UNL     1      -6.193   4.085  13.784  1.00  0.00     0.040 C
HETATM   21  C3  UNL     1      -3.659   4.429  14.051  1.00  0.00     0.375 C
HETATM   22  C4  UNL     1      -5.261   5.076  15.611  1.00  0.00     0.334 C
HETATM   23  S1  UNL     1      -3.896   4.260  12.268  1.00  0.00     0.202 S
HETATM   24  O4  UNL     1      -2.652   4.529  11.524  1.00  0.00    -0.223 OA
HETATM   25  O5  UNL     1      -4.521   2.960  11.938  1.00  0.00    -0.223 OA
HETATM   26  C5  UNL     1      -5.943   3.839  15.045  1.00  0.00     0.060 C
BRANCH  21  27
HETATM   27  C2  UNL     1      -2.253   4.954  14.328  1.00  0.00     0.162 C
HETATM   28  C1  UNL     1      -2.260   6.433  14.595  1.00  0.00     0.042 C
BRANCH  27  29
HETATM   29  O1  UNL     1      -1.700   4.300  15.432  1.00  0.00    -0.393 OA
ATOM     30  H1  UNL     1      -0.753   4.358  15.379  1.00  0.00     0.210 HD
ENDBRANCH  27  29
ENDBRANCH  21  27
BRANCH  26  31
HETATM   31  N2  UNL     1      -6.170   2.685  15.876  1.00  0.00    -0.267 N
HETATM   32  C6  UNL     1      -7.293   2.530  16.634  1.00  0.00     0.118 A
HETATM   33  C7  UNL     1      -7.226   1.342  17.314  1.00  0.00     0.038 A
HETATM   34  C8  UNL     1      -6.038   0.770  16.961  1.00  0.00     0.114 A
HETATM   35  N3  UNL     1      -5.438   1.618  16.094  1.00  0.00    -0.274 N
BRANCH  35  36
HETATM   36  C9  UNL     1      -4.134   1.335  15.541  1.00  0.00     0.313 C
BRANCH  36  37
HETATM   37  O2  UNL     1      -3.083   1.749  16.348  1.00  0.00    -0.380 OA
ATOM     38  H2  UNL     1      -2.293   1.964  15.867  1.00  0.00     0.211 HD
ENDBRANCH  36  37
ENDBRANCH  35  36
ENDBRANCH  26  31
ENDBRANCH  15  17
ENDBRANCH  14  15
BRANCH  14  39
HETATM   39  O3  UNL     1      -6.748   7.817  11.714  1.00  0.00    -0.375 OA
ATOM     40  H3  UNL     1      -7.257   8.582  11.473  1.00  0.00     0.212 HD
ENDBRANCH  14  39
ENDBRANCH  11  14
ENDBRANCH   6  11
ENDBRANCH   1   5
TORSDOF 11
ENDMDL