MODEL 1
REMARK VINA RESULT: -7.175288661      0.000      0.000
REMARK  8 active torsions:
REMARK  status: ('A' for Active; 'I' for Inactive)
REMARK    1  A    between atoms: C2_2  and  N1_3
REMARK    2  A    between atoms: C6_11  and  N3_12
REMARK    3  A    between atoms: N4_14  and  N5_15
REMARK       I    between atoms: N5_15  and  C8_17
REMARK    4  A    between atoms: C8_17  and  C9_19
REMARK    5  A    between atoms: N6_20  and  O4_22
REMARK    6  A    between atoms: C10_24  and  N7_25
REMARK    7  A    between atoms: N8_28  and  C13_29
REMARK    8  A    between atoms: C13_29  and  N9_30
ROOT
HETATM    1  N1  UNL     1      -5.290   3.676  13.088  1.00  0.00    -0.284 N
HETATM    2  C3  UNL     1      -4.650   2.649  13.664  1.00  0.00     0.331 A
HETATM    3  O1  UNL     1      -5.177   2.155  14.690  1.00  0.00    -0.246 OA
HETATM    4  N2  UNL     1      -3.507   2.139  13.209  1.00  0.00    -0.274 N
ATOM      5  H2  UNL     1      -3.058   1.356  13.684  1.00  0.00     0.173 HD
HETATM    6  C4  UNL     1      -2.950   2.693  12.089  1.00  0.00     0.268 A
HETATM    7  O2  UNL     1      -1.881   2.251  11.625  1.00  0.00    -0.267 OA
HETATM    8  C5  UNL     1      -3.580   3.750  11.472  1.00  0.00     0.137 A
HETATM    9  C6  UNL     1      -3.005   4.324  10.313  1.00  0.00     0.235 A
HETATM   10  N4  UNL     1      -3.669   5.348   9.746  1.00  0.00    -0.053 N
HETATM   11  C10 UNL     1      -4.846   5.845  10.254  1.00  0.00     0.706 A
HETATM   12  N11 UNL     1      -5.342   5.264  11.358  1.00  0.00    -0.173 N
ATOM     13  H11 UNL     1      -6.215   5.627  11.740  1.00  0.00     0.186 HD
HETATM   14  C20 UNL     1      -4.762   4.240  11.982  1.00  0.00     0.148 A
ENDROOT
BRANCH  11  15
HETATM   15  N7  UNL     1      -5.534   6.946   9.649  1.00  0.00    -0.212 N
HETATM   16  C11 UNL     1      -6.604   6.620   8.763  1.00  0.00     0.171 C
HETATM   17  C12 UNL     1      -6.701   7.560   7.619  1.00  0.00     0.295 C
HETATM   18  N8  UNL     1      -6.572   8.915   7.999  1.00  0.00     0.119 N
HETATM   19  C18 UNL     1      -5.335   9.154   8.723  1.00  0.00     0.295 C
HETATM   20  C19 UNL     1      -5.223   8.312   9.943  1.00  0.00     0.171 C
BRANCH  18  21
HETATM   21  C13 UNL     1      -7.686   9.573   8.569  1.00  0.00     0.542 C
BRANCH  21  22
HETATM   22  N9  UNL     1      -8.614   9.948   7.488  1.00  0.00     0.119 N
HETATM   23  C14 UNL     1      -8.692  11.393   7.408  1.00  0.00     0.302 C
HETATM   24  C15 UNL     1      -9.747  11.986   8.316  1.00  0.00     0.262 C
HETATM   25  N10 UNL     1     -11.075  11.495   7.960  1.00  0.00    -0.072 N
HETATM   26  C16 UNL     1     -10.958  10.287   7.139  1.00  0.00     0.262 C
ATOM     27 2H10 UNL     1     -11.661  11.344   8.782  1.00  0.00     0.277 HD
ATOM     28 1H10 UNL     1     -11.640  12.213   7.506  1.00  0.00     0.277 HD
HETATM   29  C17 UNL     1      -9.929   9.383   7.768  1.00  0.00     0.302 C
ENDBRANCH  21  22
ENDBRANCH  18  21
ENDBRANCH  11  15
BRANCH  10  30
HETATM   30  N5  UNL     1      -3.294   5.787   8.479  1.00  0.00    -0.241 N
HETATM   31  C8  UNL     1      -3.680   5.189   7.271  1.00  0.00     0.278 C
HETATM   32  O3  UNL     1      -4.503   4.191   7.258  1.00  0.00    -0.265 OA
ATOM     33  H5  UNL     1      -2.691   6.609   8.426  1.00  0.00     0.191 HD
BRANCH  31  34
HETATM   34  C9  UNL     1      -3.201   5.615   5.953  1.00  0.00     0.189 C
HETATM   35  N6  UNL     1      -3.029   6.783   5.564  1.00  0.00    -0.275 N
ATOM     36  H6  UNL     1      -2.689   6.822   4.603  1.00  0.00     0.193 HD
BRANCH  35  37
HETATM   37  O4  UNL     1      -3.177   7.978   6.085  1.00  0.00    -0.290 OA
ATOM     38  H4  UNL     1      -3.248   8.863   5.747  1.00  0.00     0.244 HD
ENDBRANCH  35  37
ENDBRANCH  31  34
ENDBRANCH  10  30
BRANCH   9  39
HETATM   39  N3  UNL     1      -1.878   3.954  10.027  1.00  0.00    -0.407 NA
HETATM   40  C7  UNL     1      -0.625   3.969   9.527  1.00  0.00     0.231 C
ENDBRANCH   9  39
BRANCH   1  41
HETATM   41  C2  UNL     1      -6.535   4.200  13.588  1.00  0.00     0.131 C
HETATM   42  C1  UNL     1      -6.212   5.238  14.647  1.00  0.00     0.027 C
ENDBRANCH   1  41
TORSDOF 8
ENDMDL