MODEL 3
REMARK VINA RESULT: -8.659181315      3.923      5.868
REMARK  9 active torsions:
REMARK  status: ('A' for Active; 'I' for Inactive)
REMARK    1  A    between atoms: N2_7  and  C4_8
REMARK    2  A    between atoms: C4_8  and  C5_9
REMARK    3  A    between atoms: C8_12  and  N3_13
REMARK    4  A    between atoms: C11_22  and  C12_23
REMARK       I    between atoms: C12_23  and  N6_25
REMARK    5  A    between atoms: N6_25  and  C13_27
REMARK    6  A    between atoms: C13_27  and  C14_28
REMARK    7  A    between atoms: C15_29  and  C16_30
REMARK    8  A    between atoms: C16_30  and  N7_31
REMARK    9  A    between atoms: N7_31  and  C17_33
ROOT
HETATM    1  O1  UNL     1      -3.644   1.358  10.091  1.00  0.00    -0.271 OA
HETATM    2  C1  UNL     1      -3.513   2.456  10.601  1.00  0.00     0.241 C
HETATM    3  C2  UNL     1      -4.753   3.309  10.640  1.00  0.00     0.257 C
HETATM    4  N1  UNL     1      -4.660   4.065  11.884  1.00  0.00    -0.227 N
HETATM    5  C3  UNL     1      -5.585   4.001  12.833  1.00  0.00     0.348 A
HETATM    6  O2  UNL     1      -6.674   3.364  12.882  1.00  0.00    -0.245 OA
HETATM    7  N2  UNL     1      -5.190   4.793  13.874  1.00  0.00    -0.243 N
HETATM    8  C9  UNL     1      -4.015   5.313  13.493  1.00  0.00     0.348 A
HETATM    9  O5  UNL     1      -3.298   6.110  14.169  1.00  0.00    -0.245 OA
HETATM   10  N5  UNL     1      -3.683   4.855  12.246  1.00  0.00    -0.233 N
HETATM   11  C10 UNL     1      -2.440   5.271  11.577  1.00  0.00     0.197 C
HETATM   12  C11 UNL     1      -1.672   4.162  10.953  1.00  0.00     0.150 A
HETATM   13  C20 UNL     1      -0.944   3.163  11.714  1.00  0.00     0.170 A
HETATM   14  N10 UNL     1      -2.270   2.866  11.113  1.00  0.00    -0.326 N
ENDROOT
BRANCH  12  15
HETATM   15  C12 UNL     1      -1.106   4.433   9.581  1.00  0.00     0.250 C
HETATM   16  O6  UNL     1      -0.507   3.501   8.980  1.00  0.00    -0.271 OA
HETATM   17  N6  UNL     1      -1.210   5.664   8.914  1.00  0.00    -0.348 N
ATOM     18  H6  UNL     1      -1.686   6.432   9.389  1.00  0.00     0.163 HD
BRANCH  17  19
HETATM   19  C13 UNL     1      -0.685   5.898   7.606  1.00  0.00     0.217 C
BRANCH  19  20
HETATM   20  C14 UNL     1      -1.652   6.452   6.675  1.00  0.00    -0.085 C
HETATM   21  C15 UNL     1      -2.475   6.914   5.928  1.00  0.00    -0.085 C
BRANCH  21  22
HETATM   22  C16 UNL     1      -3.492   7.484   5.049  1.00  0.00     0.217 C
BRANCH  22  23
HETATM   23  N7  UNL     1      -4.604   8.069   5.739  1.00  0.00    -0.352 N
ATOM     24  H7  UNL     1      -4.820   9.059   5.623  1.00  0.00     0.163 HD
BRANCH  23  25
HETATM   25  C17 UNL     1      -5.411   7.242   6.598  1.00  0.00     0.171 C
HETATM   26  N8  UNL     1      -6.079   6.198   6.256  1.00  0.00    -0.361 N
HETATM   27  C18 UNL     1      -6.783   5.599   7.360  1.00  0.00     0.142 C
ATOM     28  H8  UNL     1      -6.107   5.833   5.304  1.00  0.00     0.162 HD
HETATM   29  C19 UNL     1      -6.793   6.726   8.398  1.00  0.00     0.142 C
HETATM   30  N9  UNL     1      -5.602   7.441   7.993  1.00  0.00    -0.361 N
ATOM     31  H9  UNL     1      -5.002   7.995   8.604  1.00  0.00     0.162 HD
ENDBRANCH  23  25
ENDBRANCH  22  23
ENDBRANCH  21  22
ENDBRANCH  19  20
ENDBRANCH  17  19
ENDBRANCH  12  15
BRANCH   7  32
HETATM   32  C4  UNL     1      -5.871   5.027  15.120  1.00  0.00     0.195 C
BRANCH  32  33
HETATM   33  C5  UNL     1      -6.056   3.790  15.909  1.00  0.00     0.029 A
HETATM   34  C6  UNL     1      -6.792   3.622  17.048  1.00  0.00     0.030 A
HETATM   35  C7  UNL     1      -6.709   2.314  17.471  1.00  0.00     0.057 A
HETATM   36  C8  UNL     1      -5.892   1.664  16.555  1.00  0.00     0.174 A
HETATM   37  N4  UNL     1      -5.527   2.588  15.640  1.00  0.00    -0.340 N
ATOM     38  H4  UNL     1      -4.923   2.396  14.841  1.00  0.00     0.167 HD
BRANCH  36  39
HETATM   39  N3  UNL     1      -5.555   0.291  16.616  1.00  0.00    -0.098 N
HETATM   40  O3  UNL     1      -5.916  -0.385  17.587  1.00  0.00    -0.531 OA
HETATM   41  O4  UNL     1      -4.841  -0.319  15.619  1.00  0.00    -0.531 OA
ENDBRANCH  36  39
ENDBRANCH  32  33
ENDBRANCH   7  32
TORSDOF 9
ENDMDL