MODEL 3
REMARK VINA RESULT: -8.540004201      3.380      7.774
REMARK  5 active torsions:
REMARK  status: ('A' for Active; 'I' for Inactive)
REMARK    1  A    between atoms: N1_2  and  C2_5
REMARK    2  A    between atoms: C4_8  and  C5_9
REMARK    3  A    between atoms: C5_9  and  N2_10
REMARK    4  A    between atoms: C9_16  and  C10_17
REMARK    5  A    between atoms: C11_22  and  C12_23
ROOT
HETATM    1  C2  UNL     1      -0.842   5.398  11.855  1.00  0.00     0.249 C
HETATM    2  C3  UNL     1      -1.395   6.584  12.528  1.00  0.00     0.211 C
HETATM    3  O1  UNL     1      -2.247   7.416  11.739  1.00  0.00    -0.349 OA
HETATM    4  C4  UNL     1      -3.623   7.182  11.385  1.00  0.00     0.100 C
HETATM    5  C9  UNL     1      -4.233   6.007  11.161  1.00  0.00     0.163 C
HETATM    6  N4  UNL     1      -3.682   4.663  11.211  1.00  0.00    -0.214 N
HETATM    7  N5  UNL     1      -4.619   3.956  11.980  1.00  0.00    -0.091 NA
HETATM    8  C11 UNL     1      -3.617   3.188  12.828  1.00  0.00     0.349 C
HETATM    9  N10 UNL     1      -2.468   4.008  13.126  1.00  0.00    -0.035 N
ATOM     10 1H10 UNL     1      -2.002   3.691  13.976  1.00  0.00     0.280 HD
ATOM     11 2H10 UNL     1      -2.752   4.939  13.433  1.00  0.00     0.280 HD
HETATM   12  C17 UNL     1      -1.527   4.086  12.008  1.00  0.00     0.314 C
HETATM   13  C18 UNL     1      -2.512   3.991  10.811  1.00  0.00     0.273 C
HETATM   14  O5  UNL     1      -2.149   3.392   9.785  1.00  0.00    -0.269 OA
ENDROOT
BRANCH   8  15
HETATM   15  C12 UNL     1      -4.298   2.605  13.969  1.00  0.00     0.065 A
HETATM   16  C13 UNL     1      -5.131   3.290  14.818  1.00  0.00     0.079 A
HETATM   17  C14 UNL     1      -5.751   2.680  15.894  1.00  0.00     0.135 A
HETATM   18  N6  UNL     1      -6.584   3.104  16.846  1.00  0.00    -0.336 N
HETATM   19  N8  UNL     1      -5.527   1.379  16.108  1.00  0.00    -0.188 N
HETATM   20  C15 UNL     1      -6.888   2.080  17.662  1.00  0.00     0.199 A
ATOM     21  H6  UNL     1      -6.935   4.057  16.940  1.00  0.00     0.168 HD
HETATM   22  N7  UNL     1      -6.217   1.024  17.176  1.00  0.00    -0.284 N
ATOM     23  H7  UNL     1      -6.236   0.085  17.574  1.00  0.00     0.188 HD
HETATM   24  C16 UNL     1      -4.701   0.678  15.274  1.00  0.00     0.347 A
HETATM   25  O4  UNL     1      -4.549  -0.539  15.551  1.00  0.00    -0.245 OA
HETATM   26  N9  UNL     1      -4.113   1.288  14.242  1.00  0.00    -0.307 N
ATOM     27  H9  UNL     1      -3.501   0.742  13.635  1.00  0.00     0.170 HD
ENDBRANCH   8  15
BRANCH   5  28
HETATM   28  C10 UNL     1      -5.590   6.001  10.833  1.00  0.00     0.231 C
HETATM   29  O2  UNL     1      -6.650   6.180  11.481  1.00  0.00    -0.643 OA
HETATM   30  O3  UNL     1      -5.953   5.741   9.458  1.00  0.00    -0.643 OA
ENDBRANCH   5  28
BRANCH   1  31
HETATM   31  N1  UNL     1       0.538   5.197  12.328  1.00  0.00    -0.070 N
HETATM   32  C1  UNL     1       1.415   4.752  11.278  1.00  0.00     0.267 C
ATOM     33  H12 UNL     1       0.566   4.561  13.125  1.00  0.00     0.277 HD
ATOM     34  H11 UNL     1       0.899   6.038  12.778  1.00  0.00     0.277 HD
ENDBRANCH   1  31
BRANCH   4  35
HETATM   35  C5  UNL     1      -4.382   8.372  11.268  1.00  0.00     0.195 C
BRANCH  35  36
HETATM   36  N2  UNL     1      -3.872   9.170  10.088  1.00  0.00    -0.352 N
HETATM   37  C6  UNL     1      -3.327  10.381  10.297  1.00  0.00     0.142 A
HETATM   38  S1  UNL     1      -2.892  10.895   8.737  1.00  0.00    -0.069 SA
HETATM   39  C7  UNL     1      -3.427   9.532   7.868  1.00  0.00     0.103 A
HETATM   40  N3  UNL     1      -3.380   9.257   6.447  1.00  0.00    -0.093 NA
HETATM   41  C8  UNL     1      -3.927   8.733   8.867  1.00  0.00     0.125 A
ENDBRANCH  35  36
ENDBRANCH   4  35
TORSDOF 5
ENDMDL