MODEL 2
REMARK VINA RESULT: -7.887565821      2.382      6.816
REMARK  10 active torsions:
REMARK  status: ('A' for Active; 'I' for Inactive)
REMARK    1  A    between atoms: C3_3  and  N1_4
REMARK    2  A    between atoms: C5_7  and  N2_8
REMARK    3  A    between atoms: N2_8  and  C7_11
REMARK    4  A    between atoms: C8_14  and  N5_15
REMARK    5  A    between atoms: N5_15  and  C9_16
REMARK    6  A    between atoms: C13_23  and  C14_24
REMARK    7  A    between atoms: C14_24  and  C15_25
REMARK    8  A    between atoms: C17_32  and  O3_33
REMARK    9  A    between atoms: C20_40  and  C21_41
REMARK   10  A    between atoms: C21_41  and  O5_42
ROOT
HETATM    1  C1  UNL     1      -1.841   1.569  11.202  1.00  0.00     0.014 C
HETATM    2  C2  UNL     1      -2.812   1.350  11.881  1.00  0.00    -0.098 C
HETATM    3  C3  UNL     1      -4.002   1.062  12.703  1.00  0.00     0.222 C
ENDROOT
BRANCH   3   4
HETATM    4  N1  UNL     1      -4.576   2.250  13.268  1.00  0.00    -0.311 N
HETATM    5  C4  UNL     1      -5.535   3.055  12.585  1.00  0.00     0.249 C
HETATM    6  O1  UNL     1      -5.607   2.896  11.325  1.00  0.00    -0.271 OA
HETATM    7  C5  UNL     1      -6.416   4.031  13.276  1.00  0.00     0.235 C
HETATM    8  C19 UNL     1      -6.134   3.917  14.771  1.00  0.00     0.207 C
HETATM    9  O4  UNL     1      -4.788   3.824  15.007  1.00  0.00    -0.362 OA
HETATM   10  C20 UNL     1      -4.176   2.671  14.586  1.00  0.00     0.250 C
BRANCH   7  11
HETATM   11  N2  UNL     1      -6.094   5.391  12.891  1.00  0.00    -0.101 N
HETATM   12  C6  UNL     1      -7.147   6.311  12.850  1.00  0.00     0.200 C
HETATM   13  N3  UNL     1      -8.020   7.100  12.809  1.00  0.00    -0.171 NA
BRANCH  11  14
HETATM   14  C7  UNL     1      -4.745   5.788  12.561  1.00  0.00     0.699 A
HETATM   15  N4  UNL     1      -3.993   6.436  13.446  1.00  0.00    -0.146 N
HETATM   16  C8  UNL     1      -2.704   6.849  13.210  1.00  0.00     0.292 A
ATOM     17  H4  UNL     1      -4.400   6.641  14.359  1.00  0.00     0.188 HD
HETATM   18  N6  UNL     1      -2.222   6.541  11.964  1.00  0.00    -0.195 N
HETATM   19  N7  UNL     1      -1.051   6.776  11.402  1.00  0.00    -0.299 N
HETATM   20  C18 UNL     1      -2.972   5.886  11.063  1.00  0.00     0.158 A
HETATM   21  C12 UNL     1      -1.025   6.286  10.149  1.00  0.00     0.123 A
ATOM     22  H7  UNL     1      -0.276   7.260  11.854  1.00  0.00     0.186 HD
HETATM   23  C13 UNL     1      -2.243   5.702   9.886  1.00  0.00     0.030 A
HETATM   24  N10 UNL     1      -4.212   5.519  11.363  1.00  0.00    -0.173 N
ATOM     25  H10 UNL     1      -4.770   5.024  10.667  1.00  0.00     0.186 HD
BRANCH  16  26
HETATM   26  N5  UNL     1      -2.017   7.431  13.993  1.00  0.00    -0.408 NA
BRANCH  26  27
HETATM   27  C9  UNL     1      -1.170   8.228  14.666  1.00  0.00     0.167 A
HETATM   28  C10 UNL     1      -1.476   8.940  15.962  1.00  0.00     0.042 A
HETATM   29  C11 UNL     1      -1.520   9.738  14.735  1.00  0.00     0.042 A
ENDBRANCH  26  27
ENDBRANCH  16  26
BRANCH  23  30
HETATM   30  C14 UNL     1      -2.654   5.102   8.787  1.00  0.00     0.051 C
BRANCH  30  31
HETATM   31  C15 UNL     1      -3.717   5.577   7.948  1.00  0.00     0.088 A
HETATM   32  N8  UNL     1      -3.593   6.468   6.951  1.00  0.00    -0.305 N
HETATM   33  C16 UNL     1      -4.795   6.682   6.377  1.00  0.00     0.326 A
ATOM     34  H8  UNL     1      -2.722   6.916   6.670  1.00  0.00     0.171 HD
HETATM   35  O2  UNL     1      -5.054   7.450   5.416  1.00  0.00    -0.247 OA
HETATM   36  N9  UNL     1      -5.709   5.923   7.007  1.00  0.00    -0.287 N
HETATM   37  C17 UNL     1      -5.051   5.232   7.985  1.00  0.00     0.171 A
ATOM     38  H9  UNL     1      -6.705   5.873   6.795  1.00  0.00     0.172 HD
BRANCH  37  39
HETATM   39  O3  UNL     1      -5.685   4.342   8.845  1.00  0.00    -0.344 OA
ATOM     40  H3  UNL     1      -6.489   3.858   8.700  1.00  0.00     0.219 HD
ENDBRANCH  37  39
ENDBRANCH  30  31
ENDBRANCH  23  30
ENDBRANCH  11  14
ENDBRANCH   7  11
BRANCH  10  41
HETATM   41  C21 UNL     1      -4.294   1.577  15.625  1.00  0.00     0.217 C
BRANCH  41  42
HETATM   42  O5  UNL     1      -3.203   1.470  16.445  1.00  0.00    -0.397 OA
ATOM     43  H5  UNL     1      -3.248   0.740  17.052  1.00  0.00     0.209 HD
ENDBRANCH  41  42
ENDBRANCH  10  41
ENDBRANCH   3   4
TORSDOF 10
ENDMDL