MODEL 1
REMARK VINA RESULT: -8.273368775      0.000      0.000
REMARK  7 active torsions:
REMARK  status: ('A' for Active; 'I' for Inactive)
REMARK    1  A    between atoms: C10_19  and  O5_20
REMARK    2  A    between atoms: N3_22  and  O6_23
REMARK    3  A    between atoms: O6_23  and  S1_24
REMARK    4  A    between atoms: S1_24  and  N4_26
REMARK    5  A    between atoms: N4_26  and  C11_28
REMARK    6  A    between atoms: C11_28  and  C12_29
REMARK    7  A    between atoms: C12_29  and  N5_30
REMARK       I    between atoms: N6_33  and  C15_34
ROOT
HETATM    1  N1  UNL     1      -3.090   6.776  10.491  1.00  0.00    -0.233 N
ATOM      2  H11 UNL     1      -3.957   6.298  10.244  1.00  0.00     0.174 HD
ATOM      3  H12 UNL     1      -2.939   7.781  10.403  1.00  0.00     0.174 HD
HETATM    4  C1  UNL     1      -2.093   6.056  10.953  1.00  0.00     0.699 C
HETATM    5  N2  UNL     1      -0.877   6.726  11.299  1.00  0.00    -0.223 N
ATOM      6  H2  UNL     1      -0.545   7.463  10.677  1.00  0.00     0.177 HD
HETATM    7  C2  UNL     1      -0.093   6.429  12.466  1.00  0.00     0.164 C
HETATM    8  C3  UNL     1       1.275   7.052  12.300  1.00  0.00     0.188 C
HETATM    9  O1  UNL     1       1.685   6.798  10.996  1.00  0.00    -0.387 OA
HETATM   10  C4  UNL     1       2.424   7.806  10.432  1.00  0.00     0.193 C
HETATM   11  C5  UNL     1       3.768   7.234  10.021  1.00  0.00     0.193 C
HETATM   12  O2  UNL     1       3.659   5.849   9.911  1.00  0.00    -0.387 OA
HETATM   13  C6  UNL     1       4.042   5.437   8.651  1.00  0.00     0.193 C
HETATM   14  C7  UNL     1       4.093   3.947   8.541  1.00  0.00     0.193 C
HETATM   15  O3  UNL     1       3.119   3.294   9.283  1.00  0.00    -0.387 OA
HETATM   16  C8  UNL     1       1.835   3.679   8.940  1.00  0.00     0.194 C
HETATM   17  C9  UNL     1       0.869   3.362  10.079  1.00  0.00     0.199 C
HETATM   18  O4  UNL     1      -0.240   4.157  10.064  1.00  0.00    -0.340 OA
HETATM   19  C10 UNL     1      -1.352   3.637  10.660  1.00  0.00     0.416 C
HETATM   20  N3  UNL     1      -2.303   4.664  11.074  1.00  0.00    -0.018 N
ENDROOT
BRANCH  20  21
HETATM   21  O6  UNL     1      -3.490   4.239  11.617  1.00  0.00    -0.133 OA
BRANCH  21  22
HETATM   22  S1  UNL     1      -4.437   3.443  10.459  1.00  0.00     0.282 S
HETATM   23  O7  UNL     1      -4.332   4.093   9.105  1.00  0.00    -0.203 OA
BRANCH  22  24
HETATM   24  N4  UNL     1      -4.025   1.759  10.455  1.00  0.00    -0.315 N
ATOM     25  H4  UNL     1      -3.248   1.361   9.928  1.00  0.00     0.172 HD
BRANCH  24  26
HETATM   26  C11 UNL     1      -4.909   0.999  11.280  1.00  0.00     0.149 C
BRANCH  26  27
HETATM   27  C12 UNL     1      -4.217   0.268  12.392  1.00  0.00     0.144 C
BRANCH  27  28
HETATM   28  N5  UNL     1      -4.754   0.724  13.661  1.00  0.00    -0.159 NA
HETATM   29  C13 UNL     1      -3.877   1.832  14.079  1.00  0.00     0.146 C
HETATM   30  C14 UNL     1      -4.527   2.379  15.359  1.00  0.00     0.181 C
HETATM   31  N6  UNL     1      -5.136   1.231  15.973  1.00  0.00    -0.175 N
HETATM   32  C15 UNL     1      -6.297   1.373  16.759  1.00  0.00     0.356 C
HETATM   33  O9  UNL     1      -4.574   0.034  15.777  1.00  0.00    -0.087 OA
HETATM   34  N7  UNL     1      -6.955   0.289  17.396  1.00  0.00    -0.038 NA
HETATM   35  O8  UNL     1      -6.843   2.509  16.954  1.00  0.00    -0.248 OA
HETATM   36  O10 UNL     1      -4.742  -0.292  14.517  1.00  0.00    -0.115 OA
ENDBRANCH  27  28
ENDBRANCH  26  27
ENDBRANCH  24  26
ENDBRANCH  22  24
ENDBRANCH  21  22
ENDBRANCH  20  21
BRANCH  19  37
HETATM   37  O5  UNL     1      -1.091   2.829  11.762  1.00  0.00    -0.352 OA
ATOM     38  H5  UNL     1      -1.276   3.235  12.601  1.00  0.00     0.214 HD
ENDBRANCH  19  37
TORSDOF 7
ENDMDL