MODEL 3
REMARK VINA RESULT: -7.780349256      2.607      4.226
REMARK  9 active torsions:
REMARK  status: ('A' for Active; 'I' for Inactive)
REMARK    1  A    between atoms: C2_2  and  C3_3
REMARK    2  A    between atoms: C3_3  and  N1_5
REMARK    3  A    between atoms: C6_7  and  C7_8
REMARK    4  A    between atoms: C7_8  and  C8_9
REMARK    5  A    between atoms: C9_10  and  C10_11
REMARK    6  A    between atoms: C11_14  and  C12_15
REMARK    7  A    between atoms: N5_26  and  O4_27
REMARK    8  A    between atoms: N6_31  and  N7_32
REMARK    9  A    between atoms: C18_41  and  O6_42
ROOT
HETATM    1  C8  UNL     1       1.255   4.922  81.760  1.00  0.00     0.078 A
HETATM    2  C9  UNL     1       0.854   4.787  83.184  1.00  0.00     0.087 A
HETATM    3  C11 UNL     1      -0.219   4.001  83.258  1.00  0.00     0.082 A
HETATM    4  C16 UNL     1      -0.577   3.580  81.926  1.00  0.00     0.280 A
HETATM    5  O5  UNL     1      -1.542   2.827  81.596  1.00  0.00    -0.265 OA
HETATM    6  N6  UNL     1       0.345   4.154  80.978  1.00  0.00    -0.225 N
ENDROOT
BRANCH   1   7
HETATM    7  C7  UNL     1       2.273   5.601  81.263  1.00  0.00     0.049 C
BRANCH   7   8
HETATM    8  C6  UNL     1       2.319   7.037  81.024  1.00  0.00     0.025 A
HETATM    9  C5  UNL     1       2.420   7.863  82.114  1.00  0.00     0.110 A
HETATM   10  N1  UNL     1       2.420   9.195  81.935  1.00  0.00    -0.318 N
HETATM   11  C18 UNL     1       2.323   9.719  80.681  1.00  0.00     0.225 A
HETATM   12  N9  UNL     1       2.223   8.926  79.601  1.00  0.00    -0.308 N
HETATM   13  C17 UNL     1       2.221   7.601  79.782  1.00  0.00     0.113 A
ATOM     14  H9  UNL     1       2.150   9.325  78.666  1.00  0.00     0.171 HD
HETATM   15  N8  UNL     1       2.063   6.827  78.743  1.00  0.00    -0.385 N
ATOM     16  H82 UNL     1       2.061   5.816  78.881  1.00  0.00     0.157 HD
ATOM     17  H81 UNL     1       1.990   7.248  77.817  1.00  0.00     0.157 HD
BRANCH  10  18
HETATM   18  C3  UNL     1       2.485  10.155  83.013  1.00  0.00     0.088 C
HETATM   19  C4  UNL     1       3.554   9.807  84.030  1.00  0.00     0.033 C
BRANCH  18  20
HETATM   20  C2  UNL     1       1.115  10.182  83.685  1.00  0.00     0.021 C
HETATM   21  C1  UNL     1       0.694  11.620  83.927  1.00  0.00     0.007 C
ENDBRANCH  18  20
ENDBRANCH  10  18
BRANCH  11  22
HETATM   22  O6  UNL     1       2.325  11.085  80.442  1.00  0.00    -0.332 OA
ATOM     23  H6  UNL     1       1.613  11.526  79.994  1.00  0.00     0.221 HD
ENDBRANCH  11  22
ENDBRANCH   7   8
ENDBRANCH   1   7
BRANCH   2  24
HETATM   24  C10 UNL     1       1.575   5.387  84.290  1.00  0.00     0.212 C
HETATM   25  O1  UNL     1       2.585   4.828  84.771  1.00  0.00    -0.644 OA
HETATM   26  O2  UNL     1       1.192   6.603  84.887  1.00  0.00    -0.644 OA
ENDBRANCH   2  24
BRANCH   6  27
HETATM   27  N7  UNL     1       0.333   3.933  79.602  1.00  0.00    -0.335 N
ATOM     28  H72 UNL     1       0.770   3.145  79.125  1.00  0.00     0.177 HD
ATOM     29  H71 UNL     1      -0.065   4.509  78.860  1.00  0.00     0.177 HD
ENDBRANCH   6  27
BRANCH   3  30
HETATM   30  C12 UNL     1      -0.933   3.623  84.462  1.00  0.00     0.083 A
HETATM   31  N2  UNL     1      -1.680   4.491  85.192  1.00  0.00    -0.349 N
HETATM   32  C13 UNL     1      -2.287   4.142  86.337  1.00  0.00     0.182 A
ATOM     33  H2  UNL     1      -1.785   5.448  84.855  1.00  0.00     0.166 HD
HETATM   34  N3  UNL     1      -2.138   2.876  86.765  1.00  0.00    -0.333 N
HETATM   35  C14 UNL     1      -1.399   1.959  86.076  1.00  0.00     0.193 A
ATOM     36  H3  UNL     1      -2.592   2.591  87.633  1.00  0.00     0.168 HD
HETATM   37  C15 UNL     1      -0.776   2.314  84.902  1.00  0.00     0.133 A
HETATM   38  N5  UNL     1      -1.089   0.673  86.289  1.00  0.00    -0.082 N
HETATM   39  N4  UNL     1      -0.123   1.240  84.464  1.00  0.00    -0.233 N
HETATM   40  O3  UNL     1      -0.329   0.282  85.311  1.00  0.00    -0.126 OA
ATOM     41  H4  UNL     1       0.439   1.183  83.614  1.00  0.00     0.197 HD
BRANCH  38  42
HETATM   42  O4  UNL     1      -1.535  -0.064  87.377  1.00  0.00    -0.260 OA
ATOM     43  H4  UNL     1      -2.158  -0.778  87.316  1.00  0.00     0.247 HD
ENDBRANCH  38  42
ENDBRANCH   3  30
TORSDOF 9
ENDMDL