MODEL 2
REMARK VINA RESULT: -7.167111516      1.707      4.533
REMARK  9 active torsions:
REMARK  status: ('A' for Active; 'I' for Inactive)
REMARK    1  A    between atoms: C3_5  and  N2_6
REMARK    2  A    between atoms: N4_11  and  C4_12
REMARK    3  A    between atoms: C4_12  and  C5_13
REMARK    4  A    between atoms: C5_13  and  C6_14
REMARK    5  A    between atoms: C6_14  and  C7_15
REMARK    6  A    between atoms: C7_15  and  N5_16
REMARK    7  A    between atoms: N5_16  and  C8_18
REMARK    8  A    between atoms: C9_21  and  N7_22
REMARK    9  A    between atoms: N7_22  and  C10_24
ROOT
HETATM    1  C8  UNL     1      -0.239   3.970  81.019  1.00  0.00     0.681 A
HETATM    2  N6  UNL     1      -0.655   4.995  81.799  1.00  0.00    -0.176 N
ATOM      3  H6  UNL     1      -0.766   5.916  81.375  1.00  0.00     0.186 HD
HETATM    4  C9  UNL     1      -0.929   4.856  83.108  1.00  0.00     0.137 A
HETATM    5  C13 UNL     1      -0.761   3.584  83.639  1.00  0.00     0.121 A
HETATM    6  C14 UNL     1      -1.025   3.376  84.977  1.00  0.00     0.269 A
HETATM    7  O2  UNL     1      -1.416   4.350  85.699  1.00  0.00    -0.267 OA
HETATM    8  N8  UNL     1      -0.860   2.143  85.475  1.00  0.00    -0.270 N
HETATM    9  C15 UNL     1      -1.146   1.957  86.885  1.00  0.00     0.164 C
HETATM   10  C16 UNL     1      -0.443   1.133  84.682  1.00  0.00     0.332 A
HETATM   11  O3  UNL     1      -0.305  -0.015  85.212  1.00  0.00    -0.246 OA
HETATM   12  N9  UNL     1      -0.176   1.296  83.372  1.00  0.00    -0.288 N
HETATM   13  C17 UNL     1       0.273   0.185  82.534  1.00  0.00     0.163 C
HETATM   14  C18 UNL     1      -0.335   2.526  82.849  1.00  0.00     0.146 A
HETATM   15  N10 UNL     1      -0.077   2.734  81.537  1.00  0.00    -0.175 N
ATOM     16  H10 UNL     1       0.236   1.964  80.946  1.00  0.00     0.186 HD
ENDROOT
BRANCH   1  17
HETATM   17  N5  UNL     1       0.000   4.203  79.764  1.00  0.00    -0.226 N
ATOM     18  H5  UNL     1      -0.298   3.502  79.086  1.00  0.00     0.177 HD
BRANCH  17  19
HETATM   19  C7  UNL     1       0.653   5.377  79.265  1.00  0.00     0.138 C
BRANCH  19  20
HETATM   20  C6  UNL     1       1.783   5.169  78.329  1.00  0.00     0.022 C
BRANCH  20  21
HETATM   21  C5  UNL     1       3.120   5.669  78.698  1.00  0.00     0.024 C
BRANCH  21  22
HETATM   22  C4  UNL     1       3.739   5.026  79.906  1.00  0.00     0.154 C
BRANCH  22  23
HETATM   23  N4  UNL     1       3.480   5.842  81.106  1.00  0.00    -0.241 N
HETATM   24  N3  UNL     1       3.661   7.148  81.109  1.00  0.00    -0.275 N
HETATM   25  C3  UNL     1       3.425   7.904  82.212  1.00  0.00     0.183 A
ATOM     26  H3  UNL     1       3.987   7.604  80.256  1.00  0.00     0.189 HD
HETATM   27  C2  UNL     1       2.980   7.293  83.373  1.00  0.00     0.296 A
HETATM   28  N1  UNL     1       2.797   5.967  83.371  1.00  0.00    -0.266 N
HETATM   29  O1  UNL     1       2.755   7.972  84.403  1.00  0.00    -0.264 OA
HETATM   30  C1  UNL     1       2.327   5.282  84.582  1.00  0.00     0.165 C
HETATM   31  C19 UNL     1       3.049   5.270  82.244  1.00  0.00     0.345 A
HETATM   32  O4  UNL     1       2.876   4.010  82.238  1.00  0.00    -0.245 OA
BRANCH  25  33
HETATM   33  N2  UNL     1       3.604   9.183  82.207  1.00  0.00    -0.380 N
ATOM     34  H22 UNL     1       4.218   9.640  82.882  1.00  0.00     0.158 HD
ATOM     35  H21 UNL     1       3.118   9.747  81.509  1.00  0.00     0.158 HD
ENDBRANCH  25  33
ENDBRANCH  22  23
ENDBRANCH  21  22
ENDBRANCH  20  21
ENDBRANCH  19  20
ENDBRANCH  17  19
ENDBRANCH   1  17
BRANCH   4  36
HETATM   36  N7  UNL     1      -1.319   5.781  83.880  1.00  0.00    -0.370 N
ATOM     37  H7  UNL     1      -2.036   5.533  84.563  1.00  0.00     0.161 HD
BRANCH  36  38
HETATM   38  C10 UNL     1      -0.862   7.133  83.896  1.00  0.00     0.083 A
HETATM   39  C11 UNL     1      -1.887   8.127  84.453  1.00  0.00     0.027 A
HETATM   40  C12 UNL     1      -0.598   7.873  85.138  1.00  0.00     0.027 A
ENDBRANCH  36  38
ENDBRANCH   4  36
TORSDOF 9
ENDMDL