MODEL 2
REMARK VINA RESULT: -7.000617239      1.620      1.882
REMARK  9 active torsions:
REMARK  status: ('A' for Active; 'I' for Inactive)
REMARK    1  A    between atoms: C2_2  and  N1_3
REMARK    2  A    between atoms: N1_3  and  C3_5
REMARK    3  A    between atoms: C4_8  and  N3_9
REMARK    4  A    between atoms: N3_9  and  C5_11
REMARK    5  A    between atoms: C5_11  and  C6_12
REMARK    6  A    between atoms: C6_12  and  N4_13
REMARK    7  A    between atoms: C10_24  and  C11_25
REMARK    8  A    between atoms: N8_29  and  C13_31
REMARK    9  A    between atoms: C15_33  and  O2_34
ROOT
HETATM    1  C3  UNL     1      -1.326   6.216  84.480  1.00  0.00     0.680 A
HETATM    2  N2  UNL     1      -1.371   5.319  85.504  1.00  0.00    -0.176 N
ATOM      3  H2  UNL     1      -1.633   5.613  86.444  1.00  0.00     0.186 HD
HETATM    4  C4  UNL     1      -1.063   4.040  85.248  1.00  0.00     0.135 A
HETATM    5  C7  UNL     1      -0.714   3.698  83.966  1.00  0.00     0.107 A
HETATM    6  C8  UNL     1      -0.487   2.352  83.669  1.00  0.00     0.278 A
HETATM    7  O1  UNL     1      -0.529   1.500  84.585  1.00  0.00    -0.265 OA
HETATM    8  N5  UNL     1      -0.229   2.006  82.404  1.00  0.00    -0.261 N
HETATM    9  C9  UNL     1      -0.007   0.570  82.175  1.00  0.00     0.181 C
HETATM   10  N6  UNL     1      -0.179   2.881  81.456  1.00  0.00    -0.292 N
ATOM     11  H6  UNL     1       0.024   2.553  80.511  1.00  0.00     0.187 HD
HETATM   12  C10 UNL     1      -0.385   4.250  81.643  1.00  0.00     0.107 A
HETATM   13  C19 UNL     1      -0.655   4.601  82.904  1.00  0.00     0.099 A
HETATM   14  N12 UNL     1      -0.983   5.866  83.232  1.00  0.00    -0.188 N
ATOM     15  H12 UNL     1      -0.970   6.581  82.505  1.00  0.00     0.184 HD
ENDROOT
BRANCH  12  16
HETATM   16  C11 UNL     1       0.005   5.107  80.541  1.00  0.00     0.124 A
HETATM   17  N7  UNL     1       1.210   4.941  80.001  1.00  0.00    -0.185 N
HETATM   18  C12 UNL     1       1.471   5.819  78.984  1.00  0.00     0.683 A
ATOM     19  H7  UNL     1       1.871   4.231  80.313  1.00  0.00     0.184 HD
HETATM   20  N8  UNL     1       2.541   5.939  78.222  1.00  0.00    -0.196 N
HETATM   21  N10 UNL     1       0.339   6.663  78.842  1.00  0.00    -0.171 N
ATOM     22  H8  UNL     1       2.564   6.662  77.503  1.00  0.00     0.180 HD
HETATM   23  C16 UNL     1       0.195   7.747  77.873  1.00  0.00     0.177 C
HETATM   24  C17 UNL     1      -0.608   6.223  79.839  1.00  0.00     0.148 A
HETATM   25  N11 UNL     1      -1.706   6.809  80.089  1.00  0.00    -0.378 N
HETATM   26  C18 UNL     1      -2.328   7.875  79.446  1.00  0.00     0.147 C
ATOM     27  H11 UNL     1      -2.215   6.437  80.891  1.00  0.00     0.160 HD
BRANCH  20  28
HETATM   28  C13 UNL     1       3.672   5.072  78.386  1.00  0.00     0.306 C
HETATM   29  C14 UNL     1       4.439   4.717  77.152  1.00  0.00     0.116 C
HETATM   30  C15 UNL     1       5.651   4.815  78.073  1.00  0.00     0.324 C
HETATM   31  N9  UNL     1       4.869   5.694  78.912  1.00  0.00    -0.027 N
ATOM     32  H92 UNL     1       4.993   6.705  78.864  1.00  0.00     0.282 HD
ATOM     33  H91 UNL     1       5.034   5.735  79.918  1.00  0.00     0.282 HD
BRANCH  30  34
HETATM   34  O2  UNL     1       5.925   3.562  78.615  1.00  0.00    -0.369 OA
ATOM     35  H2  UNL     1       6.404   3.666  79.430  1.00  0.00     0.212 HD
ENDBRANCH  30  34
ENDBRANCH  20  28
ENDBRANCH  12  16
BRANCH   4  36
HETATM   36  N3  UNL     1      -1.073   3.109  86.137  1.00  0.00    -0.373 N
ATOM     37  H3  UNL     1      -0.285   2.463  86.160  1.00  0.00     0.161 HD
BRANCH  36  38
HETATM   38  C5  UNL     1      -2.116   2.924  87.093  1.00  0.00     0.148 C
BRANCH  38  39
HETATM   39  C6  UNL     1      -2.665   1.504  87.135  1.00  0.00     0.249 C
BRANCH  39  40
HETATM   40  N4  UNL     1      -1.554   0.585  87.310  1.00  0.00    -0.078 N
ATOM     41  H43 UNL     1      -1.861  -0.376  87.463  1.00  0.00     0.274 HD
ATOM     42  H42 UNL     1      -1.035   0.429  86.446  1.00  0.00     0.274 HD
ATOM     43  H41 UNL     1      -0.964   0.932  88.065  1.00  0.00     0.274 HD
ENDBRANCH  39  40
ENDBRANCH  38  39
ENDBRANCH  36  38
ENDBRANCH   4  36
BRANCH   1  44
HETATM   44  N1  UNL     1      -1.626   7.430  84.744  1.00  0.00    -0.226 N
ATOM     45  H1  UNL     1      -2.547   7.596  85.151  1.00  0.00     0.177 HD
BRANCH  44  46
HETATM   46  C2  UNL     1      -0.805   8.578  84.528  1.00  0.00     0.133 C
HETATM   47  C1  UNL     1       0.653   8.316  84.845  1.00  0.00     0.027 C
ENDBRANCH  44  46
ENDBRANCH   1  44
TORSDOF 9
ENDMDL