MODEL 5
REMARK VINA RESULT: -7.378468508      2.215      2.922
REMARK  8 active torsions:
REMARK  status: ('A' for Active; 'I' for Inactive)
REMARK    1  A    between atoms: C3_5  and  C4_6
REMARK       I    between atoms: C4_6  and  N2_8
REMARK    2  A    between atoms: N2_8  and  C5_10
REMARK    3  A    between atoms: C5_10  and  C6_11
REMARK    4  A    between atoms: C5_10  and  C9_22
REMARK       I    between atoms: C6_11  and  N3_13
REMARK    5  A    between atoms: N3_13  and  N4_15
REMARK       I    between atoms: N4_15  and  C7_17
REMARK    6  A    between atoms: C7_17  and  C8_19
REMARK    7  A    between atoms: C8_19  and  O5_20
REMARK    8  A    between atoms: C15_28  and  N5_29
ROOT
HETATM    1  C4  UNL     1       2.041   5.794  81.564  1.00  0.00     0.260 C
HETATM    2  O2  UNL     1       1.167   5.916  80.683  1.00  0.00    -0.267 OA
HETATM    3  N2  UNL     1       1.576   5.266  82.802  1.00  0.00    -0.339 N
ATOM      4  H2  UNL     1       2.258   5.155  83.553  1.00  0.00     0.164 HD
ENDROOT
BRANCH   3   5
HETATM    5  C5  UNL     1       0.215   4.877  83.076  1.00  0.00     0.212 C
BRANCH   5   6
HETATM    6  C6  UNL     1       0.159   3.858  84.161  1.00  0.00     0.263 C
HETATM    7  O3  UNL     1       1.106   3.819  84.974  1.00  0.00    -0.269 OA
HETATM    8  N3  UNL     1      -0.910   2.957  84.289  1.00  0.00    -0.265 N
ATOM      9  H3  UNL     1      -1.687   2.983  83.629  1.00  0.00     0.190 HD
BRANCH   8  10
HETATM   10  N4  UNL     1      -0.899   2.019  85.336  1.00  0.00    -0.266 N
HETATM   11  C7  UNL     1      -1.618   2.213  86.535  1.00  0.00     0.259 C
HETATM   12  O4  UNL     1      -2.316   3.237  86.754  1.00  0.00    -0.269 OA
ATOM     13  H4  UNL     1      -0.351   1.166  85.226  1.00  0.00     0.190 HD
BRANCH  11  14
HETATM   14  C8  UNL     1      -1.563   1.177  87.604  1.00  0.00     0.268 C
BRANCH  14  15
HETATM   15  O5  UNL     1      -1.507  -0.093  87.075  1.00  0.00    -0.392 OA
ATOM     16  H5  UNL     1      -1.117  -0.094  86.209  1.00  0.00     0.210 HD
ENDBRANCH  14  15
ENDBRANCH  11  14
ENDBRANCH   8  10
ENDBRANCH   5   6
BRANCH   5  17
HETATM   17  C9  UNL     1      -0.538   6.058  83.537  1.00  0.00    -0.026 A
HETATM   18  C10 UNL     1      -1.733   6.398  82.948  1.00  0.00     0.010 A
HETATM   19  C11 UNL     1      -2.462   7.500  83.373  1.00  0.00     0.001 A
HETATM   20  C12 UNL     1      -1.984   8.292  84.423  1.00  0.00     0.000 A
HETATM   21  C13 UNL     1      -0.795   7.953  85.009  1.00  0.00     0.001 A
HETATM   22  C14 UNL     1      -0.091   6.849  84.562  1.00  0.00     0.010 A
ENDBRANCH   5  17
ENDBRANCH   3   5
BRANCH   1  23
HETATM   23  C3  UNL     1       3.401   6.162  81.333  1.00  0.00     0.138 C
HETATM   24  C2  UNL     1       4.133   5.392  80.402  1.00  0.00     0.269 C
HETATM   25  N1  UNL     1       5.427   5.034  80.466  1.00  0.00    -0.270 N
HETATM   26  O1  UNL     1       3.492   4.999  79.398  1.00  0.00    -0.267 OA
HETATM   27  C1  UNL     1       5.844   3.948  79.600  1.00  0.00     0.164 C
HETATM   28  C18 UNL     1       6.395   5.586  81.244  1.00  0.00     0.333 C
HETATM   29  N6  UNL     1       6.388   6.708  82.020  1.00  0.00    -0.268 N
HETATM   30  O9  UNL     1       7.505   5.009  81.298  1.00  0.00    -0.246 OA
HETATM   31  C16 UNL     1       5.334   7.534  82.145  1.00  0.00     0.285 C
HETATM   32  C17 UNL     1       7.585   7.033  82.760  1.00  0.00     0.164 C
HETATM   33  C15 UNL     1       3.955   7.205  82.016  1.00  0.00     0.192 C
HETATM   34  O8  UNL     1       5.602   8.712  82.400  1.00  0.00    -0.265 OA
BRANCH  33  35
HETATM   35  N5  UNL     1       3.089   8.097  82.659  1.00  0.00    -0.109 N
HETATM   36  O6  UNL     1       2.416   8.963  82.099  1.00  0.00    -0.532 OA
HETATM   37  O7  UNL     1       2.964   7.922  84.040  1.00  0.00    -0.532 OA
ENDBRANCH  33  35
ENDBRANCH   1  23
TORSDOF 8
ENDMDL