MODEL 5
REMARK VINA RESULT: -8.168470311      2.137      2.813
REMARK  11 active torsions:
REMARK  status: ('A' for Active; 'I' for Inactive)
REMARK    1  A    between atoms: N1_4  and  C4_5
REMARK    2  A    between atoms: C4_5  and  N2_6
REMARK    3  A    between atoms: N2_6  and  N3_8
REMARK    4  A    between atoms: C5_10  and  C6_11
REMARK    5  A    between atoms: C5_10  and  N6_18
REMARK    6  A    between atoms: N4_12  and  N5_13
REMARK    7  A    between atoms: N4_12  and  O1_16
REMARK    8  A    between atoms: N6_18  and  N7_20
REMARK       I    between atoms: N7_20  and  C7_21
REMARK    9  A    between atoms: C7_21  and  C8_23
REMARK   10  A    between atoms: C8_23  and  C9_24
REMARK   11  A    between atoms: N10_29  and  C10_30
ROOT
HETATM    1  N3  UNL     1      -2.054   6.732  82.653  1.00  0.00    -0.285 N
ATOM      2  H3  UNL     1      -2.546   7.624  82.713  1.00  0.00     0.188 HD
HETATM    3  C5  UNL     1      -1.163   6.563  81.767  1.00  0.00     0.165 C
ENDROOT
BRANCH   3   4
HETATM    4  C6  UNL     1      -0.801   7.621  80.811  1.00  0.00     0.194 C
HETATM    5  N4  UNL     1      -1.052   7.510  79.563  1.00  0.00    -0.178 N
BRANCH   5   6
HETATM    6  N5  UNL     1      -0.703   8.517  78.678  1.00  0.00    -0.319 N
ATOM      7  H52 UNL     1      -1.263   9.369  78.634  1.00  0.00     0.179 HD
ATOM      8  H51 UNL     1       0.105   8.415  78.064  1.00  0.00     0.179 HD
ENDBRANCH   5   6
BRANCH   5   9
HETATM    9  O1  UNL     1      -1.664   6.379  79.097  1.00  0.00    -0.269 OA
ATOM     10  H1  UNL     1      -1.986   6.356  78.204  1.00  0.00     0.247 HD
ENDBRANCH   5   9
ENDBRANCH   3   4
BRANCH   3  11
HETATM   11  N6  UNL     1      -0.540   5.268  81.671  1.00  0.00    -0.213 N
ATOM     12  H6  UNL     1      -0.921   4.487  82.204  1.00  0.00     0.204 HD
BRANCH  11  13
HETATM   13  N7  UNL     1       0.526   5.072  80.897  1.00  0.00    -0.285 NA
HETATM   14  C7  UNL     1       1.582   4.879  80.128  1.00  0.00     0.319 C
HETATM   15  O2  UNL     1       1.661   4.583  78.884  1.00  0.00    -0.255 OA
BRANCH  14  16
HETATM   16  C8  UNL     1       2.970   5.012  80.745  1.00  0.00     0.200 C
BRANCH  16  17
HETATM   17  C9  UNL     1       2.885   6.044  81.792  1.00  0.00     0.123 A
HETATM   18  N8  UNL     1       3.139   5.787  83.127  1.00  0.00    -0.271 N
HETATM   19  N9  UNL     1       2.914   6.909  83.768  1.00  0.00    -0.220 N
ATOM     20  H8  UNL     1       3.441   4.902  83.532  1.00  0.00     0.190 HD
HETATM   21  N10 UNL     1       2.530   7.889  82.961  1.00  0.00    -0.181 N
ATOM     22  H9  UNL     1       3.022   7.015  84.777  1.00  0.00     0.210 HD
HETATM   23  N11 UNL     1       2.525   7.333  81.770  1.00  0.00    -0.265 N
ATOM     24  H11 UNL     1       2.272   7.832  80.918  1.00  0.00     0.190 HD
BRANCH  21  25
HETATM   25  C10 UNL     1       2.167   9.206  83.357  1.00  0.00     0.076 A
HETATM   26  C11 UNL     1       3.083  10.169  83.646  1.00  0.00     0.033 A
HETATM   27  C12 UNL     1       2.659  11.446  84.007  1.00  0.00     0.002 A
HETATM   28  C13 UNL     1       1.301  11.734  84.067  1.00  0.00     0.000 A
HETATM   29  C14 UNL     1       0.375  10.766  83.777  1.00  0.00     0.002 A
HETATM   30  C15 UNL     1       0.780   9.519  83.426  1.00  0.00     0.033 A
ENDBRANCH  21  25
ENDBRANCH  16  17
ENDBRANCH  14  16
ENDBRANCH  11  13
ENDBRANCH   3  11
BRANCH   1  31
HETATM   31  N2  UNL     1      -2.365   5.707  83.547  1.00  0.00    -0.316 N
ATOM     32  H2  UNL     1      -2.958   4.923  83.275  1.00  0.00     0.182 HD
BRANCH  31  33
HETATM   33  C4  UNL     1      -1.809   5.808  84.871  1.00  0.00     0.273 C
BRANCH  33  34
HETATM   34  N1  UNL     1      -1.288   4.533  85.295  1.00  0.00    -0.291 N
HETATM   35  C3  UNL     1      -2.023   3.599  85.931  1.00  0.00     0.109 A
HETATM   36  C2  UNL     1      -1.383   2.425  86.308  1.00  0.00     0.022 A
HETATM   37  C1  UNL     1      -2.149   1.355  87.009  1.00  0.00     0.056 C
HETATM   38  C17 UNL     1      -0.046   2.238  86.034  1.00  0.00     0.256 A
HETATM   39  N12 UNL     1       0.681   3.181  85.395  1.00  0.00    -0.275 N
HETATM   40  O4  UNL     1       0.532   1.153  86.386  1.00  0.00    -0.267 OA
HETATM   41  C16 UNL     1       0.010   4.292  85.057  1.00  0.00     0.330 A
ATOM     42  H12 UNL     1       1.671   3.056  85.184  1.00  0.00     0.173 HD
HETATM   43  O3  UNL     1       0.711   5.176  84.456  1.00  0.00    -0.246 OA
ENDBRANCH  33  34
ENDBRANCH  31  33
ENDBRANCH   1  31
TORSDOF 11
ENDMDL