MODEL 2
REMARK VINA RESULT: -7.356956333      1.177      1.783
REMARK  12 active torsions:
REMARK  status: ('A' for Active; 'I' for Inactive)
REMARK    1  A    between atoms: C3_3  and  C4_4
REMARK    2  A    between atoms: C4_4  and  N1_5
REMARK    3  A    between atoms: N1_5  and  N2_6
REMARK    4  A    between atoms: N1_5  and  N3_9
REMARK    5  A    between atoms: C9_16  and  C10_17
REMARK    6  A    between atoms: C10_17  and  O1_19
REMARK    7  A    between atoms: C12_21  and  C13_22
REMARK    8  A    between atoms: C13_22  and  O2_23
REMARK    9  A    between atoms: O2_23  and  C14_24
REMARK   10  A    between atoms: C16_27  and  C17_28
REMARK   11  A    between atoms: C17_28  and  O5_30
REMARK   12  A    between atoms: C20_34  and  N6_35
ROOT
HETATM    1  N3  UNL     1       2.904  11.116  84.513  1.00  0.00    -0.216 N
ATOM      2  H3  UNL     1       3.568  11.039  85.284  1.00  0.00     0.201 HD
HETATM    3  C5  UNL     1       2.912  12.280  83.710  1.00  0.00     0.199 C
HETATM    4  N4  UNL     1       2.908  13.238  83.058  1.00  0.00    -0.170 NA
ENDROOT
BRANCH   1   5
HETATM    5  N1  UNL     1       2.020  10.080  84.278  1.00  0.00    -0.205 N
BRANCH   5   6
HETATM    6  C4  UNL     1       0.739  10.259  83.783  1.00  0.00     0.149 C
BRANCH   6   7
HETATM    7  C3  UNL     1       0.029   9.655  82.867  1.00  0.00    -0.001 A
HETATM    8  C2  UNL     1      -0.907   8.706  83.269  1.00  0.00    -0.020 A
HETATM    9  C1  UNL     1      -1.129   8.526  84.533  1.00  0.00     0.025 C
HETATM   10  C12 UNL     1      -1.686   7.959  82.342  1.00  0.00     0.010 A
HETATM   11  C9  UNL     1      -1.532   8.168  80.992  1.00  0.00     0.025 A
HETATM   12  C8  UNL     1      -0.587   9.130  80.610  1.00  0.00     0.024 A
HETATM   13  C6  UNL     1       0.154   9.835  81.524  1.00  0.00    -0.049 A
HETATM   14  C7  UNL     1       1.115  10.826  80.968  1.00  0.00     0.049 C
BRANCH  10  15
HETATM   15  C13 UNL     1      -2.501   7.067  82.812  1.00  0.00     0.151 C
BRANCH  15  16
HETATM   16  O2  UNL     1      -2.534   5.716  82.873  1.00  0.00    -0.328 OA
BRANCH  16  17
HETATM   17  C14 UNL     1      -1.626   4.986  83.707  1.00  0.00     0.308 C
HETATM   18  O3  UNL     1      -2.318   4.442  84.811  1.00  0.00    -0.328 OA
HETATM   19  C15 UNL     1      -1.725   3.497  85.616  1.00  0.00     0.159 C
HETATM   20  C16 UNL     1      -0.841   2.662  85.120  1.00  0.00     0.109 C
HETATM   21  C19 UNL     1      -0.519   2.773  83.715  1.00  0.00     0.202 C
HETATM   22  O6  UNL     1       0.110   1.841  83.164  1.00  0.00    -0.290 OA
HETATM   23  C20 UNL     1      -0.902   3.947  82.895  1.00  0.00     0.313 C
BRANCH  20  24
HETATM   24  C17 UNL     1      -0.188   1.637  85.960  1.00  0.00     0.298 C
HETATM   25  O4  UNL     1       1.004   1.804  86.299  1.00  0.00    -0.259 OA
BRANCH  24  26
HETATM   26  O5  UNL     1      -0.862   0.520  86.365  1.00  0.00    -0.322 OA
HETATM   27  C18 UNL     1      -1.862   0.628  87.383  1.00  0.00     0.213 C
ENDBRANCH  24  26
ENDBRANCH  20  24
BRANCH  23  28
HETATM   28  N6  UNL     1       0.303   4.469  82.282  1.00  0.00    -0.063 N
ATOM     29  H63 UNL     1       0.132   4.752  81.317  1.00  0.00     0.275 HD
ATOM     30  H62 UNL     1       0.553   5.377  82.675  1.00  0.00     0.275 HD
ATOM     31  H61 UNL     1       1.082   3.815  82.341  1.00  0.00     0.275 HD
ENDBRANCH  23  28
ENDBRANCH  16  17
ENDBRANCH  15  16
ENDBRANCH  10  15
BRANCH  11  32
HETATM   32  C10 UNL     1      -2.139   7.592  79.993  1.00  0.00     0.162 C
HETATM   33  N5  UNL     1      -3.182   7.875  79.127  1.00  0.00    -0.074 NA
BRANCH  32  34
HETATM   34  O1  UNL     1      -1.616   6.281  79.650  1.00  0.00    -0.342 OA
HETATM   35  C11 UNL     1      -0.279   6.212  79.184  1.00  0.00     0.211 C
ENDBRANCH  32  34
ENDBRANCH  11  32
ENDBRANCH   6   7
ENDBRANCH   5   6
BRANCH   5  36
HETATM   36  N2  UNL     1       2.489   8.756  84.490  1.00  0.00    -0.324 N
ATOM     37  H22 UNL     1       1.873   8.111  84.984  1.00  0.00     0.178 HD
ATOM     38  H21 UNL     1       3.436   8.519  84.192  1.00  0.00     0.178 HD
ENDBRANCH   5  36
ENDBRANCH   1   5
TORSDOF 12
ENDMDL