MODEL 5
REMARK VINA RESULT: -6.219187605      2.347      6.742
REMARK  9 active torsions:
REMARK  status: ('A' for Active; 'I' for Inactive)
REMARK    1  A    between atoms: N1_2  and  C2_4
REMARK    2  A    between atoms: C3_8  and  N4_9
REMARK    3  A    between atoms: N6_14  and  C4_15
REMARK    4  A    between atoms: C6_18  and  C7_19
REMARK    5  A    between atoms: C10_26  and  S2_27
REMARK    6  A    between atoms: S2_27  and  N10_30
REMARK    7  A    between atoms: N10_30  and  C11_32
REMARK    8  A    between atoms: C11_32  and  C12_33
REMARK    9  A    between atoms: C12_33  and  O3_34
ROOT
HETATM    1  C7  UNL     1      -0.225   2.571  82.223  1.00  0.00     0.158 C
HETATM    2  C8  UNL     1      -0.907   2.024  81.087  1.00  0.00     0.113 C
HETATM    3  N7  UNL     1      -1.463   1.570  80.159  1.00  0.00    -0.191 NA
HETATM    4  C9  UNL     1      -0.170   1.934  83.485  1.00  0.00     0.113 C
HETATM    5  N8  UNL     1      -0.121   1.393  84.511  1.00  0.00    -0.191 NA
ENDROOT
BRANCH   1   6
HETATM    6  C6  UNL     1       0.394   3.761  82.053  1.00  0.00     0.107 A
HETATM    7  S1  UNL     1       2.054   4.070  81.791  1.00  0.00    -0.066 SA
HETATM    8  C5  UNL     1       1.984   5.784  81.682  1.00  0.00     0.065 A
HETATM    9  C4  UNL     1       3.002   6.614  81.471  1.00  0.00     0.157 C
HETATM   10  C10 UNL     1       0.649   6.010  81.860  1.00  0.00     0.168 A
HETATM   11  N9  UNL     1      -0.112   4.968  82.042  1.00  0.00    -0.337 N
ATOM     12  H9  UNL     1      -1.114   5.094  82.178  1.00  0.00     0.167 HD
BRANCH   9  13
HETATM   13  N6  UNL     1       4.325   6.151  81.305  1.00  0.00    -0.079 N
HETATM   14  N5  UNL     1       5.340   6.178  82.170  1.00  0.00    -0.109 N
HETATM   15  C3  UNL     1       6.424   5.640  81.617  1.00  0.00     0.728 A
ATOM     16  H5  UNL     1       5.292   6.555  83.117  1.00  0.00     0.207 HD
HETATM   17  N3  UNL     1       6.104   5.257  80.364  1.00  0.00     0.108 N
HETATM   18  N2  UNL     1       6.560   4.702  79.269  1.00  0.00    -0.095 N
HETATM   19  C14 UNL     1       4.804   5.580  80.190  1.00  0.00     0.757 A
HETATM   20  C2  UNL     1       5.526   4.668  78.369  1.00  0.00     0.710 A
ATOM     21  H2  UNL     1       7.508   4.358  79.114  1.00  0.00     0.207 HD
HETATM   22  N11 UNL     1       4.434   5.208  78.928  1.00  0.00    -0.013 N
HETATM   23  C15 UNL     1       3.110   5.387  78.366  1.00  0.00     0.195 C
BRANCH  15  24
HETATM   24  N4  UNL     1       7.582   5.491  82.134  1.00  0.00    -0.231 N
ATOM     25  H42 UNL     1       7.844   4.924  82.941  1.00  0.00     0.174 HD
ATOM     26  H41 UNL     1       8.424   5.948  81.785  1.00  0.00     0.174 HD
ENDBRANCH  15  24
BRANCH  20  27
HETATM   27  N1  UNL     1       5.650   4.187  77.201  1.00  0.00    -0.228 N
HETATM   28  C1  UNL     1       6.543   3.226  76.673  1.00  0.00     0.165 C
ATOM     29  H1  UNL     1       4.988   4.562  76.522  1.00  0.00     0.177 HD
ENDBRANCH  20  27
ENDBRANCH   9  13
BRANCH  10  30
HETATM   30  S2  UNL     1      -0.060   7.649  81.866  1.00  0.00     0.276 S
HETATM   31  O1  UNL     1       0.767   8.564  82.767  1.00  0.00    -0.199 OA
HETATM   32  O2  UNL     1       0.066   8.233  80.498  1.00  0.00    -0.199 OA
BRANCH  30  33
HETATM   33  N10 UNL     1      -1.637   7.596  82.481  1.00  0.00    -0.312 N
ATOM     34  H10 UNL     1      -2.432   7.273  81.929  1.00  0.00     0.172 HD
BRANCH  33  35
HETATM   35  C11 UNL     1      -1.766   8.038  83.829  1.00  0.00     0.158 C
BRANCH  35  36
HETATM   36  C12 UNL     1      -1.473   6.906  84.812  1.00  0.00     0.187 C
BRANCH  36  37
HETATM   37  O3  UNL     1      -1.925   5.709  84.272  1.00  0.00    -0.394 OA
HETATM   38  C13 UNL     1      -1.804   4.745  85.284  1.00  0.00     0.201 C
ENDBRANCH  36  37
ENDBRANCH  35  36
ENDBRANCH  33  35
ENDBRANCH  30  33
ENDBRANCH  10  30
ENDBRANCH   1   6
TORSDOF 9
ENDMDL