MODEL 2
REMARK VINA RESULT: -7.834855371      0.807      1.529
REMARK  8 active torsions:
REMARK  status: ('A' for Active; 'I' for Inactive)
REMARK       I    between atoms: C2_4  and  N3_6
REMARK    1  A    between atoms: N3_6  and  C3_8
REMARK    2  A    between atoms: N5_13  and  C5_14
REMARK    3  A    between atoms: C5_14  and  C6_15
REMARK    4  A    between atoms: C6_15  and  C7_16
REMARK    5  A    between atoms: C7_16  and  C8_17
REMARK       I    between atoms: C8_17  and  N6_19
REMARK    6  A    between atoms: C12_26  and  N8_27
REMARK    7  A    between atoms: N8_27  and  N9_29
REMARK    8  A    between atoms: N9_29  and  C13_31
ROOT
HETATM    1  C3  UNL     1      -0.030   3.320  85.211  1.00  0.00     0.703 A
HETATM    2  N4  UNL     1      -1.201   3.419  84.553  1.00  0.00    -0.140 N
ATOM      3  H4  UNL     1      -1.879   2.659  84.595  1.00  0.00     0.189 HD
HETATM    4  C4  UNL     1      -1.468   4.522  83.844  1.00  0.00     0.355 A
HETATM    5  O1  UNL     1      -2.559   4.608  83.234  1.00  0.00    -0.245 OA
HETATM    6  N5  UNL     1      -0.556   5.557  83.780  1.00  0.00    -0.130 N
HETATM    7  C12 UNL     1       0.608   5.484  84.421  1.00  0.00     0.717 A
HETATM    8  N13 UNL     1       0.841   4.321  85.144  1.00  0.00    -0.020 N
ATOM      9  H13 UNL     1       1.724   4.232  85.647  1.00  0.00     0.203 HD
ENDROOT
BRANCH   7  10
HETATM   10  N8  UNL     1       1.475   6.376  84.420  1.00  0.00    -0.130 N
ATOM     11  H8  UNL     1       1.289   6.998  85.206  1.00  0.00     0.205 HD
BRANCH  10  12
HETATM   12  N9  UNL     1       2.536   6.821  83.794  1.00  0.00    -0.270 N
ATOM     13  H9  UNL     1       2.800   7.796  83.929  1.00  0.00     0.189 HD
BRANCH  12  14
HETATM   14  C13 UNL     1       3.355   6.008  82.921  1.00  0.00     0.137 A
HETATM   15  C14 UNL     1       4.292   6.557  82.073  1.00  0.00     0.070 A
HETATM   16  C15 UNL     1       5.046   5.725  81.267  1.00  0.00     0.112 A
HETATM   17  N10 UNL     1       4.878   4.395  81.301  1.00  0.00    -0.297 N
HETATM   18  N11 UNL     1       3.974   3.899  82.123  1.00  0.00    -0.242 N
ATOM     19  H10 UNL     1       5.435   3.782  80.705  1.00  0.00     0.187 HD
HETATM   20  N12 UNL     1       3.242   4.674  82.902  1.00  0.00    -0.270 N
ATOM     21  H11 UNL     1       3.837   2.889  82.159  1.00  0.00     0.208 HD
ATOM     22  H12 UNL     1       2.558   4.235  83.518  1.00  0.00     0.190 HD
ENDBRANCH  12  14
ENDBRANCH  10  12
ENDBRANCH   7  10
BRANCH   6  23
HETATM   23  C5  UNL     1      -1.008   6.681  82.961  1.00  0.00     0.153 C
BRANCH  23  24
HETATM   24  C6  UNL     1      -0.265   6.768  81.676  1.00  0.00     0.030 C
BRANCH  24  25
HETATM   25  C7  UNL     1      -0.757   5.961  80.542  1.00  0.00     0.105 C
BRANCH  25  26
HETATM   26  C8  UNL     1      -0.521   6.421  79.185  1.00  0.00     0.236 C
HETATM   27  O2  UNL     1      -1.271   7.163  78.523  1.00  0.00    -0.272 OA
HETATM   28  N6  UNL     1       0.700   5.965  78.558  1.00  0.00    -0.183 N
HETATM   29  C9  UNL     1       1.813   5.146  78.902  1.00  0.00     0.343 A
HETATM   30  C11 UNL     1       1.305   6.164  77.286  1.00  0.00     0.343 A
HETATM   31  O3  UNL     1       2.135   4.491  79.948  1.00  0.00    -0.246 OA
HETATM   32  N7  UNL     1       2.413   5.346  77.636  1.00  0.00    -0.255 N
HETATM   33  C10 UNL     1       3.646   4.877  77.025  1.00  0.00     0.166 C
HETATM   34  O4  UNL     1       1.017   6.802  76.232  1.00  0.00    -0.246 OA
ENDBRANCH  25  26
ENDBRANCH  24  25
ENDBRANCH  23  24
ENDBRANCH   6  23
BRANCH   1  35
HETATM   35  N3  UNL     1       0.271   2.276  85.906  1.00  0.00    -0.163 N
HETATM   36  C2  UNL     1      -0.529   1.114  85.950  1.00  0.00     0.202 C
HETATM   37  N1  UNL     1      -1.408   0.956  86.869  1.00  0.00    -0.368 N
HETATM   38  N2  UNL     1      -0.363   0.104  84.972  1.00  0.00    -0.063 NA
HETATM   39  C1  UNL     1      -1.591   1.974  87.875  1.00  0.00     0.148 C
ATOM     40  H1  UNL     1      -1.978   0.111  86.889  1.00  0.00     0.161 HD
ATOM     41  H3  UNL     1       1.132   2.291  86.452  1.00  0.00     0.187 HD
ENDBRANCH   1  35
TORSDOF 8
ENDMDL