MODEL 1
REMARK VINA RESULT: -8.694640344      0.000      0.000
REMARK  7 active torsions:
REMARK  status: ('A' for Active; 'I' for Inactive)
REMARK    1  A    between atoms: C4_7  and  C5_8
REMARK    2  A    between atoms: C5_8  and  N3_9
REMARK    3  A    between atoms: C8_12  and  N4_13
REMARK       I    between atoms: N4_13  and  C9_15
REMARK    4  A    between atoms: C9_15  and  C10_17
REMARK    5  A    between atoms: C10_17  and  N5_18
REMARK    6  A    between atoms: C11_21  and  C12_22
REMARK    7  A    between atoms: C12_22  and  N7_23
ROOT
HETATM    1  N5  UNL     1      -0.998   4.527  83.277  1.00  0.00    -0.247 N
HETATM    2  N6  UNL     1      -0.593   3.443  82.660  1.00  0.00    -0.297 N
ATOM      3  H6  UNL     1      -0.399   3.510  81.661  1.00  0.00     0.187 HD
HETATM    4  C11 UNL     1      -0.412   2.237  83.260  1.00  0.00     0.069 A
HETATM    5  C13 UNL     1      -0.691   2.208  84.620  1.00  0.00     0.090 A
HETATM    6  C14 UNL     1      -0.554   1.056  85.362  1.00  0.00     0.264 A
HETATM    7  O2  UNL     1      -0.165   0.023  84.761  1.00  0.00    -0.267 OA
HETATM    8  N8  UNL     1      -0.825   1.023  86.690  1.00  0.00    -0.275 N
ATOM      9  H8  UNL     1      -0.713   0.149  87.205  1.00  0.00     0.173 HD
HETATM   10  C15 UNL     1      -1.239   2.120  87.334  1.00  0.00     0.327 A
HETATM   11  O3  UNL     1      -1.493   2.086  88.581  1.00  0.00    -0.247 OA
HETATM   12  N9  UNL     1      -1.375   3.244  86.616  1.00  0.00    -0.303 N
ATOM     13  H9  UNL     1      -1.691   4.085  87.100  1.00  0.00     0.171 HD
HETATM   14  C16 UNL     1      -1.122   3.336  85.303  1.00  0.00     0.124 A
HETATM   15  C17 UNL     1      -1.267   4.500  84.588  1.00  0.00     0.290 A
HETATM   16  O4  UNL     1      -1.658   5.514  85.219  1.00  0.00    -0.264 OA
ENDROOT
BRANCH   1  17
HETATM   17  C10 UNL     1      -1.169   5.790  82.561  1.00  0.00     0.255 C
BRANCH  17  18
HETATM   18  C9  UNL     1      -0.416   5.795  81.296  1.00  0.00     0.243 C
HETATM   19  N4  UNL     1       0.744   6.584  81.087  1.00  0.00    -0.311 N
ATOM     20  H4  UNL     1       0.644   7.598  81.131  1.00  0.00     0.170 HD
HETATM   21  O1  UNL     1      -0.808   5.070  80.348  1.00  0.00    -0.271 OA
BRANCH  19  22
HETATM   22  C8  UNL     1       1.897   6.112  80.849  1.00  0.00     0.112 A
HETATM   23  C7  UNL     1       2.839   6.720  80.020  1.00  0.00     0.066 A
HETATM   24  C6  UNL     1       4.061   6.119  79.832  1.00  0.00     0.100 A
HETATM   25  N3  UNL     1       4.414   4.940  80.420  1.00  0.00    -0.303 N
HETATM   26  C18 UNL     1       3.497   4.383  81.205  1.00  0.00     0.328 A
HETATM   27  N10 UNL     1       2.274   4.957  81.410  1.00  0.00    -0.294 N
HETATM   28  O5  UNL     1       3.726   3.304  81.790  1.00  0.00    -0.246 OA
ATOM     29  H10 UNL     1       1.614   4.480  82.024  1.00  0.00     0.172 HD
BRANCH  25  30
HETATM   30  C5  UNL     1       5.716   4.362  80.162  1.00  0.00     0.209 C
BRANCH  30  31
HETATM   31  C4  UNL     1       6.766   5.184  80.767  1.00  0.00     0.101 A
HETATM   32  N1  UNL     1       7.847   5.721  80.243  1.00  0.00    -0.348 N
HETATM   33  C1  UNL     1       8.347   5.632  78.893  1.00  0.00     0.157 C
HETATM   34  C2  UNL     1       8.530   6.425  81.191  1.00  0.00     0.108 A
HETATM   35  C3  UNL     1       7.830   6.316  82.361  1.00  0.00     0.106 A
HETATM   36  N2  UNL     1       6.761   5.554  82.074  1.00  0.00    -0.353 N
ATOM     37  H2  UNL     1       6.041   5.291  82.747  1.00  0.00     0.166 HD
ENDBRANCH  30  31
ENDBRANCH  25  30
ENDBRANCH  19  22
ENDBRANCH  17  18
ENDBRANCH   1  17
BRANCH   4  38
HETATM   38  C12 UNL     1       0.044   1.049  82.523  1.00  0.00     0.289 C
BRANCH  38  39
HETATM   39  N7  UNL     1      -0.687   1.065  81.235  1.00  0.00    -0.074 N
ATOM     40  H73 UNL     1      -0.365   0.358  80.575  1.00  0.00     0.274 HD
ATOM     41  H72 UNL     1      -1.650   0.736  81.308  1.00  0.00     0.274 HD
ATOM     42  H71 UNL     1      -0.608   2.019  80.881  1.00  0.00     0.274 HD
ENDBRANCH  38  39
ENDBRANCH   4  38
TORSDOF 7
ENDMDL