MODEL 2
REMARK VINA RESULT: -7.455497726      1.927      2.592
REMARK  8 active torsions:
REMARK  status: ('A' for Active; 'I' for Inactive)
REMARK    1  A    between atoms: C2_2  and  N1_3
REMARK    2  A    between atoms: C5_9  and  N3_10
REMARK    3  A    between atoms: N3_10  and  C6_12
REMARK    4  A    between atoms: C6_12  and  C7_13
REMARK    5  A    between atoms: C7_13  and  S1_14
REMARK    6  A    between atoms: S1_14  and  C8_15
REMARK    7  A    between atoms: N7_21  and  N8_22
REMARK       I    between atoms: N8_22  and  C9_24
REMARK    8  A    between atoms: C9_24  and  C10_26
REMARK       I    between atoms: C10_26  and  N9_28
ROOT
HETATM    1  C7  UNL     1       0.482   7.231  79.865  1.00  0.00     0.103 C
ENDROOT
BRANCH   1   2
HETATM    2  C6  UNL     1      -0.578   6.244  80.362  1.00  0.00     0.148 C
BRANCH   2   3
HETATM    3  N3  UNL     1      -0.045   4.895  80.313  1.00  0.00    -0.225 N
ATOM      4  H3  UNL     1       0.421   4.560  79.470  1.00  0.00     0.177 HD
BRANCH   3   5
HETATM    5  C5  UNL     1      -0.161   4.121  81.339  1.00  0.00     0.680 A
HETATM    6  N2  UNL     1      -0.549   4.562  82.563  1.00  0.00    -0.182 N
HETATM    7  C4  UNL     1      -0.564   3.501  83.392  1.00  0.00     0.162 A
ATOM      8  H2  UNL     1      -0.786   5.522  82.810  1.00  0.00     0.184 HD
HETATM    9  C3  UNL     1      -0.875   3.353  84.735  1.00  0.00     0.282 A
HETATM   10  C12 UNL     1      -0.177   2.363  82.680  1.00  0.00     0.160 A
HETATM   11  N1  UNL     1      -0.803   2.147  85.325  1.00  0.00    -0.264 N
HETATM   12  O1  UNL     1      -1.227   4.354  85.412  1.00  0.00    -0.265 OA
HETATM   13  C14 UNL     1      -0.425   1.082  84.594  1.00  0.00     0.332 A
HETATM   14  N13 UNL     1      -0.114   1.168  83.293  1.00  0.00    -0.287 N
HETATM   15  O4  UNL     1      -0.362  -0.041  85.160  1.00  0.00    -0.246 OA
HETATM   16  C13 UNL     1       0.286  -0.016  82.558  1.00  0.00     0.163 C
HETATM   17  N12 UNL     1       0.060   2.796  81.422  1.00  0.00    -0.174 N
ATOM     18  H12 UNL     1       0.363   2.205  80.648  1.00  0.00     0.186 HD
BRANCH  11  19
HETATM   19  C2  UNL     1      -1.134   2.022  86.731  1.00  0.00     0.133 C
HETATM   20  C1  UNL     1      -2.622   1.800  86.869  1.00  0.00     0.027 C
ENDBRANCH  11  19
ENDBRANCH   3   5
ENDBRANCH   2   3
ENDBRANCH   1   2
BRANCH   1  21
HETATM   21  S1  UNL     1       0.828   8.363  81.233  1.00  0.00    -0.088 SA
BRANCH  21  22
HETATM   22  C8  UNL     1       1.058   7.483  82.768  1.00  0.00     0.197 A
HETATM   23  N4  UNL     1       0.236   7.513  83.810  1.00  0.00    -0.264 N
HETATM   24  N5  UNL     1       0.743   6.740  84.744  1.00  0.00    -0.223 N
ATOM     25  H4  UNL     1      -0.634   8.042  83.874  1.00  0.00     0.190 HD
HETATM   26  N6  UNL     1       1.876   6.237  84.270  1.00  0.00     0.019 NA
ATOM     27  H5  UNL     1       0.340   6.559  85.663  1.00  0.00     0.205 HD
HETATM   28  N7  UNL     1       2.106   6.676  83.046  1.00  0.00    -0.151 N
BRANCH  28  29
HETATM   29  N8  UNL     1       3.186   6.381  82.212  1.00  0.00    -0.240 N
HETATM   30  C9  UNL     1       3.391   5.045  81.812  1.00  0.00     0.329 C
HETATM   31  O2  UNL     1       2.629   4.117  82.185  1.00  0.00    -0.261 OA
ATOM     32  H8  UNL     1       3.815   7.120  81.898  1.00  0.00     0.192 HD
BRANCH  30  33
HETATM   33  C10 UNL     1       4.512   4.733  80.944  1.00  0.00     0.317 C
HETATM   34  O3  UNL     1       4.347   4.464  79.725  1.00  0.00    -0.262 OA
HETATM   35  N9  UNL     1       5.834   4.718  81.433  1.00  0.00    -0.295 N
HETATM   36  C11 UNL     1       6.771   5.236  80.730  1.00  0.00     0.203 C
ATOM     37  H9  UNL     1       6.043   4.298  82.339  1.00  0.00     0.171 HD
HETATM   38  N10 UNL     1       8.093   5.209  81.245  1.00  0.00    -0.066 NA
HETATM   39  N11 UNL     1       6.473   5.814  79.481  1.00  0.00    -0.066 NA
ENDBRANCH  30  33
ENDBRANCH  28  29
ENDBRANCH  21  22
ENDBRANCH   1  21
TORSDOF 8
ENDMDL