MODEL 4
REMARK VINA RESULT: -6.978037172      3.256      4.898
REMARK  4 active torsions:
REMARK  status: ('A' for Active; 'I' for Inactive)
REMARK    1  A    between atoms: N2_6  and  C4_8
REMARK    2  A    between atoms: C4_8  and  C6_10
REMARK    3  A    between atoms: C11_17  and  N3_18
REMARK    4  A    between atoms: C15_22  and  N4_23
ROOT
HETATM    1  C1  UNL     1      87.892 120.652  14.167  1.00  0.00     0.070 C
HETATM    2  C2  UNL     1      88.564 119.348  13.914  1.00  0.00     0.029 A
HETATM    3  N1  UNL     1      89.101 119.078  12.721  1.00  0.00    -0.344 N
ATOM      4  H1  UNL     1      89.052 119.770  11.973  1.00  0.00     0.167 HD
HETATM    5  C3  UNL     1      89.706 117.899  12.502  1.00  0.00     0.108 A
HETATM    6  N2  UNL     1      90.199 117.701  11.344  1.00  0.00    -0.371 N
ATOM      7  H2  UNL     1      90.652 116.799  11.198  1.00  0.00     0.161 HD
HETATM    8  C7  UNL     1      89.797 116.938  13.473  1.00  0.00    -0.004 A
HETATM    9  C8  UNL     1      89.262 117.172  14.704  1.00  0.00    -0.022 A
HETATM   10  C9  UNL     1      88.637 118.403  14.917  1.00  0.00     0.063 A
HETATM   11 CL1  UNL     1      87.961 118.674  16.508  1.00  0.00    -0.082 Cl
HETATM   12  C10 UNL     1      89.343 116.151  15.782  1.00  0.00     0.076 C
HETATM   13  C11 UNL     1      90.647 115.389  15.552  1.00  0.00     0.224 C
HETATM   14  C15 UNL     1      90.520 114.681  14.242  1.00  0.00     0.219 C
HETATM   15  C16 UNL     1      90.491 115.671  13.111  1.00  0.00     0.077 C
ENDROOT
BRANCH   6  16
HETATM   16  C4  UNL     1      90.193 118.584  10.230  1.00  0.00     0.089 C
HETATM   17  C5  UNL     1      90.381 117.942   8.900  1.00  0.00     0.033 C
BRANCH  16  18
HETATM   18  C6  UNL     1      91.215 119.708  10.377  1.00  0.00     0.111 C
HETATM   19  S1  UNL     1      92.789 119.247   9.591  1.00  0.00    -0.096 SA
ENDBRANCH  16  18
ENDBRANCH   6  16
BRANCH  14  20
HETATM   20  N4  UNL     1      91.503 113.702  13.992  1.00  0.00    -0.073 N
ATOM     21  H43 UNL     1      92.260 114.100  13.437  1.00  0.00     0.274 HD
ATOM     22  H42 UNL     1      92.005 113.482  14.851  1.00  0.00     0.274 HD
ATOM     23  H41 UNL     1      91.162 112.846  13.555  1.00  0.00     0.274 HD
ENDBRANCH  14  20
BRANCH  13  24
HETATM   24  N3  UNL     1      91.025 114.577  16.649  1.00  0.00    -0.072 N
HETATM   25  C12 UNL     1      90.477 115.174  17.876  1.00  0.00     0.272 C
HETATM   26  C13 UNL     1      92.484 114.610  16.838  1.00  0.00     0.272 C
HETATM   27  C14 UNL     1      90.586 113.221  16.602  1.00  0.00     0.272 C
ENDBRANCH  13  24
TORSDOF 4
ENDMDL