MODEL 5
REMARK VINA RESULT: -7.601367583      3.184      6.073
REMARK  4 active torsions:
REMARK  status: ('A' for Active; 'I' for Inactive)
REMARK    1  A    between atoms: C2_2  and  C3_3
REMARK       I    between atoms: C3_3  and  N1_5
REMARK    2  A    between atoms: C4_7  and  C5_8
REMARK    3  A    between atoms: C5_8  and  C6_9
REMARK    4  A    between atoms: C12_17  and  N4_18
ROOT
HETATM    1  C3  UNL     1      90.835 118.967  10.351  1.00  0.00     0.258 C
HETATM    2  O1  UNL     1      90.601 120.133  10.824  1.00  0.00    -0.267 OA
HETATM    3  N1  UNL     1      91.057 117.860  11.197  1.00  0.00    -0.252 N
HETATM    4  N2  UNL     1      91.322 116.545  10.766  1.00  0.00    -0.130 NA
HETATM    5  C4  UNL     1      90.657 115.749  11.882  1.00  0.00     0.111 C
HETATM    6  C9  UNL     1      91.439 116.471  13.005  1.00  0.00     0.073 C
HETATM    7  C10 UNL     1      91.026 116.101  14.364  1.00  0.00     0.016 A
HETATM    8  C11 UNL     1      89.794 116.535  14.784  1.00  0.00     0.059 A
HETATM    9  N3  UNL     1      89.333 116.061  15.978  1.00  0.00    -0.192 N
ATOM     10  H3  UNL     1      88.418 116.359  16.316  1.00  0.00     0.184 HD
HETATM   11  C12 UNL     1      90.063 115.209  16.716  1.00  0.00     0.677 A
HETATM   12  N5  UNL     1      91.271 114.793  16.308  1.00  0.00    -0.181 N
ATOM     13  H5  UNL     1      91.808 114.149  16.889  1.00  0.00     0.185 HD
HETATM   14  C13 UNL     1      91.782 115.218  15.139  1.00  0.00     0.128 A
HETATM   15 CL1  UNL     1      93.370 114.687  14.608  1.00  0.00    -0.063 Cl
HETATM   16  C14 UNL     1      89.086 117.659  14.131  1.00  0.00     0.029 C
HETATM   17  C15 UNL     1      89.708 118.275  13.111  1.00  0.00     0.003 C
HETATM   18  C16 UNL     1      91.050 117.894  12.638  1.00  0.00     0.141 C
ENDROOT
BRANCH   1  19
HETATM   19  C2  UNL     1      90.863 118.830   8.907  1.00  0.00     0.065 C
HETATM   20  C1  UNL     1      91.905 119.179   8.199  1.00  0.00     0.017 C
ENDBRANCH   1  19
BRANCH   5  21
HETATM   21  C5  UNL     1      91.001 114.340  11.658  1.00  0.00     0.028 C
BRANCH  21  22
HETATM   22  C6  UNL     1      89.904 113.326  11.882  1.00  0.00    -0.013 A
HETATM   23  C7  UNL     1      89.083 113.383  13.103  1.00  0.00     0.005 A
HETATM   24  C8  UNL     1      90.156 112.378  13.027  1.00  0.00     0.005 A
ENDBRANCH  21  22
ENDBRANCH   5  21
BRANCH  11  25
HETATM   25  N4  UNL     1      89.605 114.780  17.835  1.00  0.00    -0.234 N
ATOM     26  H42 UNL     1      89.991 113.922  18.230  1.00  0.00     0.174 HD
ATOM     27  H41 UNL     1      88.866 115.297  18.312  1.00  0.00     0.174 HD
ENDBRANCH  11  25
TORSDOF 4
ENDMDL