MODEL 1
REMARK VINA RESULT: -6.312920062      0.000      0.000
REMARK  4 active torsions:
REMARK  status: ('A' for Active; 'I' for Inactive)
REMARK    1  A    between atoms: C2_2  and  N1_3
REMARK    2  A    between atoms: C4_5  and  C5_6
REMARK    3  A    between atoms: C15_17  and  O1_18
REMARK    4  A    between atoms: C17_21  and  N2_22
ROOT
HETATM    1  N1  UNL     1      90.573 115.993   9.595  1.00  0.00     0.126 N
HETATM    2  C3  UNL     1      91.480 116.923   9.004  1.00  0.00     0.288 C
HETATM    3  C4  UNL     1      91.671 118.202   9.844  1.00  0.00     0.012 C
HETATM    4  C7  UNL     1      93.127 118.082  10.305  1.00  0.00     0.015 C
HETATM    5  C8  UNL     1      93.006 116.969  11.310  1.00  0.00     0.019 C
HETATM    6  C9  UNL     1      91.507 116.779  11.576  1.00  0.00     0.055 C
HETATM    7  C10 UNL     1      91.176 117.182  12.930  1.00  0.00    -0.027 C
HETATM    8  C11 UNL     1      92.287 116.906  13.960  1.00  0.00     0.016 C
HETATM    9  C12 UNL     1      89.874 116.752  13.461  1.00  0.00     0.012 C
HETATM   10  C13 UNL     1      89.649 115.304  13.097  1.00  0.00     0.026 C
HETATM   11  C14 UNL     1      89.817 114.931  11.680  1.00  0.00     0.149 C
HETATM   12 CL1  UNL     1      90.050 113.135  11.657  1.00  0.00    -0.120 Cl
HETATM   13  C15 UNL     1      90.928 115.599  10.947  1.00  0.00     0.286 C
HETATM   14  C16 UNL     1      91.318 118.602  12.373  1.00  0.00     0.042 C
HETATM   15  C17 UNL     1      90.857 118.033  11.047  1.00  0.00     0.048 C
ENDROOT
BRANCH  15  16
HETATM   16  N2  UNL     1      89.509 118.176  10.912  1.00  0.00    -0.415 N
HETATM   17  C18 UNL     1      88.946 119.475  10.839  1.00  0.00     0.140 C
ATOM     18  H2  UNL     1      88.908 117.353  10.864  1.00  0.00     0.153 HD
ENDBRANCH  15  16
BRANCH   3  19
HETATM   19  C5  UNL     1      91.554 119.422   9.024  1.00  0.00     0.009 C
HETATM   20  C6  UNL     1      92.048 119.056   7.606  1.00  0.00     0.006 C
ENDBRANCH   3  19
BRANCH  13  21
HETATM   21  O1  UNL     1      91.969 114.649  10.814  1.00  0.00    -0.361 OA
ATOM     22  H1  UNL     1      91.794 114.182  10.004  1.00  0.00     0.212 HD
ENDBRANCH  13  21
BRANCH   1  23
HETATM   23  C2  UNL     1      90.253 114.920   8.728  1.00  0.00     0.272 C
HETATM   24  C1  UNL     1      90.659 115.361   7.312  1.00  0.00     0.037 C
ENDBRANCH   1  23
TORSDOF 4
ENDMDL