MODEL 1
REMARK VINA RESULT: -8.588181882      0.000      0.000
REMARK  6 active torsions:
REMARK  status: ('A' for Active; 'I' for Inactive)
REMARK    1  A    between atoms: C2_2  and  C3_3
REMARK    2  A    between atoms: C3_3  and  N1_4
REMARK    3  A    between atoms: N1_4  and  C4_6
REMARK    4  A    between atoms: C5_9  and  N3_10
REMARK    5  A    between atoms: N3_10  and  C6_12
REMARK    6  A    between atoms: C11_17  and  N4_18
ROOT
HETATM    1  C4  UNL     1      89.363 118.081  13.819  1.00  0.00     0.129 A
HETATM    2  N2  UNL     1      90.165 117.943  12.758  1.00  0.00    -0.176 N
ATOM      3  H2  UNL     1      90.641 117.061  12.566  1.00  0.00     0.186 HD
HETATM    4  C5  UNL     1      90.325 119.025  11.939  1.00  0.00     0.680 A
HETATM    5  N5  UNL     1      89.699 120.168  12.197  1.00  0.00    -0.191 N
ATOM      6  H5  UNL     1      89.842 120.954  11.562  1.00  0.00     0.184 HD
HETATM    7  C12 UNL     1      88.883 120.341  13.262  1.00  0.00     0.063 A
HETATM    8  C13 UNL     1      88.236 121.522  13.530  1.00  0.00     0.032 A
HETATM    9  C14 UNL     1      87.402 121.700  14.616  1.00  0.00     0.026 A
HETATM   10  C15 UNL     1      87.230 120.614  15.457  1.00  0.00     0.035 A
HETATM   11 CL1  UNL     1      86.190 120.777  16.841  1.00  0.00    -0.084 Cl
HETATM   12  C16 UNL     1      87.872 119.398  15.212  1.00  0.00     0.041 A
HETATM   13  C17 UNL     1      88.695 119.275  14.112  1.00  0.00     0.037 A
ENDROOT
BRANCH   4  14
HETATM   14  N3  UNL     1      91.081 118.905  10.930  1.00  0.00    -0.219 N
ATOM     15  H3  UNL     1      92.059 119.158  11.074  1.00  0.00     0.178 HD
BRANCH  14  16
HETATM   16  C6  UNL     1      90.739 118.457   9.612  1.00  0.00     0.129 C
HETATM   17  C7  UNL     1      90.511 116.969   9.663  1.00  0.00     0.027 C
HETATM   18  C8  UNL     1      90.139 116.534   8.259  1.00  0.00     0.002 C
HETATM   19  C9  UNL     1      91.397 116.705   7.450  1.00  0.00     0.002 C
HETATM   20  C10 UNL     1      91.912 118.091   7.405  1.00  0.00     0.035 C
HETATM   21  C11 UNL     1      91.827 118.868   8.671  1.00  0.00     0.206 C
BRANCH  21  22
HETATM   22  N4  UNL     1      91.635 120.281   8.385  1.00  0.00    -0.073 N
ATOM     23  H43 UNL     1      90.964 120.449   7.635  1.00  0.00     0.274 HD
ATOM     24  H42 UNL     1      91.132 120.774   9.124  1.00  0.00     0.274 HD
ATOM     25  H41 UNL     1      92.555 120.677   8.195  1.00  0.00     0.274 HD
ENDBRANCH  21  22
ENDBRANCH  14  16
ENDBRANCH   4  14
BRANCH   1  26
HETATM   26  N1  UNL     1      89.187 117.089  14.607  1.00  0.00    -0.372 N
ATOM     27  H1  UNL     1      88.569 117.202  15.411  1.00  0.00     0.161 HD
BRANCH  26  28
HETATM   28  C3  UNL     1      89.827 115.822  14.401  1.00  0.00     0.147 C
BRANCH  28  29
HETATM   29  C2  UNL     1      89.092 114.906  13.497  1.00  0.00    -0.018 C
HETATM   30  C1  UNL     1      89.701 114.357  12.480  1.00  0.00     0.008 C
ENDBRANCH  28  29
ENDBRANCH  26  28
ENDBRANCH   1  26
TORSDOF 6
ENDMDL