MODEL 5
REMARK VINA RESULT: -9.134595121      2.125      8.158
REMARK  5 active torsions:
REMARK  status: ('A' for Active; 'I' for Inactive)
REMARK    1  A    between atoms: C6_7  and  C7_8
REMARK    2  A    between atoms: C7_8  and  N1_9
REMARK    3  A    between atoms: N1_9  and  C8_11
REMARK    4  A    between atoms: C10_17  and  N4_18
REMARK    5  A    between atoms: N4_18  and  C11_20
ROOT
HETATM    1  C8  UNL     1      88.866 120.120  11.502  1.00  0.00     0.693 A
HETATM    2  N2  UNL     1      88.480 121.113  10.683  1.00  0.00    -0.187 N
ATOM      3  H2  UNL     1      88.933 121.220   9.776  1.00  0.00     0.185 HD
HETATM    4  C9  UNL     1      87.490 121.980  11.044  1.00  0.00     0.215 A
HETATM    5  N3  UNL     1      86.880 121.859  12.235  1.00  0.00    -0.187 N
ATOM      6  H3  UNL     1      86.142 122.506  12.511  1.00  0.00     0.185 HD
HETATM    7  C10 UNL     1      87.263 120.871  13.053  1.00  0.00     0.693 A
HETATM    8  N5  UNL     1      88.244 120.013  12.689  1.00  0.00    -0.022 N
ATOM      9  H5  UNL     1      88.518 119.269  13.329  1.00  0.00     0.203 HD
ENDROOT
BRANCH   1  10
HETATM   10  N1  UNL     1      89.795 119.287  11.187  1.00  0.00    -0.221 N
ATOM     11  H1  UNL     1      89.873 118.385  11.656  1.00  0.00     0.178 HD
BRANCH  10  12
HETATM   12  C7  UNL     1      90.724 119.668  10.147  1.00  0.00     0.176 C
BRANCH  12  13
HETATM   13  C6  UNL     1      90.994 118.480   9.303  1.00  0.00    -0.038 A
HETATM   14  C5  UNL     1      90.549 117.209   9.679  1.00  0.00     0.032 A
HETATM   15  C4  UNL     1      90.835 116.154   8.847  1.00  0.00     0.035 A
HETATM   16  C3  UNL     1      91.545 116.328   7.665  1.00  0.00     0.030 A
HETATM   17 CL1  UNL     1      90.266 114.555   9.337  1.00  0.00    -0.084 Cl
HETATM   18  C2  UNL     1      91.985 117.574   7.290  1.00  0.00    -0.060 A
HETATM   19  C1  UNL     1      92.751 117.811   6.031  1.00  0.00     0.048 C
HETATM   20  C16 UNL     1      91.698 118.635   8.125  1.00  0.00     0.015 A
ENDBRANCH  12  13
ENDBRANCH  10  12
ENDBRANCH   1  10
BRANCH   7  21
HETATM   21  N4  UNL     1      86.729 120.679  14.220  1.00  0.00    -0.221 N
ATOM     22  H4  UNL     1      85.738 120.444  14.268  1.00  0.00     0.178 HD
BRANCH  21  23
HETATM   23  C11 UNL     1      87.472 120.783  15.452  1.00  0.00     0.099 C
HETATM   24  C12 UNL     1      86.669 121.567  16.444  1.00  0.00     0.026 C
HETATM   25  C13 UNL     1      86.268 120.555  17.479  1.00  0.00     0.002 C
HETATM   26  C14 UNL     1      87.424 119.576  17.546  1.00  0.00     0.002 C
HETATM   27  C15 UNL     1      87.792 119.451  16.066  1.00  0.00     0.026 C
ENDBRANCH  21  23
ENDBRANCH   7  21
TORSDOF 5
ENDMDL