MODEL 1
REMARK VINA RESULT: -9.302390963      0.000      0.000
REMARK  6 active torsions:
REMARK  status: ('A' for Active; 'I' for Inactive)
REMARK    1  A    between atoms: N1_1  and  C1_5
REMARK    2  A    between atoms: C4_8  and  C5_9
REMARK    3  A    between atoms: C5_9  and  N2_10
REMARK    4  A    between atoms: N2_10  and  C6_12
REMARK    5  A    between atoms: C7_15  and  N4_16
REMARK    6  A    between atoms: N4_16  and  C8_18
ROOT
HETATM    1  C6  UNL     1      88.896 120.375  12.186  1.00  0.00     0.157 A
HETATM    2  N3  UNL     1      88.661 119.989  13.450  1.00  0.00    -0.174 N
ATOM      3  H3  UNL     1      89.387 119.470  13.945  1.00  0.00     0.186 HD
HETATM    4  C7  UNL     1      87.492 120.263  14.103  1.00  0.00     0.679 A
HETATM    5  N5  UNL     1      86.557 120.949  13.425  1.00  0.00    -0.199 N
ATOM      6  H5  UNL     1      85.672 121.171  13.883  1.00  0.00     0.183 HD
HETATM    7  C15 UNL     1      86.759 121.352  12.151  1.00  0.00     0.152 A
HETATM    8  C16 UNL     1      87.931 121.076  11.502  1.00  0.00     0.176 A
HETATM    9  F1  UNL     1      88.188 121.459  10.221  1.00  0.00    -0.201 F
ENDROOT
BRANCH   1  10
HETATM   10  N2  UNL     1      90.030 120.081  11.628  1.00  0.00    -0.373 N
ATOM     11  H2  UNL     1      90.750 120.798  11.534  1.00  0.00     0.161 HD
BRANCH  10  12
HETATM   12  C5  UNL     1      90.278 118.751  11.142  1.00  0.00     0.126 C
BRANCH  12  13
HETATM   13  C4  UNL     1      90.382 118.846   9.621  1.00  0.00     0.003 C
HETATM   14  C3  UNL     1      90.246 117.482   9.021  1.00  0.00     0.008 C
HETATM   15  C2  UNL     1      91.576 116.896   8.601  1.00  0.00     0.033 C
HETATM   16  C1  UNL     1      92.344 117.788   7.672  1.00  0.00     0.183 C
HETATM   17  C18 UNL     1      92.010 119.254   7.855  1.00  0.00     0.033 C
HETATM   18  C17 UNL     1      91.704 119.495   9.302  1.00  0.00     0.008 C
BRANCH  16  19
HETATM   19  N1  UNL     1      91.967 117.439   6.300  1.00  0.00    -0.075 N
ATOM     20  H13 UNL     1      91.461 116.555   6.242  1.00  0.00     0.274 HD
ATOM     21  H12 UNL     1      91.233 118.040   5.926  1.00  0.00     0.274 HD
ATOM     22  H11 UNL     1      92.815 117.448   5.732  1.00  0.00     0.274 HD
ENDBRANCH  16  19
ENDBRANCH  12  13
ENDBRANCH  10  12
ENDBRANCH   1  10
BRANCH   4  23
HETATM   23  N4  UNL     1      87.344 119.859  15.316  1.00  0.00    -0.221 N
ATOM     24  H4  UNL     1      87.225 118.864  15.506  1.00  0.00     0.178 HD
BRANCH  23  25
HETATM   25  C8  UNL     1      87.344 120.790  16.393  1.00  0.00     0.103 C
HETATM   26  C9  UNL     1      86.001 120.880  17.095  1.00  0.00     0.030 C
HETATM   27  C10 UNL     1      86.257 120.646  18.568  1.00  0.00    -0.012 C
HETATM   28  C11 UNL     1      86.513 119.191  18.773  1.00  0.00     0.005 C
HETATM   29  C14 UNL     1      87.689 121.203  18.663  1.00  0.00     0.011 C
HETATM   30  C12 UNL     1      87.793 118.978  17.948  1.00  0.00     0.007 C
HETATM   31  C13 UNL     1      88.249 120.337  17.524  1.00  0.00     0.009 C
ENDBRANCH  23  25
ENDBRANCH   4  23
TORSDOF 6
ENDMDL