MODEL 3
REMARK VINA RESULT: -8.416878165      1.661      2.035
REMARK  4 active torsions:
REMARK  status: ('A' for Active; 'I' for Inactive)
REMARK    1  A    between atoms: N2_7  and  C5_9
REMARK    2  A    between atoms: C7_11  and  N3_12
REMARK    3  A    between atoms: N3_12  and  C8_14
REMARK    4  A    between atoms: C8_14  and  C9_15
ROOT
HETATM    1  C5  UNL     1      89.237 120.064  11.273  1.00  0.00     0.125 A
HETATM    2  C6  UNL     1      89.484 119.977  12.633  1.00  0.00     0.099 A
HETATM    3  C7  UNL     1      88.331 120.216  13.317  1.00  0.00     0.119 A
HETATM    4  N4  UNL     1      87.384 120.448  12.384  1.00  0.00    -0.284 N
ATOM      5  H4  UNL     1      86.405 120.661  12.575  1.00  0.00     0.188 HD
HETATM    6  N5  UNL     1      87.935 120.355  11.170  1.00  0.00    -0.284 N
ATOM      7  H5  UNL     1      87.435 120.487  10.290  1.00  0.00     0.188 HD
ENDROOT
BRANCH   1   8
HETATM    8  N2  UNL     1      90.155 119.887  10.201  1.00  0.00    -0.327 N
HETATM    9  C4  UNL     1      90.564 118.707   9.866  1.00  0.00     0.114 A
HETATM   10  N1  UNL     1      90.156 117.595  10.502  1.00  0.00    -0.351 N
HETATM   11  C13 UNL     1      91.450 118.566   8.826  1.00  0.00     0.004 A
HETATM   12  C3  UNL     1      90.598 116.389  10.134  1.00  0.00     0.098 A
ATOM     13  H1  UNL     1      89.498 117.673  11.277  1.00  0.00     0.166 HD
HETATM   14  C2  UNL     1      91.489 116.206   9.092  1.00  0.00    -0.024 A
HETATM   15  C1  UNL     1      91.986 114.885   8.674  1.00  0.00     0.051 C
HETATM   16  C15 UNL     1      91.914 117.330   8.435  1.00  0.00     0.051 A
HETATM   17 CL1  UNL     1      93.047 117.243   7.092  1.00  0.00    -0.083 Cl
HETATM   18  C14 UNL     1      91.915 119.801   8.106  1.00  0.00     0.054 C
ATOM     19  H2  UNL     1      90.494 120.702   9.689  1.00  0.00     0.169 HD
ENDBRANCH   1   8
BRANCH   3  20
HETATM   20  N3  UNL     1      88.206 120.213  14.599  1.00  0.00    -0.375 N
ATOM     21  H3  UNL     1      88.743 119.539  15.143  1.00  0.00     0.161 HD
BRANCH  20  22
HETATM   22  C8  UNL     1      87.328 121.134  15.298  1.00  0.00     0.128 C
BRANCH  22  23
HETATM   23  C9  UNL     1      87.424 120.803  16.769  1.00  0.00     0.029 C
HETATM   24  C10 UNL     1      87.780 119.351  17.005  1.00  0.00     0.034 C
HETATM   25  C11 UNL     1      87.047 119.057  18.278  1.00  0.00     0.168 C
HETATM   26  O1  UNL     1      86.143 120.054  18.509  1.00  0.00    -0.391 OA
HETATM   27  C12 UNL     1      86.024 120.831  17.380  1.00  0.00     0.173 C
ENDBRANCH  22  23
ENDBRANCH  20  22
ENDBRANCH   3  20
TORSDOF 4
ENDMDL