MODEL 1
REMARK VINA RESULT: -8.302305837      0.000      0.000
REMARK  6 active torsions:
REMARK  status: ('A' for Active; 'I' for Inactive)
REMARK    1  A    between atoms: C1_2  and  C2_3
REMARK    2  A    between atoms: C7_8  and  N1_9
REMARK    3  A    between atoms: N1_9  and  C8_11
REMARK    4  A    between atoms: C9_14  and  N3_15
REMARK    5  A    between atoms: N3_15  and  C10_17
REMARK    6  A    between atoms: C14_23  and  C15_24
ROOT
HETATM    1  C8  UNL     1      89.564 119.051  12.376  1.00  0.00     0.132 A
HETATM    2  N2  UNL     1      88.823 119.516  13.395  1.00  0.00    -0.176 N
ATOM      3  H2  UNL     1      88.919 119.072  14.307  1.00  0.00     0.186 HD
HETATM    4  C9  UNL     1      87.959 120.540  13.269  1.00  0.00     0.679 A
HETATM    5  N4  UNL     1      87.840 121.116  12.068  1.00  0.00    -0.201 N
ATOM      6  H4  UNL     1      87.189 121.893  11.960  1.00  0.00     0.183 HD
HETATM    7  C13 UNL     1      88.551 120.707  10.990  1.00  0.00     0.125 A
HETATM    8  C14 UNL     1      89.440 119.648  11.131  1.00  0.00     0.068 A
ENDROOT
BRANCH   1   9
HETATM    9  N1  UNL     1      90.399 118.073  12.462  1.00  0.00    -0.370 N
ATOM     10  H1  UNL     1      91.285 118.163  11.964  1.00  0.00     0.161 HD
BRANCH   9  11
HETATM   11  C7  UNL     1      90.174 116.858  13.211  1.00  0.00     0.089 C
HETATM   12  C2  UNL     1      91.361 116.597  14.084  1.00  0.00     0.037 C
HETATM   13  C3  UNL     1      91.429 115.211  14.645  1.00  0.00     0.009 C
HETATM   14  C4  UNL     1      91.044 114.132  13.695  1.00  0.00     0.001 C
HETATM   15  C5  UNL     1      89.803 114.454  12.899  1.00  0.00     0.002 C
HETATM   16  C6  UNL     1      89.941 115.761  12.185  1.00  0.00     0.026 C
BRANCH  12  17
HETATM   17  C1  UNL     1      92.676 116.963  13.443  1.00  0.00     0.228 C
HETATM   18  F1  UNL     1      93.676 117.211  14.343  1.00  0.00    -0.255 F
ENDBRANCH  12  17
ENDBRANCH   9  11
ENDBRANCH   1   9
BRANCH   8  19
HETATM   19  C15 UNL     1      90.224 119.174   9.999  1.00  0.00     0.120 A
HETATM   20  N5  UNL     1      91.208 119.861   9.412  1.00  0.00    -0.350 N
HETATM   21  C16 UNL     1      91.734 119.149   8.392  1.00  0.00     0.106 A
ATOM     22  H5  UNL     1      91.517 120.792   9.693  1.00  0.00     0.166 HD
HETATM   23  C17 UNL     1      91.043 117.963   8.346  1.00  0.00     0.106 A
HETATM   24  N6  UNL     1      90.133 118.012   9.336  1.00  0.00    -0.350 N
ATOM     25  H6  UNL     1      89.468 117.270   9.552  1.00  0.00     0.166 HD
ENDBRANCH   8  19
BRANCH   4  26
HETATM   26  N3  UNL     1      87.295 120.924  14.274  1.00  0.00    -0.221 N
ATOM     27  H3  UNL     1      86.540 121.583  14.086  1.00  0.00     0.178 HD
BRANCH  26  28
HETATM   28  C10 UNL     1      87.474 120.550  15.631  1.00  0.00     0.099 A
HETATM   29  C11 UNL     1      86.442 121.154  16.593  1.00  0.00     0.028 A
HETATM   30  C12 UNL     1      87.909 121.468  16.688  1.00  0.00     0.028 A
ENDBRANCH  26  28
ENDBRANCH   4  26
TORSDOF 6
ENDMDL