MODEL 1
REMARK VINA RESULT: -9.595888689      0.000      0.000
REMARK  2 active torsions:
REMARK  status: ('A' for Active; 'I' for Inactive)
REMARK    1  A    between atoms: C3_4  and  C4_5
REMARK    2  A    between atoms: C6_9  and  N2_10
ROOT
HETATM    1  F1  UNL     1      93.534 119.599   9.645  1.00  0.00    -0.249 F
HETATM    2  C1  UNL     1      92.182 119.742   9.466  1.00  0.00     0.174 C
HETATM    3  C2  UNL     1      91.446 119.928  10.794  1.00  0.00     0.076 C
HETATM    4  C3  UNL     1      90.018 119.458  10.485  1.00  0.00     0.240 C
HETATM    5  N4  UNL     1      90.054 118.033  10.459  1.00  0.00    -0.056 N
ATOM      6  H41 UNL     1      89.118 117.635  10.373  1.00  0.00     0.279 HD
ATOM      7  H42 UNL     1      90.305 117.647  11.368  1.00  0.00     0.279 HD
HETATM    8  C11 UNL     1      90.943 117.546   9.404  1.00  0.00     0.133 C
HETATM    9  C12 UNL     1      91.548 118.706   8.619  1.00  0.00     0.076 C
HETATM   10  C13 UNL     1      92.048 116.803  10.045  1.00  0.00     0.072 C
HETATM   11  C14 UNL     1      92.039 115.324   9.873  1.00  0.00     0.189 C
HETATM   12  C15 UNL     1      92.735 115.022   8.538  1.00  0.00     0.035 C
HETATM   13  C16 UNL     1      91.620 115.099   7.519  1.00  0.00     0.035 C
HETATM   14  C17 UNL     1      90.399 115.311   8.372  1.00  0.00     0.189 C
HETATM   15  C18 UNL     1      90.095 116.767   8.448  1.00  0.00     0.072 C
HETATM   16  N5  UNL     1      90.723 114.758   9.694  1.00  0.00    -0.067 N
ATOM     17  H51 UNL     1      90.049 114.947  10.435  1.00  0.00     0.278 HD
ATOM     18  H52 UNL     1      90.656 113.744   9.783  1.00  0.00     0.278 HD
ENDROOT
BRANCH   4  19
HETATM   19  C4  UNL     1      89.062 119.958  11.471  1.00  0.00     0.073 A
HETATM   20  C5  UNL     1      87.876 120.627  11.225  1.00  0.00     0.134 A
HETATM   21  N1  UNL     1      87.316 120.899  12.416  1.00  0.00    -0.200 N
HETATM   22  C6  UNL     1      88.105 120.425  13.422  1.00  0.00     0.680 A
ATOM     23  H1  UNL     1      86.431 121.389  12.548  1.00  0.00     0.183 HD
HETATM   24  N3  UNL     1      89.154 119.861  12.808  1.00  0.00    -0.192 N
ATOM     25  H3  UNL     1      89.929 119.413  13.297  1.00  0.00     0.184 HD
BRANCH  22  26
HETATM   26  N2  UNL     1      87.835 120.528  14.820  1.00  0.00    -0.218 N
HETATM   27  C7  UNL     1      87.407 121.764  15.445  1.00  0.00     0.141 C
HETATM   28  C8  UNL     1      86.439 121.229  16.504  1.00  0.00     0.022 C
HETATM   29  C9  UNL     1      87.268 120.052  17.036  1.00  0.00     0.022 C
HETATM   30  C10 UNL     1      87.932 119.487  15.810  1.00  0.00     0.141 C
ENDBRANCH  22  26
ENDBRANCH   4  19
TORSDOF 2
ENDMDL