MODEL 3
REMARK VINA RESULT: -9.305093852      2.061      2.625
REMARK  5 active torsions:
REMARK  status: ('A' for Active; 'I' for Inactive)
REMARK    1  A    between atoms: C1_2  and  C2_5
REMARK    2  A    between atoms: C7_10  and  O1_11
REMARK    3  A    between atoms: O1_11  and  C8_12
REMARK    4  A    between atoms: N2_18  and  C12_20
REMARK    5  A    between atoms: C12_20  and  C13_21
ROOT
HETATM    1  C8  UNL     1      15.746 119.349 130.964  1.00  0.00     0.074 A
HETATM    2  C9  UNL     1      15.273 119.850 129.781  1.00  0.00     0.054 A
HETATM    3  C10 UNL     1      14.033 120.442 129.667  1.00  0.00     0.092 A
HETATM    4  N1  UNL     1      13.244 120.545 130.738  1.00  0.00    -0.352 N
ATOM      5  H1  UNL     1      12.328 120.985 130.647  1.00  0.00     0.166 HD
HETATM    6  C11 UNL     1      13.643 120.070 131.955  1.00  0.00     0.103 A
HETATM    7  N2  UNL     1      12.861 120.189 132.948  1.00  0.00    -0.376 N
ATOM      8  H2  UNL     1      11.950 120.631 132.833  1.00  0.00     0.161 HD
HETATM    9  C16 UNL     1      14.895 119.472 132.067  1.00  0.00     0.085 A
ENDROOT
BRANCH   1  10
HETATM   10  O1  UNL     1      16.954 118.760 131.122  1.00  0.00    -0.345 OA
BRANCH  10  11
HETATM   11  C7  UNL     1      17.399 117.578 130.581  1.00  0.00     0.133 C
HETATM   12  C6  UNL     1      18.521 116.990 131.417  1.00  0.00     0.033 C
HETATM   13  C5  UNL     1      19.071 115.732 130.827  1.00  0.00     0.007 C
HETATM   14  C4  UNL     1      18.046 114.776 130.333  1.00  0.00    -0.009 C
HETATM   15  C3  UNL     1      17.387 113.996 131.483  1.00  0.00     0.023 C
HETATM   16  C19 UNL     1      16.918 115.418 129.570  1.00  0.00    -0.003 C
HETATM   17  C2  UNL     1      15.957 114.391 131.344  1.00  0.00     0.059 C
HETATM   18  C18 UNL     1      15.838 115.865 131.604  1.00  0.00     0.026 C
HETATM   19  C20 UNL     1      15.817 114.363 129.812  1.00  0.00     0.024 C
HETATM   20  C17 UNL     1      16.318 116.551 130.366  1.00  0.00     0.021 C
BRANCH  17  21
HETATM   21  C1  UNL     1      14.966 113.546 132.024  1.00  0.00     0.395 C
HETATM   22  F1  UNL     1      13.906 114.372 132.420  1.00  0.00    -0.170 F
HETATM   23  F2  UNL     1      14.399 112.598 131.196  1.00  0.00    -0.170 F
HETATM   24  F3  UNL     1      15.468 112.911 133.116  1.00  0.00    -0.170 F
ENDBRANCH  17  21
ENDBRANCH  10  11
ENDBRANCH   1  10
BRANCH   7  25
HETATM   25  C12 UNL     1      13.266 119.695 134.234  1.00  0.00     0.129 C
BRANCH  25  26
HETATM   26  C13 UNL     1      13.224 120.858 135.204  1.00  0.00     0.055 C
HETATM   27  C14 UNL     1      12.127 121.860 134.930  1.00  0.00     0.240 C
HETATM   28  N3  UNL     1      11.337 121.260 135.990  1.00  0.00    -0.074 N
HETATM   29  C15 UNL     1      12.449 120.451 136.448  1.00  0.00     0.240 C
ATOM     30  H32 UNL     1      10.863 121.870 136.657  1.00  0.00     0.277 HD
ATOM     31  H31 UNL     1      10.458 120.801 135.751  1.00  0.00     0.277 HD
ENDBRANCH  25  26
ENDBRANCH   7  25
TORSDOF 5
ENDMDL