MODEL 5
REMARK VINA RESULT: -8.157656361      2.569      3.322
REMARK  4 active torsions:
REMARK  status: ('A' for Active; 'I' for Inactive)
REMARK    1  A    between atoms: N1_2  and  C2_4
REMARK    2  A    between atoms: C4_6  and  C5_7
REMARK    3  A    between atoms: C5_7  and  C6_8
REMARK    4  A    between atoms: C11_13  and  N2_14
REMARK       I    between atoms: N2_14  and  C12_16
REMARK       I    between atoms: C12_16  and  N3_18
ROOT
HETATM    1  C2  UNL     1      13.310 120.114 134.233  1.00  0.00     0.084 A
HETATM    2  C3  UNL     1      13.599 118.781 134.324  1.00  0.00     0.043 A
HETATM    3  C4  UNL     1      14.214 118.051 133.336  1.00  0.00    -0.029 A
HETATM    4  C11 UNL     1      14.579 118.694 132.146  1.00  0.00     0.044 A
HETATM    5  C17 UNL     1      14.302 120.026 132.031  1.00  0.00     0.056 A
HETATM    6  C18 UNL     1      13.673 120.736 133.062  1.00  0.00     0.065 A
HETATM    7 CL1  UNL     1      13.346 122.440 132.854  1.00  0.00    -0.082 Cl
ENDROOT
BRANCH   4   8
HETATM    8  N2  UNL     1      15.188 117.911 131.146  1.00  0.00    -0.308 N
HETATM    9  C12 UNL     1      16.554 117.682 130.925  1.00  0.00     0.323 C
HETATM   10  O1  UNL     1      17.457 118.166 131.622  1.00  0.00    -0.247 OA
HETATM   11  N3  UNL     1      16.965 116.842 129.834  1.00  0.00    -0.331 N
HETATM   12  C13 UNL     1      15.994 116.224 128.957  1.00  0.00     0.155 C
HETATM   13  C16 UNL     1      18.365 116.586 129.576  1.00  0.00     0.155 C
HETATM   14  C14 UNL     1      16.735 115.124 128.186  1.00  0.00     0.252 C
HETATM   15  N4  UNL     1      17.484 114.334 129.166  1.00  0.00    -0.072 N
HETATM   16  C15 UNL     1      18.615 115.094 129.665  1.00  0.00     0.252 C
ATOM     17  H42 UNL     1      16.886 114.000 129.922  1.00  0.00     0.277 HD
ATOM     18  H41 UNL     1      17.769 113.430 128.788  1.00  0.00     0.277 HD
ATOM     19  H2  UNL     1      14.552 117.449 130.496  1.00  0.00     0.170 HD
ENDBRANCH   4   8
BRANCH   3  20
HETATM   20  C5  UNL     1      14.488 116.617 133.562  1.00  0.00     0.045 C
BRANCH  20  21
HETATM   21  C6  UNL     1      15.629 116.381 134.488  1.00  0.00    -0.010 C
HETATM   22  C7  UNL     1      15.146 115.905 135.865  1.00  0.00     0.005 C
HETATM   23  C8  UNL     1      16.183 114.920 136.359  1.00  0.00     0.000 C
HETATM   24  C9  UNL     1      17.303 114.972 135.319  1.00  0.00     0.000 C
HETATM   25  C10 UNL     1      16.466 115.194 134.055  1.00  0.00     0.005 C
ENDBRANCH  20  21
ENDBRANCH   3  20
BRANCH   1  26
HETATM   26  N1  UNL     1      12.675 120.846 135.271  1.00  0.00    -0.219 N
HETATM   27  C1  UNL     1      13.408 121.258 136.455  1.00  0.00     0.191 C
HETATM   28  F1  UNL     1      11.368 121.150 135.130  1.00  0.00    -0.099 F
ENDBRANCH   1  26
TORSDOF 4
ENDMDL