MODEL 5
REMARK VINA RESULT: -7.725725143      1.969      2.444
REMARK  5 active torsions:
REMARK  status: ('A' for Active; 'I' for Inactive)
REMARK    1  A    between atoms: C3_4  and  N2_5
REMARK       I    between atoms: N2_5  and  C4_7
REMARK    2  A    between atoms: C4_7  and  C5_9
REMARK    3  A    between atoms: C5_9  and  C6_10
REMARK    4  A    between atoms: C6_10  and  N3_11
REMARK    5  A    between atoms: C6_10  and  C7_15
ROOT
HETATM    1  C1  UNL     1      17.519 119.376 128.703  1.00  0.00     0.150 C
HETATM    2  N1  UNL     1      16.838 119.119 129.925  1.00  0.00    -0.381 N
HETATM    3  C2  UNL     1      16.005 119.985 130.765  1.00  0.00     0.152 C
HETATM    4  C3  UNL     1      14.953 119.014 131.194  1.00  0.00     0.139 C
HETATM    5  C10 UNL     1      15.718 117.759 131.396  1.00  0.00     0.018 A
HETATM    6  C11 UNL     1      15.467 116.637 132.178  1.00  0.00     0.068 A
HETATM    7 CL1  UNL     1      14.000 116.639 133.136  1.00  0.00    -0.082 Cl
HETATM    8  C12 UNL     1      16.354 115.608 132.164  1.00  0.00     0.080 A
HETATM    9 CL2  UNL     1      16.010 114.209 133.160  1.00  0.00    -0.081 Cl
HETATM   10  C13 UNL     1      17.484 115.676 131.387  1.00  0.00     0.084 A
HETATM   11 CL3  UNL     1      18.604 114.353 131.384  1.00  0.00    -0.080 Cl
HETATM   12  C14 UNL     1      17.736 116.788 130.611  1.00  0.00     0.097 A
HETATM   13  N4  UNL     1      18.896 116.873 129.804  1.00  0.00    -0.098 NA
HETATM   14  C15 UNL     1      16.846 117.853 130.606  1.00  0.00     0.066 A
ENDROOT
BRANCH   4  15
HETATM   15  N2  UNL     1      14.178 119.429 132.318  1.00  0.00    -0.351 N
HETATM   16  C4  UNL     1      13.109 120.342 132.120  1.00  0.00     0.220 C
HETATM   17  O1  UNL     1      12.834 120.790 130.976  1.00  0.00    -0.274 OA
ATOM     18  H2  UNL     1      14.390 119.074 133.251  1.00  0.00     0.163 HD
BRANCH  16  19
HETATM   19  C5  UNL     1      12.252 120.823 133.241  1.00  0.00     0.135 C
BRANCH  19  20
HETATM   20  C6  UNL     1      12.830 122.011 133.931  1.00  0.00     0.196 C
BRANCH  20  21
HETATM   21  N3  UNL     1      13.988 122.471 133.209  1.00  0.00    -0.074 N
ATOM     22  H33 UNL     1      14.829 122.466 133.787  1.00  0.00     0.274 HD
ATOM     23  H32 UNL     1      14.292 121.802 132.502  1.00  0.00     0.274 HD
ATOM     24  H31 UNL     1      13.800 123.392 132.812  1.00  0.00     0.274 HD
ENDBRANCH  20  21
BRANCH  20  25
HETATM   25  C7  UNL     1      13.271 121.600 135.315  1.00  0.00     0.016 A
HETATM   26  C8  UNL     1      12.266 121.228 136.338  1.00  0.00     0.007 A
HETATM   27  C9  UNL     1      13.122 120.127 135.675  1.00  0.00     0.007 A
ENDBRANCH  20  25
ENDBRANCH  19  20
ENDBRANCH  16  19
ENDBRANCH   4  15
TORSDOF 5
ENDMDL