MODEL 2
REMARK VINA RESULT: -7.643165697      2.196      4.297
REMARK  6 active torsions:
REMARK  status: ('A' for Active; 'I' for Inactive)
REMARK    1  A    between atoms: C2_2  and  N1_3
REMARK    2  A    between atoms: N1_3  and  C3_5
REMARK    3  A    between atoms: C5_9  and  C6_10
REMARK    4  A    between atoms: C6_10  and  O1_11
REMARK    5  A    between atoms: N4_17  and  C9_18
REMARK    6  A    between atoms: C9_18  and  C10_19
ROOT
HETATM    1  C3  UNL     1      15.257 118.191 132.044  1.00  0.00     0.681 A
HETATM    2  N2  UNL     1      14.246 119.047 132.313  1.00  0.00    -0.187 N
ATOM      3  H2  UNL     1      13.706 119.075 133.178  1.00  0.00     0.184 HD
HETATM    4  C4  UNL     1      14.070 119.854 131.259  1.00  0.00     0.102 A
HETATM    5  C5  UNL     1      13.319 120.906 130.763  1.00  0.00     0.062 A
HETATM    6  N3  UNL     1      13.762 121.195 129.539  1.00  0.00    -0.363 N
ATOM      7  H3  UNL     1      13.403 121.925 128.925  1.00  0.00     0.165 HD
HETATM    8  C7  UNL     1      14.770 120.347 129.262  1.00  0.00     0.121 A
HETATM    9  C8  UNL     1      15.001 119.480 130.323  1.00  0.00     0.096 A
HETATM   10  N4  UNL     1      15.744 118.446 130.805  1.00  0.00    -0.175 N
ENDROOT
BRANCH  10  11
HETATM   11  C9  UNL     1      16.850 117.838 130.170  1.00  0.00     0.190 C
BRANCH  11  12
HETATM   12  C10 UNL     1      16.682 117.144 128.895  1.00  0.00     0.004 A
HETATM   13  C11 UNL     1      16.923 117.674 127.675  1.00  0.00     0.045 A
HETATM   14 CL1  UNL     1      17.478 119.303 127.442  1.00  0.00    -0.084 Cl
HETATM   15  C12 UNL     1      16.751 116.910 126.505  1.00  0.00     0.048 A
HETATM   16  C13 UNL     1      16.334 115.596 126.544  1.00  0.00     0.037 A
HETATM   17 CL2  UNL     1      16.141 114.710 125.056  1.00  0.00    -0.084 Cl
HETATM   18  C14 UNL     1      16.086 115.042 127.779  1.00  0.00     0.048 A
HETATM   19  C15 UNL     1      16.254 115.785 128.903  1.00  0.00     0.045 A
HETATM   20 CL3  UNL     1      15.997 115.002 130.453  1.00  0.00    -0.084 Cl
ENDBRANCH  11  12
ENDBRANCH  10  11
BRANCH   1  21
HETATM   21  N1  UNL     1      15.561 117.269 132.890  1.00  0.00    -0.226 N
ATOM     22  H1  UNL     1      16.543 117.022 133.014  1.00  0.00     0.177 HD
BRANCH  21  23
HETATM   23  C2  UNL     1      14.572 116.579 133.664  1.00  0.00     0.133 C
HETATM   24  C1  UNL     1      15.134 116.016 134.951  1.00  0.00     0.027 C
ENDBRANCH  21  23
ENDBRANCH   1  21
BRANCH   5  25
HETATM   25  C6  UNL     1      12.200 121.592 131.497  1.00  0.00     0.223 C
BRANCH  25  26
HETATM   26  O1  UNL     1      11.089 121.661 130.688  1.00  0.00    -0.395 OA
ATOM     27  H1  UNL     1      10.847 122.570 130.555  1.00  0.00     0.209 HD
ENDBRANCH  25  26
ENDBRANCH   5  25
TORSDOF 6
ENDMDL