MODEL 2
REMARK VINA RESULT: -7.744009953      2.358      3.444
REMARK  6 active torsions:
REMARK  status: ('A' for Active; 'I' for Inactive)
REMARK    1  A    between atoms: C2_3  and  C3_4
REMARK    2  A    between atoms: C2_3  and  N4_20
REMARK    3  A    between atoms: C3_4  and  N2_5
REMARK    4  A    between atoms: N2_5  and  C4_7
REMARK    5  A    between atoms: C4_7  and  N3_9
REMARK    6  A    between atoms: N3_9  and  C5_11
ROOT
HETATM    1  N1  UNL     1      12.489 121.951 131.252  1.00  0.00    -0.195 NA
HETATM    2  C1  UNL     1      12.728 121.172 132.091  1.00  0.00     0.097 C
HETATM    3  C2  UNL     1      13.028 120.200 133.148  1.00  0.00     0.346 C
ENDROOT
BRANCH   3   4
HETATM    4  C3  UNL     1      14.170 119.341 132.710  1.00  0.00     0.173 C
BRANCH   4   5
HETATM    5  N2  UNL     1      14.148 119.278 131.252  1.00  0.00    -0.364 N
ATOM      6  H2  UNL     1      13.309 119.578 130.755  1.00  0.00     0.162 HD
BRANCH   5   7
HETATM    7  C4  UNL     1      15.283 118.801 130.492  1.00  0.00     0.172 C
HETATM    8  S1  UNL     1      15.657 119.679 129.193  1.00  0.00    -0.041 SA
BRANCH   7   9
HETATM    9  N3  UNL     1      15.936 117.651 130.942  1.00  0.00    -0.332 N
ATOM     10  H3  UNL     1      16.568 117.804 131.727  1.00  0.00     0.168 HD
BRANCH   9  11
HETATM   11  C5  UNL     1      15.873 116.325 130.501  1.00  0.00     0.059 A
HETATM   12  C6  UNL     1      16.285 115.854 129.283  1.00  0.00     0.055 A
HETATM   13  C7  UNL     1      16.185 114.502 128.918  1.00  0.00     0.037 A
HETATM   14 CL1  UNL     1      16.743 114.016 127.339  1.00  0.00    -0.084 Cl
HETATM   15  C8  UNL     1      15.658 113.589 129.793  1.00  0.00     0.049 A
HETATM   16  C9  UNL     1      15.235 114.039 131.027  1.00  0.00     0.059 A
HETATM   17 CL2  UNL     1      14.548 112.912 132.194  1.00  0.00    -0.082 Cl
HETATM   18  C10 UNL     1      15.338 115.357 131.370  1.00  0.00     0.082 A
HETATM   19 CL3  UNL     1      14.775 115.843 132.964  1.00  0.00    -0.080 Cl
ENDBRANCH   9  11
ENDBRANCH   7   9
ENDBRANCH   5   7
ENDBRANCH   4   5
ENDBRANCH   3   4
BRANCH   3  20
HETATM   20  N4  UNL     1      13.240 120.883 134.386  1.00  0.00     0.108 N
HETATM   21  C11 UNL     1      12.236 121.826 134.748  1.00  0.00     0.274 C
HETATM   22  C12 UNL     1      11.512 121.276 135.956  1.00  0.00     0.032 C
HETATM   23  C13 UNL     1      12.269 120.058 136.396  1.00  0.00     0.032 C
HETATM   24  C14 UNL     1      13.424 119.948 135.446  1.00  0.00     0.274 C
ENDBRANCH   3  20
TORSDOF 6
ENDMDL