MODEL 1
REMARK VINA RESULT: -7.946221310      0.000      0.000
REMARK  8 active torsions:
REMARK  status: ('A' for Active; 'I' for Inactive)
REMARK    1  A    between atoms: C2_2  and  O1_3
REMARK    2  A    between atoms: C2_2  and  C3_5
REMARK    3  A    between atoms: C3_5  and  N1_6
REMARK    4  A    between atoms: N1_6  and  C4_8
REMARK    5  A    between atoms: C6_11  and  C7_12
REMARK    6  A    between atoms: C7_12  and  N3_16
REMARK    7  A    between atoms: C10_19  and  C11_20
REMARK    8  A    between atoms: C13_25  and  C14_26
ROOT
HETATM    1  C7  UNL     1      17.668 116.634 129.761  1.00  0.00     0.102 C
HETATM    2  N2  UNL     1      18.420 115.976 128.895  1.00  0.00    -0.387 N
ATOM      3  H21 UNL     1      18.548 114.974 129.041  1.00  0.00     0.157 HD
ATOM      4  H22 UNL     1      18.791 116.572 128.154  1.00  0.00     0.157 HD
ENDROOT
BRANCH   1   5
HETATM    5  C6  UNL     1      17.485 118.059 129.555  1.00  0.00     0.190 C
HETATM    6  O2  UNL     1      17.428 118.318 128.180  1.00  0.00    -0.376 OA
HETATM    7  C5  UNL     1      16.223 119.034 127.962  1.00  0.00     0.193 C
HETATM    8  C4  UNL     1      16.066 119.824 129.215  1.00  0.00     0.107 C
HETATM    9  C18 UNL     1      16.278 118.678 130.211  1.00  0.00     0.067 C
BRANCH   8  10
HETATM   10  N1  UNL     1      15.042 120.695 129.421  1.00  0.00    -0.393 N
ATOM     11  H1  UNL     1      15.244 121.678 129.240  1.00  0.00     0.159 HD
BRANCH  10  12
HETATM   12  C3  UNL     1      13.758 120.404 129.846  1.00  0.00     0.087 C
BRANCH  12  13
HETATM   13  C2  UNL     1      12.918 121.517 130.415  1.00  0.00     0.152 C
HETATM   14  C1  UNL     1      12.662 121.337 131.895  1.00  0.00     0.045 C
BRANCH  13  15
HETATM   15  O1  UNL     1      11.647 121.539 129.776  1.00  0.00    -0.391 OA
ATOM     16  H1  UNL     1      11.230 122.357 130.020  1.00  0.00     0.210 HD
ENDBRANCH  13  15
ENDBRANCH  12  13
ENDBRANCH  10  12
ENDBRANCH   8  10
ENDBRANCH   1   5
BRANCH   1  17
HETATM   17  N3  UNL     1      17.156 115.812 130.783  1.00  0.00    -0.363 N
HETATM   18  C8  UNL     1      17.878 115.790 132.050  1.00  0.00     0.125 C
HETATM   19  C9  UNL     1      16.946 116.088 133.203  1.00  0.00     0.033 C
HETATM   20  C10 UNL     1      15.564 115.592 133.088  1.00  0.00     0.097 C
HETATM   21  C12 UNL     1      14.981 115.403 131.747  1.00  0.00     0.039 C
HETATM   22  C13 UNL     1      15.958 115.053 130.635  1.00  0.00     0.093 C
BRANCH  20  23
HETATM   23  C11 UNL     1      14.676 116.637 133.809  1.00  0.00     0.391 C
HETATM   24  F1  UNL     1      14.715 116.413 135.173  1.00  0.00    -0.171 F
HETATM   25  F2  UNL     1      13.349 116.434 133.413  1.00  0.00    -0.171 F
HETATM   26  F3  UNL     1      15.051 117.897 133.445  1.00  0.00    -0.171 F
ENDBRANCH  20  23
BRANCH  22  27
HETATM   27  C14 UNL     1      16.078 113.599 130.402  1.00  0.00    -0.031 C
HETATM   28  C15 UNL     1      15.822 113.238 128.938  1.00  0.00     0.016 C
HETATM   29  C16 UNL     1      17.386 112.964 130.751  1.00  0.00     0.016 C
HETATM   30  C17 UNL     1      15.000 112.866 131.192  1.00  0.00     0.016 C
ENDBRANCH  22  27
ENDBRANCH   1  17
TORSDOF 8
ENDMDL