MODEL 3
REMARK VINA RESULT: -8.948032163      1.753      2.352
REMARK  4 active torsions:
REMARK  status: ('A' for Active; 'I' for Inactive)
REMARK    1  A    between atoms: C1_2  and  C2_4
REMARK    2  A    between atoms: C2_4  and  C3_5
REMARK    3  A    between atoms: C3_5  and  C4_6
REMARK    4  A    between atoms: C4_6  and  C5_7
ROOT
HETATM    1  C5  UNL     1      16.286 115.740 129.330  1.00  0.00    -0.011 A
HETATM    2  C6  UNL     1      16.567 114.377 129.355  1.00  0.00     0.039 A
HETATM    3  C7  UNL     1      16.270 113.643 130.481  1.00  0.00     0.057 A
HETATM    4 CL1  UNL     1      16.639 111.932 130.469  1.00  0.00    -0.083 Cl
HETATM    5  C8  UNL     1      15.704 114.181 131.601  1.00  0.00     0.064 A
HETATM    6 CL2  UNL     1      15.339 113.205 133.029  1.00  0.00    -0.082 Cl
HETATM    7  C9  UNL     1      15.418 115.545 131.588  1.00  0.00    -0.003 A
HETATM    8  C10 UNL     1      15.709 116.296 130.468  1.00  0.00     0.052 A
HETATM    9  N2  UNL     1      15.383 117.679 130.521  1.00  0.00    -0.341 N
ATOM     10  H2  UNL     1      15.583 118.267 129.711  1.00  0.00     0.167 HD
HETATM   11  C11 UNL     1      14.780 118.270 131.680  1.00  0.00     0.115 A
HETATM   12  N3  UNL     1      14.472 119.581 131.716  1.00  0.00    -0.308 N
ATOM     13  H3  UNL     1      14.678 120.157 130.899  1.00  0.00     0.170 HD
HETATM   14  C12 UNL     1      13.903 120.159 132.792  1.00  0.00     0.268 A
HETATM   15  O2  UNL     1      13.616 121.383 132.824  1.00  0.00    -0.266 OA
HETATM   16  C13 UNL     1      13.620 119.398 133.903  1.00  0.00     0.102 A
HETATM   17 CL3  UNL     1      12.876 120.094 135.338  1.00  0.00    -0.078 Cl
HETATM   18  C14 UNL     1      13.913 118.063 133.917  1.00  0.00     0.040 A
HETATM   19  C15 UNL     1      14.503 117.512 132.774  1.00  0.00    -0.008 A
HETATM   20  C16 UNL     1      14.804 116.084 132.824  1.00  0.00     0.085 A
ENDROOT
BRANCH   1  21
HETATM   21  C4  UNL     1      16.574 116.539 128.152  1.00  0.00    -0.013 C
BRANCH  21  22
HETATM   22  C3  UNL     1      17.912 117.083 127.882  1.00  0.00     0.037 C
BRANCH  22  23
HETATM   23  C2  UNL     1      18.341 118.347 128.520  1.00  0.00     0.103 C
BRANCH  23  24
HETATM   24  C1  UNL     1      17.480 119.491 128.264  1.00  0.00     0.231 C
HETATM   25  N1  UNL     1      16.911 120.141 129.426  1.00  0.00    -0.062 NA
HETATM   26  O1  UNL     1      17.185 119.977 127.150  1.00  0.00    -0.277 OA
ENDBRANCH  23  24
ENDBRANCH  22  23
ENDBRANCH  21  22
ENDBRANCH   1  21
TORSDOF 4
ENDMDL