MODEL 4
REMARK VINA RESULT: -9.141944185      2.260      5.486
REMARK  5 active torsions:
REMARK  status: ('A' for Active; 'I' for Inactive)
REMARK    1  A    between atoms: O1_1  and  C1_3
REMARK    2  A    between atoms: C1_3  and  C2_4
REMARK    3  A    between atoms: C2_4  and  C3_7
REMARK    4  A    between atoms: C9_13  and  C10_14
REMARK    5  A    between atoms: C14_18  and  C15_19
ROOT
HETATM    1  C3  UNL     1      17.580 116.734 127.635  1.00  0.00     0.099 C
HETATM    2  C4  UNL     1      18.404 118.033 127.713  1.00  0.00     0.046 C
HETATM    3  C5  UNL     1      18.153 118.752 129.012  1.00  0.00     0.188 C
HETATM    4  C6  UNL     1      17.426 120.047 128.857  1.00  0.00     0.033 C
HETATM    5  C7  UNL     1      15.938 119.925 128.831  1.00  0.00     0.005 C
HETATM    6  C8  UNL     1      15.384 118.781 129.661  1.00  0.00     0.047 C
HETATM    7  C9  UNL     1      16.203 117.511 129.522  1.00  0.00     0.184 C
HETATM    8  N2  UNL     1      17.559 117.833 129.941  1.00  0.00    -0.055 N
ATOM      9  H21 UNL     1      17.590 118.183 130.899  1.00  0.00     0.279 HD
ATOM     10  H22 UNL     1      18.129 116.996 130.069  1.00  0.00     0.279 HD
HETATM   11  C21 UNL     1      16.184 117.144 128.078  1.00  0.00     0.221 C
HETATM   12  F3  UNL     1      15.179 116.333 127.648  1.00  0.00    -0.246 F
ENDROOT
BRANCH   7  13
HETATM   13  C10 UNL     1      15.707 116.506 130.460  1.00  0.00    -0.019 A
HETATM   14  C11 UNL     1      15.150 116.804 131.683  1.00  0.00     0.010 A
HETATM   15  C12 UNL     1      14.731 115.776 132.517  1.00  0.00     0.001 A
HETATM   16  C13 UNL     1      14.866 114.471 132.118  1.00  0.00     0.007 A
HETATM   17  C14 UNL     1      15.415 114.146 130.902  1.00  0.00    -0.053 A
HETATM   18  C20 UNL     1      15.830 115.175 130.086  1.00  0.00     0.017 A
BRANCH  17  19
HETATM   19  C15 UNL     1      15.481 112.734 130.395  1.00  0.00     0.022 C
HETATM   20  C16 UNL     1      16.332 112.638 129.198  1.00  0.00     0.037 C
HETATM   21  C17 UNL     1      17.734 112.167 129.610  1.00  0.00     0.233 C
HETATM   22  N1  UNL     1      17.516 110.793 130.076  1.00  0.00    -0.075 N
HETATM   23  C18 UNL     1      16.932 110.882 131.365  1.00  0.00     0.233 C
ATOM     24  H12 UNL     1      16.969 110.231 129.425  1.00  0.00     0.277 HD
ATOM     25  H11 UNL     1      18.363 110.225 130.058  1.00  0.00     0.277 HD
HETATM   26  C19 UNL     1      15.951 111.934 131.596  1.00  0.00     0.037 C
ENDBRANCH  17  19
ENDBRANCH   7  13
BRANCH   1  27
HETATM   27  C2  UNL     1      17.523 116.404 126.158  1.00  0.00     0.270 C
HETATM   28  F1  UNL     1      17.106 115.100 125.949  1.00  0.00    -0.203 F
HETATM   29  F2  UNL     1      16.667 117.306 125.565  1.00  0.00    -0.203 F
BRANCH  27  30
HETATM   30  C1  UNL     1      18.884 116.552 125.517  1.00  0.00     0.243 C
BRANCH  30  31
HETATM   31  O1  UNL     1      18.873 115.746 124.377  1.00  0.00    -0.395 OA
ATOM     32  H1  UNL     1      18.751 114.853 124.679  1.00  0.00     0.209 HD
ENDBRANCH  30  31
ENDBRANCH  27  30
ENDBRANCH   1  27
TORSDOF 5
ENDMDL