MODEL 4
REMARK VINA RESULT: -8.357179914      3.308      6.427
REMARK  7 active torsions:
REMARK  status: ('A' for Active; 'I' for Inactive)
REMARK    1  A    between atoms: C2_2  and  C4_4
REMARK    2  A    between atoms: C4_4  and  C5_5
REMARK    3  A    between atoms: C4_4  and  C18_30
REMARK    4  A    between atoms: C5_5  and  C6_6
REMARK    5  A    between atoms: C8_12  and  N3_13
REMARK    6  A    between atoms: C10_18  and  N5_19
REMARK    7  A    between atoms: N5_19  and  C11_21
ROOT
HETATM    1  C6  UNL     1      15.507 119.657 130.684  1.00  0.00     0.084 A
HETATM    2  N1  UNL     1      15.870 120.158 129.493  1.00  0.00    -0.330 N
ATOM      3  H1  UNL     1      15.869 121.149 129.248  1.00  0.00     0.168 HD
HETATM    4  C7  UNL     1      16.243 119.142 128.657  1.00  0.00     0.153 A
HETATM    5  N2  UNL     1      16.675 119.131 127.395  1.00  0.00    -0.174 N
ATOM      6  H2  UNL     1      16.777 120.005 126.880  1.00  0.00     0.186 HD
HETATM    7  C8  UNL     1      16.975 117.963 126.810  1.00  0.00     0.681 A
HETATM    8  N4  UNL     1      16.835 116.844 127.498  1.00  0.00    -0.175 N
ATOM      9  H4  UNL     1      17.070 115.968 127.031  1.00  0.00     0.186 HD
HETATM   10  C10 UNL     1      16.396 116.776 128.800  1.00  0.00     0.148 A
HETATM   11  C17 UNL     1      16.086 117.997 129.402  1.00  0.00     0.123 A
HETATM   12  N6  UNL     1      15.644 118.294 130.622  1.00  0.00    -0.340 N
ATOM     13  H6  UNL     1      15.445 117.630 131.371  1.00  0.00     0.167 HD
ENDROOT
BRANCH   1  14
HETATM   14  C5  UNL     1      15.037 120.359 131.890  1.00  0.00     0.094 C
BRANCH  14  15
HETATM   15  C4  UNL     1      13.640 119.994 132.293  1.00  0.00     0.128 C
BRANCH  15  16
HETATM   16  C2  UNL     1      13.682 119.276 133.633  1.00  0.00    -0.080 C
HETATM   17  C1  UNL     1      13.963 117.988 133.633  1.00  0.00     0.014 C
HETATM   18  C3  UNL     1      13.419 119.980 134.908  1.00  0.00     0.043 C
ENDBRANCH  15  16
BRANCH  15  19
HETATM   19  C18 UNL     1      12.687 121.146 132.419  1.00  0.00     0.395 C
HETATM   20  F1  UNL     1      12.559 121.653 131.103  1.00  0.00    -0.170 F
HETATM   21  F2  UNL     1      11.485 120.813 132.957  1.00  0.00    -0.170 F
HETATM   22  F3  UNL     1      13.254 122.224 133.102  1.00  0.00    -0.170 F
ENDBRANCH  15  19
ENDBRANCH  14  15
ENDBRANCH   1  14
BRANCH  10  23
HETATM   23  N5  UNL     1      16.308 115.660 129.337  1.00  0.00    -0.369 N
ATOM     24  H5  UNL     1      15.525 115.172 128.902  1.00  0.00     0.161 HD
BRANCH  23  25
HETATM   25  C11 UNL     1      16.843 114.822 130.280  1.00  0.00     0.083 C
HETATM   26  C12 UNL     1      16.713 113.337 130.001  1.00  0.00     0.025 C
HETATM   27  C13 UNL     1      15.311 112.836 130.198  1.00  0.00     0.002 C
HETATM   28  C14 UNL     1      14.902 113.121 131.643  1.00  0.00     0.000 C
HETATM   29  C15 UNL     1      14.826 114.635 131.748  1.00  0.00     0.002 C
HETATM   30  C16 UNL     1      16.229 115.153 131.647  1.00  0.00     0.025 C
ENDBRANCH  23  25
ENDBRANCH  10  23
BRANCH   7  31
HETATM   31  N3  UNL     1      17.404 117.944 125.558  1.00  0.00    -0.230 N
HETATM   32  C9  UNL     1      18.519 117.079 125.223  1.00  0.00     0.165 C
ATOM     33  H3  UNL     1      16.961 118.524 124.846  1.00  0.00     0.177 HD
ENDBRANCH   7  31
TORSDOF 7
ENDMDL