MODEL 1
REMARK VINA RESULT: -9.699215395      0.000      0.000
REMARK  6 active torsions:
REMARK  status: ('A' for Active; 'I' for Inactive)
REMARK    1  A    between atoms: N1_1  and  C1_4
REMARK    2  A    between atoms: C3_8  and  C4_9
REMARK    3  A    between atoms: C6_14  and  C7_15
REMARK       I    between atoms: C7_15  and  N3_17
REMARK    4  A    between atoms: N3_17  and  C8_19
REMARK    5  A    between atoms: C11_22  and  C12_23
REMARK    6  A    between atoms: C12_23  and  N4_24
ROOT
HETATM    1  C7  UNL     1      14.079 118.998 132.744  1.00  0.00     0.255 C
HETATM    2  O1  UNL     1      14.155 119.099 131.490  1.00  0.00    -0.268 OA
HETATM    3  N3  UNL     1      14.641 117.853 133.344  1.00  0.00    -0.352 N
ATOM      4  H3  UNL     1      14.624 117.735 134.357  1.00  0.00     0.163 HD
ENDROOT
BRANCH   1   5
HETATM    5  C6  UNL     1      13.412 120.081 133.485  1.00  0.00     0.076 A
HETATM    6  C1  UNL     1      13.118 121.299 132.958  1.00  0.00     0.114 A
HETATM    7  N2  UNL     1      12.434 122.218 133.741  1.00  0.00    -0.351 N
HETATM    8  C2  UNL     1      12.080 121.906 134.975  1.00  0.00     0.106 A
ATOM      9  H2  UNL     1      12.203 123.136 133.363  1.00  0.00     0.166 HD
HETATM   10  C3  UNL     1      12.360 120.667 135.566  1.00  0.00     0.064 A
HETATM   11  C5  UNL     1      13.028 119.767 134.803  1.00  0.00     0.038 A
BRANCH   6  12
HETATM   12  N1  UNL     1      13.454 121.727 131.816  1.00  0.00    -0.385 N
ATOM     13  H12 UNL     1      13.729 122.680 131.581  1.00  0.00     0.157 HD
ATOM     14  H11 UNL     1      13.392 121.036 131.068  1.00  0.00     0.157 HD
ENDBRANCH   6  12
BRANCH  10  15
HETATM   15  C4  UNL     1      11.950 120.384 136.957  1.00  0.00     0.418 C
HETATM   16  F1  UNL     1      12.749 121.139 137.787  1.00  0.00    -0.166 F
HETATM   17  F2  UNL     1      12.062 119.039 137.258  1.00  0.00    -0.166 F
HETATM   18  F3  UNL     1      10.640 120.808 137.090  1.00  0.00    -0.166 F
ENDBRANCH  10  15
ENDBRANCH   1   5
BRANCH   3  19
HETATM   19  C8  UNL     1      15.255 116.829 132.480  1.00  0.00     0.084 C
HETATM   20  C9  UNL     1      16.679 116.705 132.866  1.00  0.00     0.026 C
HETATM   21  C10 UNL     1      17.031 115.269 133.183  1.00  0.00     0.008 C
HETATM   22  C11 UNL     1      16.546 114.297 132.196  1.00  0.00     0.014 C
HETATM   23  C18 UNL     1      15.022 114.284 132.269  1.00  0.00     0.008 C
HETATM   24  C19 UNL     1      14.417 115.604 132.479  1.00  0.00     0.026 C
BRANCH  22  25
HETATM   25  C12 UNL     1      17.040 114.278 130.812  1.00  0.00     0.277 C
BRANCH  25  26
HETATM   26  N4  UNL     1      16.195 114.598 129.724  1.00  0.00     0.088 N
HETATM   27  C13 UNL     1      15.994 113.586 128.798  1.00  0.00     0.272 C
HETATM   28  C14 UNL     1      15.485 114.042 127.436  1.00  0.00     0.030 C
HETATM   29  C15 UNL     1      16.111 115.299 126.941  1.00  0.00     0.003 C
HETATM   30  C16 UNL     1      15.856 116.360 128.026  1.00  0.00     0.030 C
HETATM   31  C17 UNL     1      16.608 115.881 129.218  1.00  0.00     0.272 C
ENDBRANCH  25  26
ENDBRANCH  22  25
ENDBRANCH   3  19
TORSDOF 6
ENDMDL