MODEL 5
REMARK VINA RESULT: -7.171382688      2.651      3.028
REMARK  4 active torsions:
REMARK  status: ('A' for Active; 'I' for Inactive)
REMARK    1  A    between atoms: C8_13  and  O1_14
REMARK    2  A    between atoms: O1_14  and  C9_15
REMARK    3  A    between atoms: C9_15  and  C10_16
REMARK    4  A    between atoms: C10_16  and  N3_17
ROOT
HETATM    1  N1  UNL     1      96.973 240.934 -13.337  1.00  0.00    -0.380 N
ATOM      2  H11 UNL     1      97.186 241.361 -14.238  1.00  0.00     0.158 HD
ATOM      3  H12 UNL     1      96.090 241.199 -12.899  1.00  0.00     0.158 HD
HETATM    4  C1  UNL     1      97.778 240.092 -12.763  1.00  0.00     0.134 C
HETATM    5  N2  UNL     1      97.483 239.500 -11.515  1.00  0.00    -0.362 N
ATOM      6  H2  UNL     1      96.499 239.465 -11.248  1.00  0.00     0.162 HD
HETATM    7  C2  UNL     1      98.414 238.948 -10.590  1.00  0.00     0.128 C
HETATM    8  C3  UNL     1      98.193 239.578  -9.255  1.00  0.00     0.025 A
HETATM    9  C4  UNL     1      98.831 240.759  -8.993  1.00  0.00     0.039 A
HETATM   10  C5  UNL     1      98.625 241.338  -7.771  1.00  0.00     0.030 A
HETATM   11  C6  UNL     1      97.806 240.754  -6.839  1.00  0.00     0.005 A
HETATM   12  C7  UNL     1      97.171 239.570  -7.114  1.00  0.00     0.037 A
HETATM   13  C8  UNL     1      97.346 238.955  -8.319  1.00  0.00     0.079 A
HETATM   14  N4  UNL     1      99.672 241.324  -9.988  1.00  0.00    -0.389 N
ATOM     15  H4  UNL     1      99.810 242.335 -10.003  1.00  0.00     0.159 HD
HETATM   16  C15 UNL     1     100.331 240.520 -10.968  1.00  0.00     0.127 C
HETATM   17  C16 UNL     1      99.841 239.090 -10.970  1.00  0.00     0.040 C
HETATM   18  C17 UNL     1     100.143 238.520 -12.340  1.00  0.00     0.091 C
HETATM   19  S1  UNL     1      99.337 239.622 -13.538  1.00  0.00    -0.094 SA
ENDROOT
BRANCH  13  20
HETATM   20  O1  UNL     1      96.766 237.789  -8.687  1.00  0.00    -0.349 OA
BRANCH  20  21
HETATM   21  C9  UNL     1      95.485 237.287  -8.569  1.00  0.00     0.206 C
BRANCH  21  22
HETATM   22  C10 UNL     1      94.711 237.094  -9.834  1.00  0.00     0.299 C
BRANCH  22  23
HETATM   23  N3  UNL     1      94.151 235.731  -9.868  1.00  0.00     0.090 N
HETATM   24  C11 UNL     1      95.156 234.796 -10.357  1.00  0.00     0.272 C
HETATM   25  C12 UNL     1      94.844 233.471  -9.700  1.00  0.00     0.032 C
HETATM   26  C13 UNL     1      94.067 233.809  -8.458  1.00  0.00     0.032 C
HETATM   27  C14 UNL     1      94.017 235.320  -8.484  1.00  0.00     0.272 C
ENDBRANCH  22  23
ENDBRANCH  21  22
ENDBRANCH  20  21
ENDBRANCH  13  20
TORSDOF 4
ENDMDL