MODEL 3
REMARK VINA RESULT: -8.431080160      1.657      3.256
REMARK  7 active torsions:
REMARK  status: ('A' for Active; 'I' for Inactive)
REMARK    1  A    between atoms: C3_4  and  C4_5
REMARK    2  A    between atoms: C4_5  and  C5_6
REMARK    3  A    between atoms: C5_6  and  C6_7
REMARK    4  A    between atoms: C15_17  and  O3_18
REMARK    5  A    between atoms: C15_17  and  C16_20
REMARK    6  A    between atoms: C16_20  and  O4_21
REMARK    7  A    between atoms: C18_24  and  O5_25
ROOT
HETATM    1  O1  UNL     1      98.854 238.169  -5.223  1.00  0.00    -0.288 OA
HETATM    2  C1  UNL     1      98.249 238.333  -6.295  1.00  0.00     0.173 C
HETATM    3  C2  UNL     1      97.228 237.436  -6.624  1.00  0.00     0.061 C
HETATM    4  C3  UNL     1      96.613 237.207  -7.837  1.00  0.00    -0.054 C
HETATM    5  C11 UNL     1      96.979 237.760  -9.064  1.00  0.00     0.017 C
HETATM    6  C12 UNL     1      97.671 238.925  -9.344  1.00  0.00    -0.019 C
HETATM    7  C13 UNL     1      98.305 239.703  -8.398  1.00  0.00    -0.009 C
HETATM    8  C14 UNL     1      98.641 239.401  -7.077  1.00  0.00     0.065 C
HETATM    9  C15 UNL     1      98.589 241.002  -9.057  1.00  0.00     0.109 C
HETATM   10  C17 UNL     1      98.925 240.565 -10.463  1.00  0.00     0.081 C
HETATM   11  C18 UNL     1      97.835 239.510 -10.701  1.00  0.00     0.155 C
ENDROOT
BRANCH   4  12
HETATM   12  C4  UNL     1      95.449 236.286  -7.856  1.00  0.00     0.041 C
BRANCH  12  13
HETATM   13  C5  UNL     1      95.830 234.869  -7.492  1.00  0.00     0.036 C
BRANCH  13  14
HETATM   14  C6  UNL     1      95.156 234.547  -6.180  1.00  0.00     0.121 C
HETATM   15  C7  UNL     1      96.193 234.159  -5.162  1.00  0.00     0.032 C
HETATM   16  C8  UNL     1      95.432 233.773  -3.890  1.00  0.00     0.004 C
HETATM   17  C9  UNL     1      94.647 234.981  -3.452  1.00  0.00     0.026 C
HETATM   18  C10 UNL     1      93.760 235.432  -4.575  1.00  0.00     0.168 C
HETATM   19  O2  UNL     1      94.434 235.652  -5.760  1.00  0.00    -0.386 OA
ENDBRANCH  13  14
ENDBRANCH  12  13
ENDBRANCH   4  12
BRANCH  11  20
HETATM   20  O5  UNL     1      96.695 240.173 -11.125  1.00  0.00    -0.391 OA
ATOM     21  H5  UNL     1      96.543 240.062 -12.056  1.00  0.00     0.210 HD
ENDBRANCH  11  20
BRANCH   9  22
HETATM   22  O3  UNL     1      97.432 241.756  -9.073  1.00  0.00    -0.383 OA
ATOM     23  H3  UNL     1      97.487 242.417  -8.393  1.00  0.00     0.211 HD
ENDBRANCH   9  22
BRANCH   9  24
HETATM   24  C16 UNL     1      99.732 241.735  -8.395  1.00  0.00     0.207 C
BRANCH  24  25
HETATM   25  O4  UNL     1      99.198 242.939  -7.901  1.00  0.00    -0.398 OA
ATOM     26  H4  UNL     1      99.713 243.167  -7.137  1.00  0.00     0.209 HD
ENDBRANCH  24  25
ENDBRANCH   9  24
TORSDOF 7
ENDMDL