MODEL 4
REMARK VINA RESULT: -7.304050350      3.277      8.991
REMARK  6 active torsions:
REMARK  status: ('A' for Active; 'I' for Inactive)
REMARK    1  A    between atoms: C5_7  and  N2_8
REMARK    2  A    between atoms: C6_13  and  N4_14
REMARK    3  A    between atoms: N4_14  and  C7_16
REMARK    4  A    between atoms: C7_16  and  C8_17
REMARK    5  A    between atoms: C8_17  and  C9_18
REMARK    6  A    between atoms: C9_18  and  N5_19
ROOT
HETATM    1  C1  UNL     1      94.846 234.773 -10.600  1.00  0.00     0.154 C
HETATM    2  N1  UNL     1      95.514 235.809  -9.791  1.00  0.00    -0.368 N
HETATM    3  C2  UNL     1      95.512 235.915  -8.457  1.00  0.00     0.109 A
HETATM    4  C3  UNL     1      96.275 237.049  -8.146  1.00  0.00     0.035 A
HETATM    5  S1  UNL     1      96.888 238.044  -6.907  1.00  0.00    -0.082 SA
HETATM    6  C4  UNL     1      97.728 239.186  -7.860  1.00  0.00     0.078 A
HETATM    7  C5  UNL     1      98.499 240.330  -7.573  1.00  0.00     0.134 A
HETATM    8  N3  UNL     1      99.051 241.051  -8.568  1.00  0.00    -0.176 N
ATOM      9  H3  UNL     1      99.613 241.884  -8.391  1.00  0.00     0.186 HD
HETATM   10  C6  UNL     1      98.812 240.602  -9.799  1.00  0.00     0.680 A
HETATM   11  N6  UNL     1      98.094 239.535 -10.107  1.00  0.00    -0.190 N
ATOM     12  H6  UNL     1      97.975 239.284 -11.088  1.00  0.00     0.184 HD
HETATM   13  C14 UNL     1      97.501 238.751  -9.138  1.00  0.00     0.083 A
HETATM   14  C15 UNL     1      96.741 237.635  -9.279  1.00  0.00     0.027 A
HETATM   15  C16 UNL     1      96.234 236.814 -10.307  1.00  0.00     0.105 A
ENDROOT
BRANCH  10  16
HETATM   16  N4  UNL     1      99.331 241.279 -10.768  1.00  0.00    -0.226 N
ATOM     17  H4  UNL     1      98.720 241.903 -11.294  1.00  0.00     0.177 HD
BRANCH  16  18
HETATM   18  C7  UNL     1     100.702 241.211 -11.151  1.00  0.00     0.140 C
BRANCH  18  19
HETATM   19  C8  UNL     1     100.777 241.283 -12.660  1.00  0.00     0.050 C
BRANCH  19  20
HETATM   20  C9  UNL     1     101.246 239.995 -13.273  1.00  0.00     0.274 C
BRANCH  20  21
HETATM   21  N5  UNL     1     101.130 240.121 -14.716  1.00  0.00     0.088 N
HETATM   22  C10 UNL     1     100.660 241.468 -15.076  1.00  0.00     0.272 C
HETATM   23  C11 UNL     1     100.814 241.430 -16.579  1.00  0.00     0.032 C
HETATM   24  C12 UNL     1     102.096 240.624 -16.739  1.00  0.00     0.032 C
HETATM   25  C13 UNL     1     102.436 240.117 -15.345  1.00  0.00     0.272 C
ENDBRANCH  20  21
ENDBRANCH  19  20
ENDBRANCH  18  19
ENDBRANCH  16  18
ENDBRANCH  10  16
BRANCH   7  26
HETATM   26  N2  UNL     1      98.625 240.616  -6.336  1.00  0.00    -0.384 N
ATOM     27  H22 UNL     1      98.153 240.111  -5.586  1.00  0.00     0.157 HD
ATOM     28  H21 UNL     1      99.243 241.400  -6.124  1.00  0.00     0.157 HD
ENDBRANCH   7  26
TORSDOF 6
ENDMDL