MODEL 3
REMARK VINA RESULT: -7.982775159      3.815      7.520
REMARK  7 active torsions:
REMARK  status: ('A' for Active; 'I' for Inactive)
REMARK    1  A    between atoms: C2_2  and  C3_3
REMARK    2  A    between atoms: C5_5  and  N1_6
REMARK    3  A    between atoms: N1_6  and  C6_8
REMARK    4  A    between atoms: C6_8  and  C14_18
REMARK    5  A    between atoms: N2_9  and  C7_11
REMARK    6  A    between atoms: C7_11  and  C8_12
REMARK    7  A    between atoms: C16_24  and  O3_25
ROOT
HETATM    1  C6  UNL     1      98.406 240.448 -10.582  1.00  0.00     0.142 C
HETATM    2  N2  UNL     1      99.316 241.135 -11.171  1.00  0.00    -0.373 N
ATOM      3  H2  UNL     1     100.158 241.408 -10.665  1.00  0.00     0.161 HD
ENDROOT
BRANCH   1   4
HETATM    4  N1  UNL     1      97.255 240.080 -11.283  1.00  0.00    -0.319 N
ATOM      5  H1  UNL     1      96.807 240.767 -11.889  1.00  0.00     0.169 HD
BRANCH   4   6
HETATM    6  C5  UNL     1      96.729 238.871 -11.188  1.00  0.00     0.173 A
HETATM    7  C4  UNL     1      97.247 237.720 -11.736  1.00  0.00     0.085 A
HETATM    8  C3  UNL     1      96.383 236.709 -11.390  1.00  0.00     0.036 A
HETATM    9  N4  UNL     1      95.411 237.291 -10.670  1.00  0.00    -0.263 N
HETATM   10  O4  UNL     1      95.636 238.551 -10.567  1.00  0.00    -0.220 OA
ATOM     11  H4  UNL     1      94.612 236.804 -10.264  1.00  0.00     0.194 HD
BRANCH   8  12
HETATM   12  C2  UNL     1      96.505 235.265 -11.746  1.00  0.00     0.055 C
HETATM   13  C1  UNL     1      97.812 235.061 -12.476  1.00  0.00     0.011 C
ENDBRANCH   8  12
ENDBRANCH   4   6
ENDBRANCH   1   4
BRANCH   1  14
HETATM   14  C14 UNL     1      98.614 240.075  -9.184  1.00  0.00     0.175 A
HETATM   15  O1  UNL     1      98.700 238.885  -8.655  1.00  0.00    -0.253 OA
HETATM   16  C15 UNL     1      98.888 238.927  -7.374  1.00  0.00     0.372 A
HETATM   17  O2  UNL     1      99.007 237.940  -6.608  1.00  0.00    -0.238 OA
HETATM   18  N3  UNL     1      98.933 240.226  -7.014  1.00  0.00    -0.280 N
HETATM   19  C16 UNL     1      98.763 240.961  -8.134  1.00  0.00     0.183 A
ATOM     20  H3  UNL     1      99.069 240.587  -6.070  1.00  0.00     0.173 HD
BRANCH  19  21
HETATM   21  O3  UNL     1      98.747 242.329  -8.182  1.00  0.00    -0.344 OA
ATOM     22  H3  UNL     1      98.640 242.884  -8.946  1.00  0.00     0.219 HD
ENDBRANCH  19  21
ENDBRANCH   1  14
BRANCH   2  23
HETATM   23  C7  UNL     1      99.146 241.522 -12.548  1.00  0.00     0.126 C
BRANCH  23  24
HETATM   24  C8  UNL     1     100.414 241.328 -13.354  1.00  0.00     0.003 C
HETATM   25  C9  UNL     1     100.308 242.027 -14.671  1.00  0.00     0.006 C
HETATM   26  C10 UNL     1     101.013 241.237 -15.766  1.00  0.00     0.000 C
HETATM   27  C11 UNL     1     102.283 240.667 -15.183  1.00  0.00     0.000 C
HETATM   28  C12 UNL     1     101.931 239.540 -14.235  1.00  0.00     0.000 C
HETATM   29  C13 UNL     1     100.647 239.833 -13.493  1.00  0.00     0.006 C
ENDBRANCH  23  24
ENDBRANCH   2  23
TORSDOF 7
ENDMDL