MODEL 5
REMARK VINA RESULT: -7.307923541      1.744      8.116
REMARK  7 active torsions:
REMARK  status: ('A' for Active; 'I' for Inactive)
REMARK    1  A    between atoms: C2_2  and  C3_3
REMARK    2  A    between atoms: C3_3  and  C5_5
REMARK    3  A    between atoms: C5_5  and  N1_6
REMARK    4  A    between atoms: N1_6  and  C6_8
REMARK    5  A    between atoms: C8_13  and  C9_14
REMARK    6  A    between atoms: N3_15  and  C10_17
REMARK    7  A    between atoms: C16_23  and  O2_24
ROOT
HETATM    1  C6  UNL     1      97.065 237.578  -7.431  1.00  0.00     0.173 C
HETATM    2  N2  UNL     1      96.608 237.315  -8.663  1.00  0.00    -0.304 N
ATOM      3  H2  UNL     1      96.046 236.469  -8.741  1.00  0.00     0.171 HD
HETATM    4  C7  UNL     1      96.776 237.993  -9.812  1.00  0.00     0.263 C
HETATM    5  O1  UNL     1      96.062 237.635 -10.779  1.00  0.00    -0.267 OA
HETATM    6  C8  UNL     1      97.662 239.054 -10.040  1.00  0.00     0.098 C
HETATM    7  C16 UNL     1      98.738 239.460  -9.259  1.00  0.00     0.160 C
HETATM    8  N4  UNL     1      98.965 239.058  -7.999  1.00  0.00    -0.300 N
ATOM      9  H4  UNL     1      99.865 239.345  -7.614  1.00  0.00     0.171 HD
HETATM   10  C17 UNL     1      98.198 238.337  -7.162  1.00  0.00     0.291 C
HETATM   11  O3  UNL     1      98.524 238.328  -5.959  1.00  0.00    -0.264 OA
ENDROOT
BRANCH   6  12
HETATM   12  C9  UNL     1      97.431 239.827 -11.241  1.00  0.00     0.105 C
HETATM   13  N3  UNL     1      97.980 239.503 -12.325  1.00  0.00    -0.393 N
ATOM     14  H3  UNL     1      98.580 238.680 -12.288  1.00  0.00     0.159 HD
BRANCH  13  15
HETATM   15  C10 UNL     1      97.875 240.132 -13.594  1.00  0.00     0.081 C
HETATM   16  C11 UNL     1      98.150 241.610 -13.585  1.00  0.00     0.025 C
HETATM   17  C12 UNL     1      99.601 241.951 -13.522  1.00  0.00     0.002 C
HETATM   18  C13 UNL     1     100.358 241.261 -14.632  1.00  0.00     0.000 C
HETATM   19  C14 UNL     1     100.176 239.769 -14.477  1.00  0.00     0.002 C
HETATM   20  C15 UNL     1      98.712 239.458 -14.651  1.00  0.00     0.025 C
ENDBRANCH  13  15
ENDBRANCH   6  12
BRANCH   7  21
HETATM   21  O2  UNL     1      99.609 240.345  -9.874  1.00  0.00    -0.345 OA
ATOM     22  H2  UNL     1     100.299 239.940 -10.387  1.00  0.00     0.219 HD
ENDBRANCH   7  21
BRANCH   1  23
HETATM   23  N1  UNL     1      96.414 237.097  -6.434  1.00  0.00    -0.371 N
ATOM     24  H1  UNL     1      96.729 237.254  -5.477  1.00  0.00     0.161 HD
BRANCH  23  25
HETATM   25  C5  UNL     1      95.219 236.326  -6.710  1.00  0.00     0.125 C
BRANCH  25  26
HETATM   26  C3  UNL     1      95.029 235.400  -5.501  1.00  0.00    -0.001 C
HETATM   27  C4  UNL     1      96.394 235.168  -4.918  1.00  0.00     0.011 C
BRANCH  26  28
HETATM   28  C2  UNL     1      94.117 236.110  -4.543  1.00  0.00     0.001 C
HETATM   29  C1  UNL     1      94.279 235.655  -3.128  1.00  0.00     0.005 C
ENDBRANCH  26  28
ENDBRANCH  25  26
ENDBRANCH  23  25
ENDBRANCH   1  23
TORSDOF 7
ENDMDL