MODEL 2
REMARK VINA RESULT: -6.575001395      1.255      1.416
REMARK  7 active torsions:
REMARK  status: ('A' for Active; 'I' for Inactive)
REMARK    1  A    between atoms: C5_5  and  O1_6
REMARK    2  A    between atoms: C9_11  and  O2_12
REMARK    3  A    between atoms: C9_11  and  C10_14
REMARK    4  A    between atoms: C10_14  and  O3_15
REMARK    5  A    between atoms: O3_15  and  C11_16
REMARK    6  A    between atoms: C11_16  and  C13_18
REMARK    7  A    between atoms: C13_18  and  O4_19
ROOT
HETATM    1  C1  UNL     1      99.994 242.078 -14.269  1.00  0.00     0.010 C
HETATM    2  C2  UNL     1      98.920 241.328 -13.441  1.00  0.00    -0.018 C
HETATM    3  C3  UNL     1      97.938 240.844 -14.438  1.00  0.00     0.007 C
HETATM    4  C4  UNL     1      96.659 240.290 -13.911  1.00  0.00     0.041 C
HETATM    5  C5  UNL     1      96.764 238.981 -13.198  1.00  0.00     0.085 C
HETATM    6  C6  UNL     1      95.985 239.031 -11.917  1.00  0.00     0.048 C
HETATM    7  C7  UNL     1      96.796 238.918 -10.673  1.00  0.00     0.022 C
HETATM    8  C8  UNL     1      96.796 237.524 -10.144  1.00  0.00     0.013 C
HETATM    9  C9  UNL     1      98.158 239.556 -10.766  1.00  0.00     0.093 C
HETATM   10  C14 UNL     1      98.945 239.224 -11.979  1.00  0.00     0.024 C
HETATM   11  C15 UNL     1     100.008 238.178 -11.706  1.00  0.00     0.041 C
HETATM   12  C16 UNL     1      99.712 237.087 -12.747  1.00  0.00     0.169 C
HETATM   13  O5  UNL     1      98.300 237.148 -12.831  1.00  0.00    -0.382 OA
HETATM   14  C17 UNL     1      98.160 238.528 -13.056  1.00  0.00     0.167 C
HETATM   15  C18 UNL     1      99.642 240.397 -12.597  1.00  0.00     0.019 C
ENDROOT
BRANCH   9  16
HETATM   16  O2  UNL     1      97.879 240.950 -10.883  1.00  0.00    -0.386 OA
ATOM     17  H2  UNL     1      96.948 240.983 -11.068  1.00  0.00     0.210 HD
ENDBRANCH   9  16
BRANCH   9  18
HETATM   18  C10 UNL     1      98.877 239.470  -9.459  1.00  0.00     0.207 C
BRANCH  18  19
HETATM   19  O3  UNL     1      98.371 240.493  -8.616  1.00  0.00    -0.381 OA
BRANCH  19  20
HETATM   20  C11 UNL     1      98.524 240.074  -7.294  1.00  0.00     0.141 C
HETATM   21  C12 UNL     1      98.879 238.625  -7.184  1.00  0.00     0.042 C
BRANCH  20  22
HETATM   22  C13 UNL     1      97.230 240.296  -6.529  1.00  0.00     0.195 C
BRANCH  22  23
HETATM   23  O4  UNL     1      97.221 241.609  -6.053  1.00  0.00    -0.398 OA
ATOM     24  H4  UNL     1      96.318 241.897  -5.988  1.00  0.00     0.209 HD
ENDBRANCH  22  23
ENDBRANCH  20  22
ENDBRANCH  19  20
ENDBRANCH  18  19
ENDBRANCH   9  18
BRANCH   5  25
HETATM   25  O1  UNL     1      96.109 238.029 -14.022  1.00  0.00    -0.387 OA
ATOM     26  H1  UNL     1      95.398 237.672 -13.501  1.00  0.00     0.210 HD
ENDBRANCH   5  25
TORSDOF 7
ENDMDL