MODEL 1
REMARK VINA RESULT: -8.312562863      0.000      0.000
REMARK  6 active torsions:
REMARK  status: ('A' for Active; 'I' for Inactive)
REMARK    1  A    between atoms: C3_4  and  C4_5
REMARK    2  A    between atoms: C4_5  and  N2_6
REMARK    3  A    between atoms: N2_6  and  C5_8
REMARK    4  A    between atoms: N3_11  and  C8_12
REMARK    5  A    between atoms: C8_12  and  C9_13
REMARK    6  A    between atoms: C17_27  and  N7_28
ROOT
HETATM    1  N1  UNL     1      99.742 242.642  -7.861  1.00  0.00    -0.191 NA
HETATM    2  C1  UNL     1      99.062 241.691  -8.005  1.00  0.00     0.104 C
HETATM    3  C2  UNL     1      98.217 240.531  -8.152  1.00  0.00     0.102 A
HETATM    4  C3  UNL     1      98.270 239.779  -9.287  1.00  0.00     0.034 A
HETATM    5  C14 UNL     1      97.437 238.660  -9.397  1.00  0.00     0.091 A
HETATM    6  N4  UNL     1      97.252 237.727 -10.371  1.00  0.00    -0.349 N
ATOM      7  H4  UNL     1      97.744 237.699 -11.264  1.00  0.00     0.167 HD
HETATM    8  C15 UNL     1      96.320 236.853  -9.972  1.00  0.00     0.182 A
HETATM    9  N5  UNL     1      95.929 237.246  -8.749  1.00  0.00    -0.337 N
ATOM     10  H5  UNL     1      95.222 236.768  -8.189  1.00  0.00     0.168 HD
HETATM   11  C16 UNL     1      96.593 238.354  -8.356  1.00  0.00     0.136 A
HETATM   12  N6  UNL     1      96.554 239.108  -7.241  1.00  0.00    -0.326 N
ATOM     13  H6  UNL     1      95.917 238.860  -6.483  1.00  0.00     0.169 HD
HETATM   14  C17 UNL     1      97.348 240.186  -7.122  1.00  0.00     0.122 A
ENDROOT
BRANCH   4  15
HETATM   15  C4  UNL     1      99.152 240.087 -10.401  1.00  0.00     0.098 C
BRANCH  15  16
HETATM   16  N2  UNL     1      98.917 240.890 -11.331  1.00  0.00    -0.393 N
ATOM     17  H2  UNL     1      97.940 241.173 -11.405  1.00  0.00     0.159 HD
BRANCH  16  18
HETATM   18  C5  UNL     1      99.773 241.477 -12.304  1.00  0.00     0.084 C
HETATM   19  C6  UNL     1     101.064 240.718 -12.333  1.00  0.00     0.044 C
HETATM   20  C7  UNL     1     101.168 239.921 -13.600  1.00  0.00     0.119 C
HETATM   21  N3  UNL     1     101.033 240.656 -14.814  1.00  0.00    -0.412 N
HETATM   22  C12 UNL     1     100.260 241.844 -14.707  1.00  0.00     0.119 C
HETATM   23  C13 UNL     1      99.166 241.582 -13.666  1.00  0.00     0.044 C
BRANCH  21  24
HETATM   24  C8  UNL     1     102.178 240.837 -15.618  1.00  0.00     0.121 C
BRANCH  24  25
HETATM   25  C9  UNL     1     103.229 239.769 -15.515  1.00  0.00     0.003 A
HETATM   26  C10 UNL     1     103.878 239.356 -16.794  1.00  0.00     0.007 A
HETATM   27  C11 UNL     1     104.633 240.190 -15.820  1.00  0.00     0.007 A
ENDBRANCH  24  25
ENDBRANCH  21  24
ENDBRANCH  16  18
ENDBRANCH  15  16
ENDBRANCH   4  15
BRANCH  14  28
HETATM   28  N7  UNL     1      97.350 240.943  -6.079  1.00  0.00    -0.384 N
ATOM     29  H72 UNL     1      97.666 240.623  -5.164  1.00  0.00     0.157 HD
ATOM     30  H71 UNL     1      97.013 241.897  -6.200  1.00  0.00     0.157 HD
ENDBRANCH  14  28
TORSDOF 6
ENDMDL