MODEL 4
REMARK VINA RESULT: -7.660063162      1.680      1.995
REMARK  5 active torsions:
REMARK  status: ('A' for Active; 'I' for Inactive)
REMARK    1  A    between atoms: C3_3  and  C4_4
REMARK    2  A    between atoms: C4_4  and  O1_5
REMARK    3  A    between atoms: O1_5  and  C5_6
REMARK    4  A    between atoms: C10_17  and  C11_18
REMARK    5  A    between atoms: N5_23  and  C14_25
ROOT
HETATM    1  C1  UNL     1      93.420 239.435 -12.096  1.00  0.00     0.112 C
HETATM    2  C2  UNL     1      94.813 239.000 -11.995  1.00  0.00    -0.109 C
HETATM    3  C3  UNL     1      95.991 238.655 -11.906  1.00  0.00    -0.080 C
ENDROOT
BRANCH   3   4
HETATM    4  C4  UNL     1      97.381 238.315 -11.795  1.00  0.00     0.269 C
BRANCH   4   5
HETATM    5  O1  UNL     1      97.830 237.973 -10.544  1.00  0.00    -0.337 OA
BRANCH   5   6
HETATM    6  C5  UNL     1      97.578 238.515  -9.322  1.00  0.00     0.107 A
HETATM    7  C6  UNL     1      96.772 237.863  -8.399  1.00  0.00     0.040 A
HETATM    8  C7  UNL     1      96.060 236.601  -8.791  1.00  0.00     0.071 C
HETATM    9  N1  UNL     1      96.550 238.382  -7.185  1.00  0.00    -0.365 N
HETATM   10  C8  UNL     1      97.084 239.545  -6.806  1.00  0.00     0.120 A
ATOM     11  H1  UNL     1      95.954 237.875  -6.530  1.00  0.00     0.165 HD
HETATM   12  C9  UNL     1      97.886 240.238  -7.686  1.00  0.00     0.079 A
HETATM   13  N2  UNL     1      98.533 241.418  -7.561  1.00  0.00    -0.298 N
HETATM   14  C16 UNL     1      98.152 239.744  -8.969  1.00  0.00     0.059 A
HETATM   15  N3  UNL     1      99.168 241.697  -8.662  1.00  0.00    -0.297 N
ATOM     16  H2  UNL     1      98.524 242.004  -6.726  1.00  0.00     0.187 HD
HETATM   17  C10 UNL     1      98.954 240.677  -9.583  1.00  0.00     0.092 A
ATOM     18  H3  UNL     1      99.732 242.531  -8.824  1.00  0.00     0.187 HD
BRANCH  17  19
HETATM   19  C11 UNL     1      99.511 240.711 -10.922  1.00  0.00     0.094 A
HETATM   20  C12 UNL     1     100.639 239.963 -11.257  1.00  0.00     0.138 A
HETATM   21  N4  UNL     1     101.002 240.288 -12.489  1.00  0.00    -0.200 N
HETATM   22  C13 UNL     1     100.181 241.202 -12.980  1.00  0.00     0.679 A
ATOM     23  H4  UNL     1     101.799 239.891 -12.988  1.00  0.00     0.183 HD
HETATM   24  N5  UNL     1     100.251 241.731 -14.146  1.00  0.00    -0.214 N
HETATM   25  N7  UNL     1      99.270 241.452 -12.004  1.00  0.00    -0.188 N
ATOM     26  H5  UNL     1      99.553 242.428 -14.406  1.00  0.00     0.178 HD
ATOM     27  H7  UNL     1      98.502 242.118 -12.088  1.00  0.00     0.184 HD
BRANCH  24  28
HETATM   28  C14 UNL     1     101.273 241.385 -15.110  1.00  0.00     0.262 C
HETATM   29  C15 UNL     1     100.661 241.412 -16.433  1.00  0.00     0.079 C
HETATM   30  N6  UNL     1     100.174 241.430 -17.483  1.00  0.00    -0.196 NA
ENDBRANCH  24  28
ENDBRANCH  17  19
ENDBRANCH   5   6
ENDBRANCH   4   5
ENDBRANCH   3   4
TORSDOF 5
ENDMDL