MODEL 2
REMARK VINA RESULT: -7.179925768      2.972      4.372
REMARK  5 active torsions:
REMARK  status: ('A' for Active; 'I' for Inactive)
REMARK    1  A    between atoms: C1_2  and  C2_3
REMARK       I    between atoms: C1_2  and  N2_16
REMARK    2  A    between atoms: C2_3  and  N1_4
REMARK    3  A    between atoms: N1_4  and  C3_6
REMARK    4  A    between atoms: N2_16  and  N3_18
REMARK    5  A    between atoms: N3_18  and  C12_20
ROOT
HETATM    1  C2  UNL     1      98.553 240.829  -9.145  1.00  0.00     0.219 C
ENDROOT
BRANCH   1   2
HETATM    2  C1  UNL     1      98.147 240.066  -7.917  1.00  0.00     0.253 C
HETATM    3  O1  UNL     1      97.161 240.485  -7.267  1.00  0.00    -0.270 OA
HETATM    4  N2  UNL     1      98.824 238.909  -7.469  1.00  0.00    -0.267 N
ATOM      5  H2  UNL     1      99.619 238.581  -8.016  1.00  0.00     0.190 HD
BRANCH   4   6
HETATM    6  N3  UNL     1      98.480 238.196  -6.344  1.00  0.00    -0.277 N
ATOM      7  H3  UNL     1      98.800 238.535  -5.437  1.00  0.00     0.189 HD
BRANCH   6   8
HETATM    8  C12 UNL     1      97.777 237.125  -6.384  1.00  0.00     0.163 A
HETATM    9  N4  UNL     1      97.912 235.967  -5.744  1.00  0.00    -0.345 N
HETATM   10  C13 UNL     1      97.062 235.007  -5.980  1.00  0.00     0.097 A
ATOM     11  H4  UNL     1      98.672 235.832  -5.076  1.00  0.00     0.167 HD
HETATM   12  C14 UNL     1      96.059 235.242  -6.883  1.00  0.00     0.070 A
HETATM   13  S2  UNL     1      96.383 236.842  -7.360  1.00  0.00    -0.063 SA
ENDBRANCH   6   8
ENDBRANCH   4   6
ENDBRANCH   1   2
BRANCH   1  14
HETATM   14  N1  UNL     1      99.635 240.186  -9.811  1.00  0.00    -0.404 N
ATOM     15  H1  UNL     1     100.346 239.668  -9.294  1.00  0.00     0.154 HD
BRANCH  14  16
HETATM   16  C3  UNL     1      99.680 240.299 -11.233  1.00  0.00     0.028 C
HETATM   17  C4  UNL     1     100.768 241.294 -11.597  1.00  0.00     0.035 C
HETATM   18  C5  UNL     1     100.888 241.319 -13.098  1.00  0.00    -0.010 C
HETATM   19  C6  UNL     1     101.327 239.994 -13.671  1.00  0.00     0.020 C
HETATM   20  C10 UNL     1      99.631 241.822 -13.744  1.00  0.00     0.020 C
HETATM   21  C7  UNL     1     100.373 238.904 -13.225  1.00  0.00     0.050 C
HETATM   22  C8  UNL     1     100.112 238.945 -11.748  1.00  0.00     0.045 C
HETATM   23  S1  UNL     1      98.756 239.324 -13.994  1.00  0.00    -0.159 SA
HETATM   24  C9  UNL     1      98.430 240.994 -13.301  1.00  0.00     0.050 C
HETATM   25  C11 UNL     1      98.408 240.803 -11.781  1.00  0.00     0.045 C
ENDBRANCH  14  16
ENDBRANCH   1  14
TORSDOF 5
ENDMDL