MODEL 4
REMARK VINA RESULT: -8.039826815      2.778      4.462
REMARK  8 active torsions:
REMARK  status: ('A' for Active; 'I' for Inactive)
REMARK    1  A    between atoms: C2_2  and  C4_4
REMARK    2  A    between atoms: C4_4  and  C5_5
REMARK    3  A    between atoms: C10_12  and  N1_13
REMARK       I    between atoms: N1_13  and  C11_15
REMARK    4  A    between atoms: C11_15  and  C12_17
REMARK    5  A    between atoms: C12_17  and  N2_20
REMARK    6  A    between atoms: C28_35  and  C29_36
REMARK    7  A    between atoms: C29_36  and  C30_37
REMARK    8  A    between atoms: C30_37  and  N4_38
ROOT
HETATM    1  C5  UNL     1      -6.739  -9.801   0.057  1.00  0.00     0.064 C
HETATM    2  C6  UNL     1      -6.827 -11.188   0.559  1.00  0.00     0.028 C
HETATM    3  C7  UNL     1      -6.773 -12.066  -0.458  1.00  0.00     0.056 C
HETATM    4 BR1  UNL     1      -6.855 -13.953  -0.173  1.00  0.00    -0.047 Br
HETATM    5  C8  UNL     1      -6.683 -11.332  -1.713  1.00  0.00     0.175 C
HETATM    6  O1  UNL     1      -6.992 -11.781  -2.810  1.00  0.00    -0.291 OA
HETATM    7  C9  UNL     1      -6.171 -10.036  -1.332  1.00  0.00     0.116 C
HETATM    8  C10 UNL     1      -6.209  -8.878  -2.212  1.00  0.00     0.099 C
HETATM    9  C19 UNL     1      -4.831  -8.256  -2.284  1.00  0.00     0.031 C
HETATM   10  C20 UNL     1      -4.463  -7.238  -1.292  1.00  0.00    -0.010 C
HETATM   11  C21 UNL     1      -3.058  -7.452  -0.805  1.00  0.00     0.010 C
HETATM   12  C22 UNL     1      -2.872  -8.011   0.562  1.00  0.00    -0.005 C
HETATM   13  C23 UNL     1      -3.197  -9.475   0.681  1.00  0.00     0.049 C
HETATM   14  C24 UNL     1      -4.555  -9.852   1.109  1.00  0.00     0.060 C
HETATM   15  N3  UNL     1      -5.648  -9.092   0.723  1.00  0.00    -0.375 N
HETATM   16  C25 UNL     1      -5.684  -7.735   0.882  1.00  0.00     0.085 C
HETATM   17  C26 UNL     1      -5.426  -6.831  -0.246  1.00  0.00     0.030 C
HETATM   18  C27 UNL     1      -4.786  -7.363   2.077  1.00  0.00     0.030 C
HETATM   19  C28 UNL     1      -3.345  -7.168   1.683  1.00  0.00    -0.007 C
ENDROOT
BRANCH   8  20
HETATM   20  N1  UNL     1      -6.593  -9.243  -3.557  1.00  0.00    -0.353 N
HETATM   21  C11 UNL     1      -7.922  -8.976  -4.041  1.00  0.00     0.256 C
HETATM   22  O2  UNL     1      -8.765  -8.417  -3.269  1.00  0.00    -0.271 OA
ATOM     23  H1  UNL     1      -5.915  -9.696  -4.170  1.00  0.00     0.163 HD
BRANCH  21  24
HETATM   24  C12 UNL     1      -8.356  -9.316  -5.392  1.00  0.00     0.232 C
HETATM   25  C13 UNL     1      -9.139 -10.610  -5.351  1.00  0.00     0.059 C
HETATM   26  C14 UNL     1      -7.207  -9.553  -6.344  1.00  0.00     0.059 C
BRANCH  24  27
HETATM   27  N2  UNL     1      -9.269  -8.310  -5.903  1.00  0.00     0.106 N
HETATM   28  C15 UNL     1      -8.604  -7.215  -6.523  1.00  0.00     0.274 C
HETATM   29  C16 UNL     1      -9.316  -6.966  -7.828  1.00  0.00     0.032 C
HETATM   30  C17 UNL     1     -10.643  -7.687  -7.711  1.00  0.00     0.032 C
HETATM   31  C18 UNL     1     -10.323  -8.807  -6.712  1.00  0.00     0.274 C
ENDBRANCH  24  27
ENDBRANCH  21  24
ENDBRANCH   8  20
BRANCH   1  32
HETATM   32  C4  UNL     1      -8.019  -9.127   0.169  1.00  0.00     0.040 C
BRANCH  32  33
HETATM   33  C2  UNL     1      -9.122  -9.554   1.039  1.00  0.00    -0.020 C
HETATM   34  C1  UNL     1      -9.336  -8.768   2.294  1.00  0.00     0.009 C
HETATM   35  C3  UNL     1     -10.415  -9.344   0.202  1.00  0.00     0.009 C
ENDBRANCH  32  33
ENDBRANCH   1  32
BRANCH  19  36
HETATM   36  C29 UNL     1      -2.580  -7.166   2.935  1.00  0.00     0.025 C
BRANCH  36  37
HETATM   37  C30 UNL     1      -1.264  -6.553   3.066  1.00  0.00     0.126 C
BRANCH  37  38
HETATM   38  N4  UNL     1      -1.151  -5.132   2.975  1.00  0.00    -0.352 N
HETATM   39  C31 UNL     1      -2.199  -4.220   3.391  1.00  0.00     0.125 C
HETATM   40  C32 UNL     1      -1.760  -2.872   3.807  1.00  0.00     0.020 C
HETATM   41  C33 UNL     1      -0.514  -2.327   3.219  1.00  0.00     0.011 C
HETATM   42  C34 UNL     1      -0.089  -3.077   1.946  1.00  0.00     0.103 C
HETATM   43  C35 UNL     1       0.009  -4.509   2.452  1.00  0.00     0.219 C
HETATM   44  O3  UNL     1       1.120  -5.053   2.376  1.00  0.00    -0.273 OA
ENDBRANCH  37  38
ENDBRANCH  36  37
ENDBRANCH  19  36
TORSDOF 8
ENDMDL