MODEL 2
REMARK VINA RESULT: -8.365556458      3.493      4.744
REMARK  13 active torsions:
REMARK  status: ('A' for Active; 'I' for Inactive)
REMARK    1  A    between atoms: N1_5  and  C5_6
REMARK    2  A    between atoms: C5_6  and  O1_7
REMARK    3  A    between atoms: C5_6  and  C6_9
REMARK    4  A    between atoms: C15_19  and  C20_25
REMARK    5  A    between atoms: N4_26  and  C21_27
REMARK    6  A    between atoms: C21_27  and  C22_28
REMARK    7  A    between atoms: C22_28  and  C23_29
REMARK    8  A    between atoms: C23_29  and  N5_30
REMARK    9  A    between atoms: N5_30  and  C26_33
REMARK   10  A    between atoms: C26_33  and  C27_34
REMARK   11  A    between atoms: C27_34  and  C28_35
REMARK   12  A    between atoms: C28_35  and  N6_36
REMARK       I    between atoms: N6_36  and  C29_38
REMARK   13  A    between atoms: C29_38  and  C30_40
ROOT
HETATM    1  C6  UNL     1      -7.564 -11.688  -1.292  1.00  0.00     0.177 C
HETATM    2  C7  UNL     1      -8.091 -10.821  -2.420  1.00  0.00     0.105 C
HETATM    3  N2  UNL     1      -8.857 -11.100  -3.468  1.00  0.00    -0.272 NA
HETATM    4  C8  UNL     1     -10.234 -11.066  -3.110  1.00  0.00     0.096 C
HETATM    5  C9  UNL     1     -10.553 -10.985  -1.643  1.00  0.00     0.016 C
HETATM    6  C10 UNL     1      -9.634 -10.165  -0.770  1.00  0.00     0.014 C
HETATM    7  C11 UNL     1      -8.532  -9.667  -1.652  1.00  0.00    -0.001 C
HETATM    8  C12 UNL     1      -9.164  -8.442  -2.155  1.00  0.00     0.015 C
HETATM    9  C13 UNL     1      -8.575  -7.632  -3.211  1.00  0.00     0.026 C
HETATM   10  C14 UNL     1      -7.263  -8.249  -3.435  1.00  0.00     0.090 C
HETATM   11  C15 UNL     1      -6.502  -8.540  -2.123  1.00  0.00     0.032 C
HETATM   12  C16 UNL     1      -5.132  -8.797  -2.602  1.00  0.00     0.010 C
HETATM   13  C17 UNL     1      -4.959  -8.867  -4.111  1.00  0.00     0.020 C
HETATM   14  C18 UNL     1      -6.083  -9.509  -4.888  1.00  0.00     0.123 C
HETATM   15  N3  UNL     1      -7.355  -9.335  -4.293  1.00  0.00    -0.376 N
HETATM   16  C19 UNL     1      -8.462 -10.102  -4.509  1.00  0.00     0.149 C
HETATM   17  C20 UNL     1      -7.178  -9.382  -1.126  1.00  0.00     0.100 C
HETATM   18  N4  UNL     1      -6.669 -10.703  -0.833  1.00  0.00    -0.374 N
ENDROOT
BRANCH  18  19
HETATM   19  C21 UNL     1      -5.952 -10.859   0.338  1.00  0.00     0.061 C
BRANCH  19  20
HETATM   20  C22 UNL     1      -4.461 -10.635   0.337  1.00  0.00     0.072 C
BRANCH  20  21
HETATM   21  C23 UNL     1      -3.997 -10.103   1.642  1.00  0.00     0.241 C
BRANCH  21  22
HETATM   22  N5  UNL     1      -3.763  -8.713   1.715  1.00  0.00    -0.074 N
HETATM   23  C24 UNL     1      -2.799  -8.362   2.754  1.00  0.00     0.272 C
HETATM   24  C25 UNL     1      -3.045  -8.371   0.456  1.00  0.00     0.272 C
BRANCH  22  25
HETATM   25  C26 UNL     1      -4.956  -7.943   1.764  1.00  0.00     0.238 C
BRANCH  25  26
HETATM   26  C27 UNL     1      -4.972  -6.831   0.720  1.00  0.00     0.048 C
BRANCH  26  27
HETATM   27  C28 UNL     1      -5.995  -5.810   1.161  1.00  0.00     0.124 C
BRANCH  27  28
HETATM   28  N6  UNL     1      -7.310  -6.396   1.029  1.00  0.00    -0.356 N
HETATM   29  C29 UNL     1      -8.169  -6.540   2.133  1.00  0.00     0.258 C
HETATM   30  O2  UNL     1      -7.834  -6.176   3.275  1.00  0.00    -0.267 OA
ATOM     31  H6  UNL     1      -7.623  -6.713   0.112  1.00  0.00     0.162 HD
BRANCH  29  32
HETATM   32  C30 UNL     1      -9.503  -7.146   1.893  1.00  0.00     0.074 A
HETATM   33  C31 UNL     1     -10.064  -8.222   2.520  1.00  0.00     0.027 A
HETATM   34  C32 UNL     1     -11.298  -8.582   2.134  1.00  0.00     0.033 A
HETATM   35  C33 UNL     1     -11.887  -7.841   1.145  1.00  0.00     0.075 A
HETATM   36 CL1  UNL     1     -13.500  -8.089   0.440  1.00  0.00    -0.076 Cl
HETATM   37  S1  UNL     1     -10.710  -6.670   0.786  1.00  0.00    -0.072 SA
ENDBRANCH  29  32
ENDBRANCH  27  28
ENDBRANCH  26  27
ENDBRANCH  25  26
ENDBRANCH  22  25
ENDBRANCH  21  22
ENDBRANCH  20  21
ENDBRANCH  19  20
ENDBRANCH  18  19
BRANCH   1  38
HETATM   38  C5  UNL     1      -7.031 -12.955  -1.770  1.00  0.00     0.138 C
BRANCH  38  39
HETATM   39  N1  UNL     1      -5.833 -13.642  -1.662  1.00  0.00    -0.364 N
HETATM   40  C4  UNL     1      -5.504 -14.218  -0.343  1.00  0.00     0.125 C
HETATM   41  C3  UNL     1      -5.153 -15.681  -0.479  1.00  0.00     0.024 C
HETATM   42  C2  UNL     1      -4.060 -15.870  -1.519  1.00  0.00    -0.015 C
HETATM   43  C1  UNL     1      -4.649 -16.671  -2.656  1.00  0.00     0.010 C
HETATM   44  C35 UNL     1      -3.638 -14.530  -2.074  1.00  0.00     0.024 C
HETATM   45  C34 UNL     1      -4.907 -13.904  -2.693  1.00  0.00     0.125 C
ENDBRANCH  38  39
BRANCH  38  46
HETATM   46  O1  UNL     1      -7.909 -13.637  -2.503  1.00  0.00    -0.348 OA
ATOM     47  H1  UNL     1      -8.430 -13.053  -3.041  1.00  0.00     0.219 HD
ENDBRANCH  38  46
ENDBRANCH   1  38
TORSDOF 13
ENDMDL