MODEL 3
REMARK VINA RESULT: -7.861536181      2.579      7.143
REMARK  12 active torsions:
REMARK  status: ('A' for Active; 'I' for Inactive)
REMARK    1  A    between atoms: C2_2  and  C3_3
REMARK    2  A    between atoms: C4_4  and  O1_5
REMARK    3  A    between atoms: O1_5  and  C5_6
REMARK    4  A    between atoms: C5_6  and  N1_8
REMARK    5  A    between atoms: N2_11  and  C7_12
REMARK    6  A    between atoms: C7_12  and  C8_13
REMARK    7  A    between atoms: C8_13  and  N3_15
REMARK    8  A    between atoms: N4_18  and  C12_19
REMARK    9  A    between atoms: C12_19  and  C13_20
REMARK   10  A    between atoms: C19_26  and  C20_27
REMARK   11  A    between atoms: N5_39  and  C29_40
REMARK   12  A    between atoms: C29_40  and  C30_41
ROOT
HETATM    1  C3  UNL     1      -5.103 -10.298  -0.704  1.00  0.00     0.141 C
HETATM    2  C4  UNL     1      -4.615  -8.861  -0.948  1.00  0.00     0.258 C
HETATM    3  N2  UNL     1      -5.777  -8.096  -1.378  1.00  0.00    -0.313 N
HETATM    4  C27 UNL     1      -6.397  -8.621  -2.549  1.00  0.00     0.314 C
HETATM    5  O3  UNL     1      -7.141  -7.917  -3.272  1.00  0.00    -0.262 OA
HETATM    6  C28 UNL     1      -6.121 -10.006  -2.856  1.00  0.00     0.316 C
HETATM    7  O4  UNL     1      -6.633 -10.561  -3.896  1.00  0.00    -0.262 OA
HETATM    8  N5  UNL     1      -5.258 -10.843  -2.014  1.00  0.00    -0.314 N
ENDROOT
BRANCH   3   9
HETATM    9  C7  UNL     1      -6.329  -6.943  -0.753  1.00  0.00     0.154 C
BRANCH   9  10
HETATM   10  C8  UNL     1      -7.339  -7.185   0.314  1.00  0.00     0.101 C
HETATM   11  C9  UNL     1      -6.784  -7.659   1.637  1.00  0.00     0.034 C
BRANCH  10  12
HETATM   12  N3  UNL     1      -8.443  -8.039  -0.074  1.00  0.00    -0.340 N
HETATM   13  C10 UNL     1      -8.357  -9.448   0.220  1.00  0.00     0.170 C
HETATM   14  C11 UNL     1      -9.539 -10.263  -0.161  1.00  0.00     0.079 C
HETATM   15  N4  UNL     1     -10.188  -9.762  -1.300  1.00  0.00    -0.378 N
HETATM   16  C19 UNL     1     -10.655  -8.422  -1.281  1.00  0.00     0.179 C
HETATM   17  C26 UNL     1      -9.583  -7.550  -0.729  1.00  0.00     0.243 C
HETATM   18  O2  UNL     1      -9.709  -6.307  -0.863  1.00  0.00    -0.271 OA
BRANCH  15  19
HETATM   19  C12 UNL     1     -10.834 -10.663  -2.178  1.00  0.00     0.127 C
BRANCH  19  20
HETATM   20  C13 UNL     1     -11.356 -11.886  -1.486  1.00  0.00     0.003 C
HETATM   21  C14 UNL     1     -11.475 -13.069  -2.423  1.00  0.00     0.006 C
HETATM   22  C15 UNL     1     -12.621 -13.970  -2.061  1.00  0.00     0.000 C
HETATM   23  C16 UNL     1     -13.960 -13.303  -2.260  1.00  0.00     0.000 C
HETATM   24  C17 UNL     1     -13.754 -11.806  -2.048  1.00  0.00     0.000 C
HETATM   25  C18 UNL     1     -12.748 -11.640  -0.932  1.00  0.00     0.006 C
ENDBRANCH  19  20
ENDBRANCH  15  19
BRANCH  16  26
HETATM   26  C20 UNL     1     -12.006  -8.198  -0.699  1.00  0.00     0.018 C
HETATM   27  C21 UNL     1     -12.018  -7.694   0.714  1.00  0.00     0.007 C
HETATM   28  C22 UNL     1     -13.327  -6.964   0.935  1.00  0.00     0.000 C
HETATM   29  C23 UNL     1     -14.478  -7.574   0.202  1.00  0.00     0.000 C
HETATM   30  C24 UNL     1     -14.295  -7.410  -1.289  1.00  0.00     0.000 C
HETATM   31  C25 UNL     1     -12.810  -7.207  -1.523  1.00  0.00     0.007 C
ENDBRANCH  16  26
ENDBRANCH  10  12
ENDBRANCH   9  10
ENDBRANCH   3   9
BRANCH   2  32
HETATM   32  O1  UNL     1      -3.803  -8.259  -0.069  1.00  0.00    -0.299 OA
BRANCH  32  33
HETATM   33  C5  UNL     1      -2.683  -7.502  -0.173  1.00  0.00     0.211 C
HETATM   34  S1  UNL     1      -2.396  -6.554  -1.475  1.00  0.00    -0.033 SA
BRANCH  33  35
HETATM   35  N1  UNL     1      -1.715  -7.539   0.892  1.00  0.00    -0.366 N
HETATM   36  C6  UNL     1      -2.014  -6.887   2.130  1.00  0.00     0.149 C
ATOM     37  H1  UNL     1      -0.827  -8.025   0.765  1.00  0.00     0.161 HD
ENDBRANCH  33  35
ENDBRANCH  32  33
ENDBRANCH   2  32
BRANCH   1  38
HETATM   38  C2  UNL     1      -4.327 -10.958   0.337  1.00  0.00     0.026 C
HETATM   39  C1  UNL     1      -4.927 -11.048   1.702  1.00  0.00     0.007 C
ENDBRANCH   1  38
BRANCH   8  40
HETATM   40  C29 UNL     1      -4.639 -11.939  -2.683  1.00  0.00     0.072 C
BRANCH  40  41
HETATM   41  C30 UNL     1      -5.131 -13.306  -2.566  1.00  0.00     0.024 C
HETATM   42  C31 UNL     1      -6.303 -13.741  -1.825  1.00  0.00     0.010 C
HETATM   43  C32 UNL     1      -5.920 -14.257  -0.424  1.00  0.00     0.001 C
HETATM   44  C33 UNL     1      -5.148 -15.553  -0.548  1.00  0.00     0.000 C
HETATM   45  C34 UNL     1      -4.320 -15.544  -1.825  1.00  0.00     0.001 C
HETATM   46  C35 UNL     1      -3.889 -14.130  -2.051  1.00  0.00     0.010 C
ENDBRANCH  40  41
ENDBRANCH   8  40
TORSDOF 12
ENDMDL