MODEL 5
REMARK VINA RESULT: -8.082134137      2.775      8.179
REMARK  9 active torsions:
REMARK  status: ('A' for Active; 'I' for Inactive)
REMARK       I    between atoms: C2_2  and  N1_4
REMARK       I    between atoms: N2_7  and  C5_8
REMARK    1  A    between atoms: C5_8  and  C6_10
REMARK    2  A    between atoms: C6_10  and  N3_11
REMARK    3  A    between atoms: N4_22  and  C17_23
REMARK    4  A    between atoms: C17_23  and  C18_24
REMARK    5  A    between atoms: C24_31  and  C25_32
REMARK    6  A    between atoms: C25_32  and  C26_33
REMARK       I    between atoms: C26_33  and  N5_35
REMARK    7  A    between atoms: N5_35  and  C27_37
REMARK    8  A    between atoms: C27_37  and  C28_38
REMARK    9  A    between atoms: C28_38  and  C29_39
ROOT
HETATM    1  N3  UNL     1      -7.677 -11.045  -2.526  1.00  0.00    -0.341 N
HETATM    2  C7  UNL     1      -7.673 -12.159  -1.592  1.00  0.00     0.142 C
HETATM    3  C8  UNL     1      -6.274 -12.662  -1.297  1.00  0.00     0.019 C
HETATM    4  C9  UNL     1      -6.513 -13.733  -0.173  1.00  0.00     0.096 C
HETATM    5  C10 UNL     1      -5.594 -14.751  -0.473  1.00  0.00    -0.182 C
HETATM    6  C11 UNL     1      -4.855 -15.946  -0.365  1.00  0.00     0.083 C
HETATM    7  C12 UNL     1      -4.014 -15.962  -1.690  1.00  0.00     0.038 C
HETATM    8  C13 UNL     1      -3.640 -14.658  -2.226  1.00  0.00    -0.026 C
HETATM    9  C14 UNL     1      -4.457 -13.678  -2.910  1.00  0.00    -0.007 C
HETATM   10  C15 UNL     1      -5.799 -13.248  -2.590  1.00  0.00    -0.013 C
HETATM   11  C16 UNL     1      -5.320 -11.615  -0.866  1.00  0.00     0.139 C
HETATM   12  N4  UNL     1      -5.800 -10.383  -0.362  1.00  0.00    -0.374 N
HETATM   13  C24 UNL     1      -6.064  -9.366  -1.284  1.00  0.00     0.184 C
HETATM   14  C35 UNL     1      -6.805  -9.945  -2.464  1.00  0.00     0.243 C
HETATM   15  O4  UNL     1      -6.625  -9.364  -3.572  1.00  0.00    -0.271 OA
ENDROOT
BRANCH  13  16
HETATM   16  C25 UNL     1      -5.005  -8.489  -1.803  1.00  0.00     0.137 C
BRANCH  16  17
HETATM   17  C26 UNL     1      -4.105  -7.834  -0.839  1.00  0.00     0.220 C
HETATM   18  O3  UNL     1      -4.071  -6.588  -0.761  1.00  0.00    -0.274 OA
HETATM   19  N5  UNL     1      -3.252  -8.579   0.031  1.00  0.00    -0.361 N
ATOM     20  H5  UNL     1      -3.291  -9.595  -0.050  1.00  0.00     0.162 HD
BRANCH  19  21
HETATM   21  C27 UNL     1      -2.358  -8.054   0.995  1.00  0.00     0.123 C
BRANCH  21  22
HETATM   22  C28 UNL     1      -2.764  -8.453   2.385  1.00  0.00     0.024 C
BRANCH  22  23
HETATM   23  C29 UNL     1      -2.627  -7.286   3.352  1.00  0.00    -0.013 C
HETATM   24  C30 UNL     1      -3.829  -6.405   3.282  1.00  0.00     0.005 C
HETATM   25  C31 UNL     1      -3.666  -5.203   2.384  1.00  0.00     0.000 C
HETATM   26  C32 UNL     1      -2.464  -4.372   2.716  1.00  0.00     0.000 C
HETATM   27  C33 UNL     1      -1.432  -5.094   3.528  1.00  0.00     0.000 C
HETATM   28  C34 UNL     1      -1.335  -6.554   3.156  1.00  0.00     0.005 C
ENDBRANCH  22  23
ENDBRANCH  21  22
ENDBRANCH  19  21
ENDBRANCH  16  17
ENDBRANCH  13  16
BRANCH  12  29
HETATM   29  C17 UNL     1      -6.245 -10.327   0.953  1.00  0.00     0.098 C
BRANCH  29  30
HETATM   30  C18 UNL     1      -7.286  -9.322   1.308  1.00  0.00    -0.019 A
HETATM   31  C19 UNL     1      -8.634  -9.553   1.271  1.00  0.00     0.013 A
HETATM   32  C20 UNL     1      -9.582  -8.615   1.595  1.00  0.00     0.003 A
HETATM   33  C21 UNL     1      -9.146  -7.365   1.981  1.00  0.00     0.024 A
HETATM   34  C22 UNL     1      -7.786  -7.075   2.037  1.00  0.00     0.034 A
HETATM   35 CL1  UNL     1      -7.346  -5.464   2.539  1.00  0.00    -0.084 Cl
HETATM   36  C23 UNL     1      -6.881  -8.051   1.702  1.00  0.00     0.036 A
ENDBRANCH  29  30
ENDBRANCH  12  29
BRANCH   1  37
HETATM   37  C6  UNL     1      -8.657 -11.078  -3.599  1.00  0.00     0.228 C
BRANCH  37  38
HETATM   38  C5  UNL     1     -10.033 -11.283  -3.054  1.00  0.00     0.237 C
HETATM   39  N2  UNL     1     -10.745 -10.248  -2.412  1.00  0.00    -0.348 N
HETATM   40  C4  UNL     1     -10.095  -8.950  -2.290  1.00  0.00     0.145 C
HETATM   41  C36 UNL     1     -12.060 -10.497  -1.912  1.00  0.00     0.145 C
HETATM   42  C3  UNL     1     -11.142  -7.874  -2.081  1.00  0.00     0.145 C
HETATM   43  N1  UNL     1     -12.054  -8.244  -1.011  1.00  0.00    -0.349 N
HETATM   44  C2  UNL     1     -12.694  -7.219  -0.289  1.00  0.00     0.215 C
HETATM   45  C37 UNL     1     -12.302  -9.633  -0.689  1.00  0.00     0.145 C
HETATM   46  C1  UNL     1     -13.639  -7.501   0.819  1.00  0.00     0.117 C
HETATM   47  O1  UNL     1     -12.484  -5.993  -0.562  1.00  0.00    -0.274 OA
HETATM   48  O2  UNL     1     -10.570 -12.411  -3.173  1.00  0.00    -0.272 OA
ENDBRANCH  37  38
ENDBRANCH   1  37
TORSDOF 9
ENDMDL