MODEL 4
REMARK VINA RESULT: -7.538140928      3.107      8.696
REMARK  10 active torsions:
REMARK  status: ('A' for Active; 'I' for Inactive)
REMARK    1  A    between atoms: C2_2  and  C3_3
REMARK    2  A    between atoms: C4_4  and  N1_5
REMARK    3  A    between atoms: C4_4  and  C28_35
REMARK    4  A    between atoms: N2_8  and  C7_9
REMARK    5  A    between atoms: C7_9  and  C8_10
REMARK    6  A    between atoms: C8_10  and  C9_11
REMARK       I    between atoms: N3_14  and  C12_15
REMARK    7  A    between atoms: C12_15  and  C13_17
REMARK       I    between atoms: N4_20  and  C16_21
REMARK    8  A    between atoms: C16_21  and  C17_23
REMARK    9  A    between atoms: C17_23  and  C18_24
REMARK   10  A    between atoms: C28_35  and  N5_38
REMARK       I    between atoms: N5_38  and  C31_40
REMARK       I    between atoms: C31_40  and  N6_42
ROOT
HETATM    1  N1  UNL     1      -5.259  -6.259  -0.022  1.00  0.00    -0.282 NA
HETATM    2  C5  UNL     1      -4.692  -4.983   0.321  1.00  0.00     0.125 C
HETATM    3  C6  UNL     1      -5.742  -4.032   0.897  1.00  0.00     0.287 C
HETATM    4  N2  UNL     1      -6.188  -4.512   2.163  1.00  0.00     0.090 N
HETATM    5  C26 UNL     1      -5.975  -5.914   2.348  1.00  0.00     0.287 C
HETATM    6  C27 UNL     1      -6.135  -6.636   1.040  1.00  0.00     0.125 C
ENDROOT
BRANCH   4   7
HETATM    7  C7  UNL     1      -7.463  -4.048   2.568  1.00  0.00     0.273 C
BRANCH   7   8
HETATM    8  C8  UNL     1      -7.993  -4.991   3.611  1.00  0.00     0.035 C
BRANCH   8   9
HETATM    9  C9  UNL     1      -9.295  -5.598   3.136  1.00  0.00    -0.007 C
HETATM   10  C10 UNL     1      -9.670  -5.189   1.753  1.00  0.00     0.025 C
HETATM   11  C11 UNL     1     -11.117  -5.658   1.495  1.00  0.00     0.129 C
HETATM   12  N3  UNL     1     -11.037  -7.111   1.580  1.00  0.00    -0.321 N
HETATM   13  C12 UNL     1     -11.406  -7.920   0.502  1.00  0.00     0.226 C
HETATM   14  C24 UNL     1     -10.551  -7.687   2.825  1.00  0.00     0.274 C
HETATM   15  O1  UNL     1     -11.296  -9.181   0.614  1.00  0.00    -0.273 OA
HETATM   16  F1  UNL     1     -10.440  -9.044   2.770  1.00  0.00    -0.227 F
HETATM   17  C25 UNL     1      -9.201  -7.118   3.185  1.00  0.00     0.064 C
BRANCH  13  18
HETATM   18  C13 UNL     1     -11.917  -7.365  -0.752  1.00  0.00     0.081 C
HETATM   19  C14 UNL     1     -11.611  -8.339  -1.883  1.00  0.00     0.034 C
HETATM   20  C15 UNL     1     -12.843  -9.019  -2.423  1.00  0.00     0.126 C
HETATM   21  N4  UNL     1     -13.734  -9.448  -1.374  1.00  0.00    -0.352 N
HETATM   22  C16 UNL     1     -14.233 -10.765  -1.275  1.00  0.00     0.220 C
HETATM   23  C22 UNL     1     -14.093  -8.445  -0.393  1.00  0.00     0.126 C
HETATM   24  O2  UNL     1     -15.017 -11.066  -0.342  1.00  0.00    -0.273 OA
HETATM   25  C23 UNL     1     -13.415  -7.132  -0.746  1.00  0.00     0.034 C
BRANCH  22  26
HETATM   26  C17 UNL     1     -13.873 -11.838  -2.236  1.00  0.00     0.111 C
BRANCH  26  27
HETATM   27  C18 UNL     1     -12.757 -12.712  -1.705  1.00  0.00    -0.043 C
HETATM   28  C19 UNL     1     -12.889 -14.053  -2.423  1.00  0.00     0.015 C
HETATM   29  C20 UNL     1     -11.450 -12.067  -2.048  1.00  0.00     0.015 C
HETATM   30  C21 UNL     1     -12.907 -12.955  -0.217  1.00  0.00     0.015 C
ENDBRANCH  26  27
ENDBRANCH  22  26
ENDBRANCH  13  18
ENDBRANCH   8   9
ENDBRANCH   7   8
ENDBRANCH   4   7
BRANCH   1  31
HETATM   31  C4  UNL     1      -4.141  -7.223  -0.242  1.00  0.00     0.012 C
HETATM   32  C3  UNL     1      -3.641  -7.802   0.937  1.00  0.00    -0.005 C
BRANCH  32  33
HETATM   33  C2  UNL     1      -2.507  -8.765   0.952  1.00  0.00     0.024 C
HETATM   34  C1  UNL     1      -3.139 -10.068   1.592  1.00  0.00     0.009 C
ENDBRANCH  32  33
BRANCH  31  35
HETATM   35  C28 UNL     1      -4.402  -7.844  -1.527  1.00  0.00     0.064 C
HETATM   36  C29 UNL     1      -3.139  -7.679  -2.454  1.00  0.00     0.044 C
HETATM   37  C30 UNL     1      -5.463  -7.065  -2.359  1.00  0.00     0.044 C
BRANCH  35  38
HETATM   38  N5  UNL     1      -4.712  -9.240  -1.641  1.00  0.00    -0.329 N
HETATM   39  C31 UNL     1      -5.890  -9.917  -1.335  1.00  0.00     0.319 C
HETATM   40  O3  UNL     1      -6.928  -9.345  -0.906  1.00  0.00    -0.247 OA
HETATM   41  N6  UNL     1      -5.977 -11.328  -1.496  1.00  0.00    -0.334 N
HETATM   42  C32 UNL     1      -7.185 -12.050  -1.189  1.00  0.00     0.127 C
HETATM   43  C37 UNL     1      -4.839 -12.070  -1.977  1.00  0.00     0.131 C
HETATM   44  C33 UNL     1      -6.862 -13.228  -0.289  1.00  0.00     0.020 C
HETATM   45  C34 UNL     1      -5.776 -14.108  -0.869  1.00  0.00     0.007 C
HETATM   46  C35 UNL     1      -5.179 -13.540  -2.138  1.00  0.00    -0.000 C
HETATM   47  C36 UNL     1      -3.889 -14.279  -2.423  1.00  0.00     0.011 C
ATOM     48  H5  UNL     1      -3.956  -9.824  -1.999  1.00  0.00     0.165 HD
ENDBRANCH  35  38
ENDBRANCH  31  35
ENDBRANCH   1  31
TORSDOF 10
ENDMDL