MODEL 2
REMARK VINA RESULT: -8.050636943      2.416      5.145
REMARK  9 active torsions:
REMARK  status: ('A' for Active; 'I' for Inactive)
REMARK    1  A    between atoms: C1_2  and  C2_3
REMARK       I    between atoms: C1_2  and  N4_42
REMARK       I    between atoms: N1_6  and  C5_7
REMARK    2  A    between atoms: C5_7  and  C6_9
REMARK    3  A    between atoms: C14_22  and  C15_23
REMARK    4  A    between atoms: C15_23  and  C16_24
REMARK    5  A    between atoms: C16_24  and  C17_25
REMARK    6  A    between atoms: C17_25  and  C18_26
REMARK    7  A    between atoms: C18_26  and  C19_27
REMARK    8  A    between atoms: C19_27  and  N3_28
REMARK       I    between atoms: N3_28  and  C20_30
REMARK    9  A    between atoms: C20_30  and  C21_32
ROOT
HETATM    1  C2  UNL     1      -7.687  -9.065   0.713  1.00  0.00     0.126 C
HETATM    2  C3  UNL     1      -6.902  -9.789   1.786  1.00  0.00     0.042 C
HETATM    3  C4  UNL     1      -5.806 -10.648   1.262  1.00  0.00     0.153 C
HETATM    4  N1  UNL     1      -5.769 -10.689  -0.191  1.00  0.00    -0.259 N
HETATM    5  C5  UNL     1      -5.572 -11.901  -0.850  1.00  0.00     0.270 C
HETATM    6  O2  UNL     1      -5.458 -12.965  -0.166  1.00  0.00    -0.269 OA
HETATM    7  N2  UNL     1      -5.963  -9.487  -0.879  1.00  0.00    -0.303 N
ATOM      8  H2  UNL     1      -5.391  -9.251  -1.689  1.00  0.00     0.186 HD
HETATM    9  C14 UNL     1      -6.911  -8.659  -0.452  1.00  0.00     0.017 C
ENDROOT
BRANCH   9  10
HETATM   10  C15 UNL     1      -7.065  -7.426  -1.252  1.00  0.00     0.055 C
BRANCH  10  11
HETATM   11  C16 UNL     1      -6.805  -7.661  -2.722  1.00  0.00     0.006 C
BRANCH  11  12
HETATM   12  C17 UNL     1      -5.517  -7.024  -3.183  1.00  0.00     0.002 C
BRANCH  12  13
HETATM   13  C18 UNL     1      -4.475  -8.058  -3.559  1.00  0.00     0.020 C
BRANCH  13  14
HETATM   14  C19 UNL     1      -3.093  -7.627  -3.127  1.00  0.00     0.122 C
BRANCH  14  15
HETATM   15  N3  UNL     1      -3.095  -7.030  -1.837  1.00  0.00    -0.360 N
HETATM   16  C20 UNL     1      -3.085  -7.696  -0.593  1.00  0.00     0.226 C
HETATM   17  O5  UNL     1      -3.071  -8.947  -0.573  1.00  0.00    -0.273 OA
ATOM     18  H3  UNL     1      -3.104  -6.011  -1.808  1.00  0.00     0.162 HD
BRANCH  16  19
HETATM   19  C21 UNL     1      -3.091  -6.990   0.710  1.00  0.00     0.042 C
HETATM   20  C22 UNL     1      -4.273  -6.059   0.841  1.00  0.00     0.024 C
HETATM   21  C23 UNL     1      -4.270  -5.482   2.220  1.00  0.00    -0.013 C
HETATM   22  C24 UNL     1      -4.391  -6.538   3.280  1.00  0.00     0.009 C
HETATM   23  C28 UNL     1      -3.022  -4.668   2.487  1.00  0.00     0.009 C
HETATM   24  C25 UNL     1      -3.172  -7.438   3.161  1.00  0.00    -0.013 C
HETATM   25  C26 UNL     1      -1.891  -6.657   3.358  1.00  0.00     0.009 C
HETATM   26  C30 UNL     1      -3.198  -8.061   1.798  1.00  0.00     0.024 C
HETATM   27  C27 UNL     1      -1.825  -5.599   2.301  1.00  0.00    -0.013 C
HETATM   28  C29 UNL     1      -1.827  -6.202   0.918  1.00  0.00     0.024 C
ENDBRANCH  16  19
ENDBRANCH  14  15
ENDBRANCH  13  14
ENDBRANCH  12  13
ENDBRANCH  11  12
ENDBRANCH  10  11
ENDBRANCH   9  10
BRANCH   1  29
HETATM   29  C1  UNL     1      -8.465  -8.016   1.394  1.00  0.00     0.229 C
HETATM   30  O1  UNL     1      -7.925  -7.310   2.300  1.00  0.00    -0.273 OA
HETATM   31  N4  UNL     1      -9.816  -7.742   1.094  1.00  0.00    -0.351 N
HETATM   32  C31 UNL     1     -10.643  -6.753   1.734  1.00  0.00     0.126 C
HETATM   33  C34 UNL     1     -10.617  -8.383   0.087  1.00  0.00     0.126 C
HETATM   34  C32 UNL     1     -11.930  -7.553   1.948  1.00  0.00     0.021 C
HETATM   35  C33 UNL     1     -11.955  -8.562   0.825  1.00  0.00     0.021 C
ENDBRANCH   1  29
BRANCH   5  36
HETATM   36  C6  UNL     1      -5.502 -11.949  -2.337  1.00  0.00     0.246 C
HETATM   37  C7  UNL     1      -5.609 -13.411  -2.742  1.00  0.00     0.218 C
HETATM   38  O3  UNL     1      -6.937 -13.847  -2.705  1.00  0.00    -0.345 OA
HETATM   39  C8  UNL     1      -8.059 -13.054  -2.660  1.00  0.00     0.103 A
HETATM   40  C9  UNL     1      -9.324 -13.574  -2.516  1.00  0.00     0.058 A
HETATM   41  C13 UNL     1      -7.867 -11.674  -2.770  1.00  0.00     0.103 A
HETATM   42  C10 UNL     1     -10.428 -12.738  -2.476  1.00  0.00     0.013 A
HETATM   43 BR1  UNL     1     -12.168 -13.477  -2.274  1.00  0.00    -0.051 Br
HETATM   44  C11 UNL     1     -10.220 -11.384  -2.586  1.00  0.00     0.022 A
HETATM   45  C12 UNL     1      -8.967 -10.872  -2.729  1.00  0.00     0.041 A
HETATM   46  O4  UNL     1      -6.580 -11.221  -2.913  1.00  0.00    -0.331 OA
ENDBRANCH   5  36
TORSDOF 9
ENDMDL