MODEL 1
REMARK VINA RESULT: -8.757670915      0.000      0.000
REMARK  10 active torsions:
REMARK  status: ('A' for Active; 'I' for Inactive)
REMARK    1  A    between atoms: C2_2  and  O1_3
REMARK    2  A    between atoms: O1_3  and  C3_4
REMARK    3  A    between atoms: C3_4  and  C4_6
REMARK    4  A    between atoms: N2_18  and  C14_19
REMARK    5  A    between atoms: C14_19  and  C15_20
REMARK    6  A    between atoms: C15_20  and  C16_21
REMARK       I    between atoms: C16_21  and  N3_23
REMARK    7  A    between atoms: C22_31  and  C23_32
REMARK    8  A    between atoms: C22_31  and  N5_40
REMARK    9  A    between atoms: C23_32  and  C24_33
REMARK   10  A    between atoms: C24_33  and  C25_34
REMARK       I    between atoms: N5_40  and  C31_42
ROOT
HETATM    1  C16 UNL     1     -11.962 -10.248  -1.350  1.00  0.00     0.246 C
HETATM    2  O3  UNL     1     -12.185 -11.377  -0.891  1.00  0.00    -0.268 OA
HETATM    3  N3  UNL     1     -13.110  -9.461  -1.735  1.00  0.00    -0.330 N
HETATM    4  C17 UNL     1     -13.048  -8.123  -2.288  1.00  0.00     0.143 C
HETATM    5  C18 UNL     1     -14.183  -8.056  -3.250  1.00  0.00     0.079 C
HETATM    6 BR1  UNL     1     -15.201  -6.458  -2.869  1.00  0.00    -0.089 Br
HETATM    7  C19 UNL     1     -15.017  -9.303  -3.000  1.00  0.00     0.058 C
HETATM    8  C20 UNL     1     -14.498  -9.814  -1.652  1.00  0.00     0.196 C
HETATM    9  C21 UNL     1     -15.083  -9.009  -0.558  1.00  0.00     0.085 C
HETATM   10  N4  UNL     1     -15.547  -8.379   0.287  1.00  0.00    -0.195 NA
ENDROOT
BRANCH   1  11
HETATM   11  C15 UNL     1     -10.649  -9.683  -1.521  1.00  0.00     0.105 C
BRANCH  11  12
HETATM   12  C14 UNL     1      -9.558  -9.935  -0.576  1.00  0.00     0.059 C
HETATM   13  C22 UNL     1      -9.312  -9.071   0.560  1.00  0.00     0.039 C
BRANCH  12  14
HETATM   14  N2  UNL     1      -8.420 -10.348  -1.336  1.00  0.00    -0.369 N
HETATM   15  C13 UNL     1      -8.454 -11.758  -1.677  1.00  0.00     0.165 C
HETATM   16  C12 UNL     1      -7.110 -12.254  -1.983  1.00  0.00    -0.004 A
HETATM   17  C5  UNL     1      -6.387 -11.448  -2.882  1.00  0.00     0.034 A
HETATM   18  C11 UNL     1      -6.344 -13.294  -1.624  1.00  0.00     0.000 A
HETATM   19  C4  UNL     1      -7.147 -10.286  -3.335  1.00  0.00     0.158 C
HETATM   20  N1  UNL     1      -5.193 -12.017  -3.051  1.00  0.00    -0.358 N
HETATM   21  C33 UNL     1      -7.654  -9.514  -2.126  1.00  0.00     0.100 C
HETATM   22  C34 UNL     1      -8.233  -8.266  -2.683  1.00  0.00     0.033 C
HETATM   23  C6  UNL     1      -5.122 -13.156  -2.296  1.00  0.00     0.043 A
ATOM     24  H1  UNL     1      -4.448 -11.659  -3.649  1.00  0.00     0.166 HD
HETATM   25  C7  UNL     1      -4.122 -14.064  -2.136  1.00  0.00     0.030 A
HETATM   26  C8  UNL     1      -4.269 -15.157  -1.309  1.00  0.00     0.002 A
HETATM   27  C9  UNL     1      -5.468 -15.318  -0.632  1.00  0.00     0.001 A
HETATM   28  C10 UNL     1      -6.471 -14.398  -0.799  1.00  0.00     0.014 A
BRANCH  19  29
HETATM   29  C3  UNL     1      -6.484  -9.492  -4.359  1.00  0.00     0.270 C
HETATM   30  O2  UNL     1      -6.990  -8.979  -5.356  1.00  0.00    -0.264 OA
BRANCH  29  31
HETATM   31  O1  UNL     1      -5.091  -9.267  -4.222  1.00  0.00    -0.321 OA
BRANCH  31  32
HETATM   32  C2  UNL     1      -4.602  -8.127  -3.542  1.00  0.00     0.174 C
HETATM   33  C1  UNL     1      -4.024  -8.460  -2.199  1.00  0.00     0.034 C
ENDBRANCH  31  32
ENDBRANCH  29  31
ENDBRANCH  19  29
ENDBRANCH  12  14
BRANCH  13  34
HETATM   34  C23 UNL     1      -8.201  -9.429   1.483  1.00  0.00     0.064 C
BRANCH  34  35
HETATM   35  C24 UNL     1      -7.065  -8.422   1.243  1.00  0.00     0.044 C
BRANCH  35  36
HETATM   36  C25 UNL     1      -5.761  -9.116   1.217  1.00  0.00    -0.058 A
HETATM   37  C26 UNL     1      -5.641 -10.440   0.873  1.00  0.00     0.007 A
HETATM   38  C27 UNL     1      -4.401 -11.070   0.861  1.00  0.00     0.001 A
HETATM   39  C28 UNL     1      -3.268 -10.371   1.196  1.00  0.00     0.000 A
HETATM   40  C29 UNL     1      -3.371  -9.054   1.540  1.00  0.00     0.001 A
HETATM   41  C30 UNL     1      -4.611  -8.442   1.547  1.00  0.00     0.007 A
ENDBRANCH  35  36
ENDBRANCH  34  35
ENDBRANCH  13  34
BRANCH  13  42
HETATM   42  N5  UNL     1      -9.938  -7.997   0.907  1.00  0.00    -0.329 N
HETATM   43  C31 UNL     1     -10.811  -7.859   1.997  1.00  0.00     0.217 C
HETATM   44  C32 UNL     1     -12.270  -8.023   1.761  1.00  0.00     0.117 C
HETATM   45  O4  UNL     1     -10.407  -7.607   3.150  1.00  0.00    -0.274 OA
ATOM     46  H5  UNL     1      -9.783  -7.168   0.334  1.00  0.00     0.168 HD
ENDBRANCH  13  42
ENDBRANCH  11  12
ENDBRANCH   1  11
TORSDOF 10
ENDMDL