MODEL 4
REMARK VINA RESULT: -8.439964807      1.798      2.372
REMARK  11 active torsions:
REMARK  status: ('A' for Active; 'I' for Inactive)
REMARK    1  A    between atoms: C6_6  and  N1_7
REMARK    2  A    between atoms: C9_10  and  C10_11
REMARK       I    between atoms: C10_11  and  N2_13
REMARK    3  A    between atoms: N2_13  and  C11_15
REMARK    4  A    between atoms: C11_15  and  C12_16
REMARK    5  A    between atoms: C11_15  and  C19_23
REMARK    6  A    between atoms: C12_16  and  C13_17
REMARK    7  A    between atoms: C19_23  and  O2_24
REMARK    8  A    between atoms: C19_23  and  N3_26
REMARK    9  A    between atoms: N4_31  and  S1_32
REMARK   10  A    between atoms: S1_32  and  C24_35
REMARK   11  A    between atoms: C24_35  and  C25_36
ROOT
HETATM    1  C11 UNL     1      -7.038 -12.146  -0.820  1.00  0.00     0.159 C
ENDROOT
BRANCH   1   2
HETATM    2  N2  UNL     1      -6.444 -11.198   0.184  1.00  0.00    -0.349 N
HETATM    3  C10 UNL     1      -5.227 -10.555  -0.094  1.00  0.00     0.222 C
HETATM    4  O1  UNL     1      -4.658 -10.786  -1.192  1.00  0.00    -0.273 OA
ATOM      5  H2  UNL     1      -6.924 -11.023   1.067  1.00  0.00     0.163 HD
BRANCH   3   6
HETATM    6  C9  UNL     1      -4.600  -9.610   0.884  1.00  0.00     0.081 C
HETATM    7  C8  UNL     1      -3.260  -9.122   0.365  1.00  0.00     0.044 C
HETATM    8  C7  UNL     1      -2.800  -8.049   1.322  1.00  0.00     0.273 C
HETATM    9  N1  UNL     1      -3.666  -6.896   1.140  1.00  0.00     0.096 N
HETATM   10  C34 UNL     1      -4.973  -7.211   1.624  1.00  0.00     0.273 C
HETATM   11  C33 UNL     1      -5.546  -8.513   1.192  1.00  0.00     0.044 C
BRANCH   9  12
HETATM   12  C6  UNL     1      -3.075  -5.719   1.794  1.00  0.00     0.256 C
HETATM   13  C5  UNL     1      -1.801  -6.173   2.427  1.00  0.00     0.039 C
HETATM   14  C4  UNL     1      -0.699  -5.164   2.452  1.00  0.00     0.011 C
HETATM   15  C2  UNL     1      -1.208  -3.745   2.495  1.00  0.00    -0.045 C
HETATM   16  C1  UNL     1      -1.921  -3.434   3.799  1.00  0.00     0.015 C
HETATM   17  C3  UNL     1      -0.006  -2.815   2.417  1.00  0.00     0.015 C
HETATM   18  C36 UNL     1      -2.102  -3.465   1.336  1.00  0.00     0.048 C
HETATM   19  C35 UNL     1      -2.805  -4.670   0.771  1.00  0.00     0.204 C
HETATM   20  F1  UNL     1      -2.113  -5.238  -0.281  1.00  0.00    -0.247 F
ENDBRANCH   9  12
ENDBRANCH   3   6
ENDBRANCH   1   2
BRANCH   1  21
HETATM   21  C12 UNL     1      -6.833 -13.506  -0.375  1.00  0.00     0.038 C
BRANCH  21  22
HETATM   22  C13 UNL     1      -6.321 -14.555  -1.282  1.00  0.00    -0.012 C
HETATM   23  C14 UNL     1      -5.322 -15.394  -0.441  1.00  0.00     0.005 C
HETATM   24  C15 UNL     1      -4.604 -16.284  -1.450  1.00  0.00     0.000 C
HETATM   25  C16 UNL     1      -3.493 -15.406  -2.024  1.00  0.00     0.000 C
HETATM   26  C17 UNL     1      -4.019 -13.981  -2.140  1.00  0.00     0.000 C
HETATM   27  C18 UNL     1      -5.488 -13.952  -2.405  1.00  0.00     0.005 C
ENDBRANCH  21  22
ENDBRANCH   1  21
BRANCH   1  28
HETATM   28  C19 UNL     1      -8.261 -11.511  -1.206  1.00  0.00     0.137 C
BRANCH  28  29
HETATM   29  O2  UNL     1      -9.026 -12.380  -1.903  1.00  0.00    -0.348 OA
ATOM     30  H2  UNL     1      -9.912 -12.042  -1.974  1.00  0.00     0.219 HD
ENDBRANCH  28  29
BRANCH  28  31
HETATM   31  N3  UNL     1      -8.904 -10.290  -1.097  1.00  0.00    -0.362 N
HETATM   32  C20 UNL     1     -10.259 -10.082  -0.744  1.00  0.00     0.125 C
HETATM   33  C21 UNL     1     -10.455  -8.937   0.166  1.00  0.00     0.027 C
HETATM   34  C22 UNL     1      -9.266  -8.193   0.612  1.00  0.00     0.022 C
HETATM   35  C23 UNL     1      -9.348  -6.674   0.474  1.00  0.00     0.114 C
HETATM   36  C31 UNL     1      -8.192  -8.010  -0.419  1.00  0.00     0.097 C
HETATM   37  N4  UNL     1      -9.004  -6.897  -0.913  1.00  0.00    -0.203 NA
HETATM   38  C32 UNL     1      -8.138  -9.079  -1.434  1.00  0.00     0.146 C
BRANCH  37  39
HETATM   39  S1  UNL     1      -8.058  -5.745  -1.708  1.00  0.00     0.216 S
HETATM   40  O3  UNL     1      -8.764  -4.406  -1.873  1.00  0.00    -0.211 OA
HETATM   41  O4  UNL     1      -6.842  -5.464  -0.872  1.00  0.00    -0.211 OA
BRANCH  39  42
HETATM   42  C24 UNL     1      -7.534  -6.246  -3.324  1.00  0.00     0.196 C
BRANCH  42  43
HETATM   43  C25 UNL     1      -6.170  -6.830  -3.263  1.00  0.00    -0.043 A
HETATM   44  C26 UNL     1      -5.914  -8.013  -3.957  1.00  0.00     0.008 A
HETATM   45  C27 UNL     1      -4.694  -8.636  -3.966  1.00  0.00     0.001 A
HETATM   46  C28 UNL     1      -3.669  -8.057  -3.248  1.00  0.00     0.000 A
HETATM   47  C29 UNL     1      -3.903  -6.885  -2.553  1.00  0.00     0.001 A
HETATM   48  C30 UNL     1      -5.137  -6.279  -2.560  1.00  0.00     0.008 A
ENDBRANCH  42  43
ENDBRANCH  39  42
ENDBRANCH  37  39
ENDBRANCH  28  31
ENDBRANCH   1  28
TORSDOF 11
ENDMDL