MODEL 2
REMARK VINA RESULT: -8.783262001      1.808      2.624
REMARK  8 active torsions:
REMARK  status: ('A' for Active; 'I' for Inactive)
REMARK    1  A    between atoms: C7_7  and  C8_8
REMARK       I    between atoms: C8_8  and  N1_10
REMARK    2  A    between atoms: N1_10  and  C10_12
REMARK    3  A    between atoms: C10_12  and  C11_13
REMARK    4  A    between atoms: C11_13  and  N2_14
REMARK       I    between atoms: N3_24  and  C20_25
REMARK    5  A    between atoms: C20_25  and  C21_27
REMARK    6  A    between atoms: C26_32  and  C27_33
REMARK       I    between atoms: C27_33  and  N4_35
REMARK    7  A    between atoms: N4_35  and  C28_37
REMARK    8  A    between atoms: C28_37  and  C29_38
ROOT
HETATM    1  C1  UNL     1      -8.089  -9.038  -4.328  1.00  0.00     0.011 C
HETATM    2  C2  UNL     1      -6.682  -8.684  -3.988  1.00  0.00    -0.000 C
HETATM    3  C3  UNL     1      -6.565  -7.755  -2.778  1.00  0.00     0.013 C
HETATM    4  C4  UNL     1      -5.082  -7.338  -2.817  1.00  0.00     0.013 C
HETATM    5  C5  UNL     1      -4.979  -6.051  -2.104  1.00  0.00    -0.004 C
HETATM    6  C6  UNL     1      -5.313  -6.034  -0.676  1.00  0.00     0.019 C
HETATM    7  C7  UNL     1      -4.197  -5.524   0.230  1.00  0.00     0.079 C
HETATM    8  C16 UNL     1      -3.070  -6.481   0.339  1.00  0.00     0.022 C
HETATM    9  C17 UNL     1      -2.638  -7.123  -0.989  1.00  0.00     0.028 C
HETATM   10  C18 UNL     1      -3.387  -8.377  -1.262  1.00  0.00     0.033 C
HETATM   11  C19 UNL     1      -4.220  -8.469  -2.448  1.00  0.00     0.092 C
HETATM   12  N3  UNL     1      -4.958  -9.704  -2.555  1.00  0.00    -0.343 N
HETATM   13  C20 UNL     1      -4.967 -10.781  -1.663  1.00  0.00     0.247 C
HETATM   14  O3  UNL     1      -4.259 -10.696  -0.604  1.00  0.00    -0.268 OA
HETATM   15  C35 UNL     1      -5.764  -9.834  -3.785  1.00  0.00     0.130 C
HETATM   16  C36 UNL     1      -2.459  -6.103  -2.032  1.00  0.00     0.104 C
HETATM   17  C37 UNL     1      -1.535  -6.511  -3.159  1.00  0.00     0.052 C
HETATM   18  F1  UNL     1      -1.731  -5.080  -1.370  1.00  0.00    -0.243 F
HETATM   19  C38 UNL     1      -3.684  -5.405  -2.511  1.00  0.00     0.048 C
ENDROOT
BRANCH  13  20
HETATM   20  C21 UNL     1      -5.709 -12.071  -1.764  1.00  0.00     0.001 C
HETATM   21  C22 UNL     1      -5.009 -13.132  -2.519  1.00  0.00     0.041 C
HETATM   22  C23 UNL     1      -5.136 -14.532  -2.110  1.00  0.00     0.004 C
HETATM   23  C24 UNL     1      -5.800 -14.786  -0.784  1.00  0.00     0.001 C
HETATM   24  C25 UNL     1      -6.881 -13.810  -0.486  1.00  0.00     0.019 C
HETATM   25  C26 UNL     1      -6.357 -12.380  -0.475  1.00  0.00     0.112 C
BRANCH  25  26
HETATM   26  C27 UNL     1      -7.633 -11.556  -0.368  1.00  0.00     0.226 C
HETATM   27  O4  UNL     1      -7.779 -10.797   0.592  1.00  0.00    -0.273 OA
HETATM   28  N4  UNL     1      -8.612 -11.707  -1.401  1.00  0.00    -0.360 N
ATOM     29  H4  UNL     1      -8.469 -12.343  -2.186  1.00  0.00     0.162 HD
BRANCH  28  30
HETATM   30  C28 UNL     1      -9.819 -10.909  -1.278  1.00  0.00     0.127 C
BRANCH  30  31
HETATM   31  C29 UNL     1     -10.895 -11.434  -2.188  1.00  0.00     0.003 C
HETATM   32  C30 UNL     1     -12.166 -11.666  -1.418  1.00  0.00     0.006 C
HETATM   33  C31 UNL     1     -12.919 -12.763  -2.185  1.00  0.00     0.000 C
HETATM   34  C32 UNL     1     -12.192 -14.049  -1.857  1.00  0.00     0.000 C
HETATM   35  C33 UNL     1     -10.726 -13.944  -2.206  1.00  0.00     0.000 C
HETATM   36  C34 UNL     1     -10.386 -12.657  -2.889  1.00  0.00     0.006 C
ENDBRANCH  30  31
ENDBRANCH  28  30
ENDBRANCH  25  26
ENDBRANCH  13  20
BRANCH   7  37
HETATM   37  C8  UNL     1      -4.830  -5.353   1.560  1.00  0.00     0.223 C
HETATM   38  O1  UNL     1      -5.647  -6.308   1.887  1.00  0.00    -0.273 OA
HETATM   39  N1  UNL     1      -4.657  -4.313   2.474  1.00  0.00    -0.354 N
HETATM   40  C9  UNL     1      -5.425  -4.343   3.717  1.00  0.00     0.152 C
BRANCH  39  41
HETATM   41  C10 UNL     1      -3.757  -3.226   2.280  1.00  0.00     0.155 C
BRANCH  41  42
HETATM   42  C11 UNL     1      -2.372  -3.565   1.867  1.00  0.00     0.292 C
BRANCH  42  43
HETATM   43  N2  UNL     1      -1.375  -3.495   2.913  1.00  0.00     0.094 N
HETATM   44  C12 UNL     1      -1.474  -4.744   3.643  1.00  0.00     0.298 C
HETATM   45  C13 UNL     1      -0.726  -5.883   2.997  1.00  0.00     0.198 C
HETATM   46  O2  UNL     1       0.634  -5.507   3.065  1.00  0.00    -0.388 OA
HETATM   47  C14 UNL     1       0.781  -4.476   2.175  1.00  0.00     0.198 C
HETATM   48  C15 UNL     1      -0.035  -3.255   2.441  1.00  0.00     0.298 C
ENDBRANCH  42  43
ENDBRANCH  41  42
ENDBRANCH  39  41
ENDBRANCH   7  37
TORSDOF 8
ENDMDL