MODEL 4
REMARK VINA RESULT: -6.584219531      3.832      8.286
REMARK  10 active torsions:
REMARK  status: ('A' for Active; 'I' for Inactive)
REMARK    1  A    between atoms: O1_2  and  C2_3
REMARK    2  A    between atoms: C3_4  and  O2_5
REMARK    3  A    between atoms: C4_7  and  O3_8
REMARK    4  A    between atoms: O3_8  and  C5_9
REMARK    5  A    between atoms: C5_9  and  C6_10
REMARK    6  A    between atoms: C7_12  and  S1_13
REMARK    7  A    between atoms: C9_15  and  O5_16
REMARK    8  A    between atoms: C10_18  and  O6_19
REMARK    9  A    between atoms: C11_21  and  O7_22
REMARK   10  A    between atoms: C12_24  and  O8_25
ROOT
HETATM    1  O3  UNL     1       2.557   6.717  86.318  1.00  0.00    -0.376 OA
ENDROOT
BRANCH   1   2
HETATM    2  C4  UNL     1       3.453   6.193  87.208  1.00  0.00     0.207 C
HETATM    3  C3  UNL     1       2.805   5.470  88.377  1.00  0.00     0.183 C
HETATM    4  C2  UNL     1       3.905   4.751  89.093  1.00  0.00     0.186 C
HETATM    5  C13 UNL     1       5.056   5.651  89.394  1.00  0.00     0.085 C
HETATM    6  O9  UNL     1       5.413   6.532  88.414  1.00  0.00    -0.346 OA
HETATM    7  C14 UNL     1       4.801   6.316  90.733  1.00  0.00     0.048 C
HETATM    8  C15 UNL     1       6.272   4.737  89.615  1.00  0.00     0.048 C
HETATM    9  C12 UNL     1       4.380   7.221  87.825  1.00  0.00     0.289 C
BRANCH   3  10
HETATM   10  O2  UNL     1       1.816   4.616  87.939  1.00  0.00    -0.390 OA
ATOM     11  H2  UNL     1       1.026   4.677  88.463  1.00  0.00     0.210 HD
ENDBRANCH   3  10
BRANCH   4  12
HETATM   12  O1  UNL     1       3.520   4.126  90.250  1.00  0.00    -0.385 OA
HETATM   13  C1  UNL     1       3.460   2.758  90.193  1.00  0.00     0.202 C
ENDBRANCH   4  12
BRANCH   9  14
HETATM   14  O8  UNL     1       4.916   8.083  86.869  1.00  0.00    -0.368 OA
ATOM     15  H8  UNL     1       4.253   8.414  86.275  1.00  0.00     0.212 HD
ENDBRANCH   9  14
ENDBRANCH   1   2
BRANCH   1  16
HETATM   16  C5  UNL     1       1.582   7.510  86.905  1.00  0.00     0.203 C
BRANCH  16  17
HETATM   17  C6  UNL     1       0.321   7.379  86.067  1.00  0.00     0.178 C
HETATM   18  O4  UNL     1      -0.212   6.088  86.155  1.00  0.00    -0.363 OA
HETATM   19  C7  UNL     1      -1.502   6.129  85.685  1.00  0.00     0.214 C
HETATM   20  C9  UNL     1      -1.592   6.519  84.220  1.00  0.00     0.188 C
HETATM   21  C10 UNL     1      -0.832   7.803  83.971  1.00  0.00     0.181 C
HETATM   22  C11 UNL     1       0.557   7.679  84.612  1.00  0.00     0.180 C
BRANCH  19  23
HETATM   23  S1  UNL     1      -2.366   4.555  85.935  1.00  0.00    -0.139 SA
HETATM   24  C8  UNL     1      -1.601   3.607  87.296  1.00  0.00     0.092 C
ENDBRANCH  19  23
BRANCH  20  25
HETATM   25  O5  UNL     1      -2.956   6.730  83.953  1.00  0.00    -0.389 OA
ATOM     26  H5  UNL     1      -3.004   7.068  83.067  1.00  0.00     0.210 HD
ENDBRANCH  20  25
BRANCH  21  27
HETATM   27  O6  UNL     1      -1.487   8.835  84.607  1.00  0.00    -0.390 OA
ATOM     28  H6  UNL     1      -0.843   9.394  85.026  1.00  0.00     0.210 HD
ENDBRANCH  21  27
BRANCH  22  29
HETATM   29  O7  UNL     1       1.224   8.891  84.452  1.00  0.00    -0.390 OA
ATOM     30  H7  UNL     1       0.772   9.451  83.831  1.00  0.00     0.210 HD
ENDBRANCH  22  29
ENDBRANCH  16  17
ENDBRANCH   1  16
TORSDOF 10
ENDMDL