MODEL 5
REMARK VINA RESULT: -6.918557152      3.038      5.648
REMARK  10 active torsions:
REMARK  status: ('A' for Active; 'I' for Inactive)
REMARK    1  A    between atoms: C2_2  and  O1_3
REMARK    2  A    between atoms: C3_5  and  C4_6
REMARK    3  A    between atoms: C4_6  and  O2_7
REMARK    4  A    between atoms: C5_10  and  O4_11
REMARK    5  A    between atoms: O4_11  and  C6_12
REMARK    6  A    between atoms: C8_15  and  O6_16
REMARK    7  A    between atoms: C10_19  and  N1_20
REMARK    8  A    between atoms: C11_24  and  O7_25
REMARK    9  A    between atoms: C12_27  and  O8_28
REMARK   10  A    between atoms: O8_28  and  C13_29
ROOT
HETATM    1  C1  UNL     1       8.728   1.479  94.816  1.00  0.00     0.051 C
HETATM    2  C2  UNL     1       8.079   1.735  93.451  1.00  0.00     0.111 C
HETATM    3  C3  UNL     1       8.417   3.113  93.039  1.00  0.00     0.184 C
HETATM    4  O3  UNL     1       7.687   3.634  92.007  1.00  0.00    -0.348 OA
HETATM    5  C5  UNL     1       6.724   2.787  91.490  1.00  0.00     0.294 C
HETATM    6  C11 UNL     1       5.788   2.249  92.516  1.00  0.00     0.205 C
HETATM    7  C12 UNL     1       6.619   1.408  93.496  1.00  0.00     0.192 C
ENDROOT
BRANCH   5   8
HETATM    8  O4  UNL     1       5.969   3.497  90.550  1.00  0.00    -0.327 OA
BRANCH   8   9
HETATM    9  C6  UNL     1       5.956   4.850  90.759  1.00  0.00     0.293 C
HETATM   10  O5  UNL     1       4.606   5.212  90.946  1.00  0.00    -0.357 OA
HETATM   11  C7  UNL     1       3.795   4.709  89.942  1.00  0.00     0.202 C
HETATM   12  C8  UNL     1       4.114   5.360  88.612  1.00  0.00     0.144 C
HETATM   13  C9  UNL     1       5.305   6.276  88.812  1.00  0.00     0.071 C
HETATM   14  C10 UNL     1       6.428   5.567  89.541  1.00  0.00     0.240 C
BRANCH  12  15
HETATM   15  O6  UNL     1       3.060   6.150  88.153  1.00  0.00    -0.393 OA
ATOM     16  H6  UNL     1       2.468   5.661  87.594  1.00  0.00     0.210 HD
ENDBRANCH  12  15
BRANCH  14  17
HETATM   17  N1  UNL     1       7.018   4.648  88.586  1.00  0.00    -0.070 N
ATOM     18  H13 UNL     1       6.303   4.141  88.063  1.00  0.00     0.274 HD
ATOM     19  H12 UNL     1       7.456   5.144  87.810  1.00  0.00     0.274 HD
ATOM     20  H11 UNL     1       7.672   4.011  89.040  1.00  0.00     0.274 HD
ENDBRANCH  14  17
ENDBRANCH   8   9
ENDBRANCH   5   8
BRANCH   6  21
HETATM   21  O7  UNL     1       5.033   3.211  93.152  1.00  0.00    -0.388 OA
ATOM     22  H7  UNL     1       4.160   2.925  93.393  1.00  0.00     0.210 HD
ENDBRANCH   6  21
BRANCH   3  23
HETATM   23  C4  UNL     1       8.370   4.114  94.187  1.00  0.00     0.199 C
BRANCH  23  24
HETATM   24  O2  UNL     1       7.250   4.958  94.059  1.00  0.00    -0.398 OA
ATOM     25  H2  UNL     1       7.525   5.855  93.912  1.00  0.00     0.209 HD
ENDBRANCH  23  24
ENDBRANCH   3  23
BRANCH   7  26
HETATM   26  O8  UNL     1       6.453   0.106  93.141  1.00  0.00    -0.375 OA
BRANCH  26  27
HETATM   27  C13 UNL     1       5.761  -0.724  93.930  1.00  0.00     0.122 C
HETATM   28  C14 UNL     1       5.017  -1.847  93.294  1.00  0.00     0.032 C
HETATM   29  C15 UNL     1       4.770  -2.841  94.411  1.00  0.00     0.002 C
HETATM   30  C16 UNL     1       5.360  -2.218  95.659  1.00  0.00     0.002 C
HETATM   31  C17 UNL     1       6.521  -1.424  95.034  1.00  0.00     0.032 C
ENDBRANCH  26  27
ENDBRANCH   7  26
BRANCH   2  32
HETATM   32  O1  UNL     1       8.758   0.857  92.571  1.00  0.00    -0.385 OA
ATOM     33  H1  UNL     1       8.634   1.243  91.712  1.00  0.00     0.210 HD
ENDBRANCH   2  32
TORSDOF 10
ENDMDL