MODEL 3
REMARK VINA RESULT: -8.349196288      4.761      8.808
REMARK  7 active torsions:
REMARK  status: ('A' for Active; 'I' for Inactive)
REMARK    1  A    between atoms: C2_2  and  C3_3
REMARK    2  A    between atoms: C4_4  and  O1_5
REMARK    3  A    between atoms: C5_7  and  N1_8
REMARK       I    between atoms: N1_8  and  C6_10
REMARK       I    between atoms: C6_10  and  N4_15
REMARK    4  A    between atoms: C9_19  and  C10_20
REMARK    5  A    between atoms: C10_20  and  O2_21
REMARK    6  A    between atoms: O2_21  and  N6_22
REMARK    7  A    between atoms: C16_32  and  N9_33
ROOT
HETATM    1  N1  UNL     1       7.872   4.691  91.172  1.00  0.00    -0.217 N
ATOM      2  H1  UNL     1       8.069   3.720  90.930  1.00  0.00     0.178 HD
HETATM    3  C6  UNL     1       8.710   5.344  92.117  1.00  0.00     0.696 C
HETATM    4  N2  UNL     1       8.846   4.993  93.333  1.00  0.00    -0.125 N
ATOM      5  H2  UNL     1       9.478   5.541  93.917  1.00  0.00     0.197 HD
HETATM    6  C7  UNL     1       8.196   3.918  93.918  1.00  0.00     0.196 C
HETATM    7  N3  UNL     1       7.655   3.013  94.391  1.00  0.00    -0.171 NA
HETATM    8  N4  UNL     1       9.441   6.475  91.640  1.00  0.00    -0.125 N
ATOM      9  H4  UNL     1       8.987   7.387  91.671  1.00  0.00     0.197 HD
HETATM   10  C8  UNL     1      10.727   6.407  91.138  1.00  0.00     0.196 C
HETATM   11  N5  UNL     1      11.810   6.347  90.735  1.00  0.00    -0.171 NA
ENDROOT
BRANCH   1  12
HETATM   12  C5  UNL     1       6.747   5.352  90.538  1.00  0.00     0.135 C
HETATM   13  C4  UNL     1       5.516   5.238  91.407  1.00  0.00     0.146 C
HETATM   14  C3  UNL     1       4.810   4.487  90.299  1.00  0.00     0.024 C
HETATM   15  C9  UNL     1       6.107   4.487  89.519  1.00  0.00     0.044 C
BRANCH  13  16
HETATM   16  O1  UNL     1       4.963   6.446  91.763  1.00  0.00    -0.393 OA
ATOM     17  H1  UNL     1       4.211   6.404  92.343  1.00  0.00     0.210 HD
ENDBRANCH  13  16
BRANCH  14  18
HETATM   18  C2  UNL     1       4.356   3.093  90.671  1.00  0.00     0.003 C
HETATM   19  C1  UNL     1       3.032   2.830  90.021  1.00  0.00     0.005 C
ENDBRANCH  14  18
BRANCH  15  20
HETATM   20  C10 UNL     1       5.914   5.016  88.150  1.00  0.00     0.208 C
BRANCH  20  21
HETATM   21  O2  UNL     1       4.617   5.468  87.854  1.00  0.00    -0.280 OA
BRANCH  21  22
HETATM   22  N6  UNL     1       4.549   6.644  87.151  1.00  0.00    -0.266 N
HETATM   23  C11 UNL     1       3.518   7.267  86.791  1.00  0.00     0.103 C
HETATM   24  C12 UNL     1       2.218   6.709  87.140  1.00  0.00     0.139 C
HETATM   25  C16 UNL     1       3.697   8.529  86.030  1.00  0.00     0.238 C
HETATM   26  N7  UNL     1       2.190   5.455  87.803  1.00  0.00    -0.081 NA
HETATM   27  N8  UNL     1       1.020   7.204  86.930  1.00  0.00    -0.377 N
HETATM   28  C13 UNL     1       0.797   8.479  86.267  1.00  0.00     0.121 C
ATOM     29  H8  UNL     1       0.210   6.670  87.245  1.00  0.00     0.160 HD
HETATM   30  C14 UNL     1       1.412   8.592  84.921  1.00  0.00     0.022 C
HETATM   31  C15 UNL     1       2.870   8.482  84.797  1.00  0.00     0.041 C
ATOM     32  H6  UNL     1       5.442   7.063  86.889  1.00  0.00     0.194 HD
BRANCH  25  33
HETATM   33  N9  UNL     1       5.093   8.679  85.648  1.00  0.00    -0.070 N
ATOM     34  H93 UNL     1       5.709   8.745  86.458  1.00  0.00     0.275 HD
ATOM     35  H92 UNL     1       5.473   7.823  85.243  1.00  0.00     0.275 HD
ATOM     36  H91 UNL     1       5.195   9.478  85.022  1.00  0.00     0.275 HD
ENDBRANCH  25  33
ENDBRANCH  21  22
ENDBRANCH  20  21
ENDBRANCH  15  20
ENDBRANCH   1  12
TORSDOF 7
ENDMDL