MODEL 3
REMARK VINA RESULT: -6.428296231      2.264      7.373
REMARK  9 active torsions:
REMARK  status: ('A' for Active; 'I' for Inactive)
REMARK    1  A    between atoms: N1_2  and  C2_5
REMARK    2  A    between atoms: C4_7  and  O1_8
REMARK    3  A    between atoms: O1_8  and  C5_9
REMARK    4  A    between atoms: C8_13  and  O3_14
REMARK    5  A    between atoms: C9_16  and  O4_17
REMARK    6  A    between atoms: C10_19  and  O5_20
REMARK    7  A    between atoms: C15_26  and  O6_27
REMARK    8  A    between atoms: C15_26  and  C16_29
REMARK    9  A    between atoms: C16_29  and  O8_31
ROOT
HETATM    1  C2  UNL     1       7.364   3.896  90.424  1.00  0.00     0.202 C
HETATM    2  C3  UNL     1       6.660   4.583  89.234  1.00  0.00     0.068 C
HETATM    3  C4  UNL     1       5.858   5.713  89.837  1.00  0.00     0.156 C
HETATM    4  C10 UNL     1       6.200   5.704  91.338  1.00  0.00     0.161 C
HETATM    5  C11 UNL     1       6.460   4.244  91.530  1.00  0.00     0.057 C
HETATM    6  C12 UNL     1       5.128   3.502  91.236  1.00  0.00     0.018 C
HETATM    7  C13 UNL     1       5.454   2.115  91.717  1.00  0.00     0.004 C
HETATM    8  C14 UNL     1       6.663   2.242  92.659  1.00  0.00     0.049 C
HETATM    9  C15 UNL     1       6.710   3.762  92.889  1.00  0.00     0.157 C
ENDROOT
BRANCH   3  10
HETATM   10  O1  UNL     1       6.236   6.967  89.378  1.00  0.00    -0.351 OA
BRANCH  10  11
HETATM   11  C5  UNL     1       5.201   7.728  88.915  1.00  0.00     0.292 C
HETATM   12  O2  UNL     1       5.586   8.877  88.234  1.00  0.00    -0.351 OA
HETATM   13  C6  UNL     1       4.343   9.433  87.899  1.00  0.00     0.152 C
HETATM   14  C7  UNL     1       3.682  10.098  89.076  1.00  0.00     0.042 C
HETATM   15  C8  UNL     1       3.505   8.260  87.398  1.00  0.00     0.180 C
HETATM   16  C9  UNL     1       4.284   7.064  87.936  1.00  0.00     0.204 C
BRANCH  15  17
HETATM   17  O3  UNL     1       2.231   8.343  87.960  1.00  0.00    -0.390 OA
ATOM     18  H3  UNL     1       1.851   9.185  87.738  1.00  0.00     0.210 HD
ENDBRANCH  15  17
BRANCH  16  19
HETATM   19  O4  UNL     1       4.971   6.503  86.858  1.00  0.00    -0.388 OA
ATOM     20  H4  UNL     1       5.169   7.141  86.182  1.00  0.00     0.210 HD
ENDBRANCH  16  19
ENDBRANCH  10  11
ENDBRANCH   3  10
BRANCH   4  21
HETATM   21  O5  UNL     1       5.067   6.169  91.981  1.00  0.00    -0.392 OA
ATOM     22  H5  UNL     1       4.610   6.704  91.343  1.00  0.00     0.210 HD
ENDBRANCH   4  21
BRANCH   1  23
HETATM   23  N1  UNL     1       8.678   4.475  90.437  1.00  0.00    -0.074 N
HETATM   24  C1  UNL     1       9.620   3.382  90.674  1.00  0.00     0.267 C
ATOM     25  H12 UNL     1       8.774   5.241  91.104  1.00  0.00     0.277 HD
ATOM     26  H11 UNL     1       8.888   5.012  89.596  1.00  0.00     0.277 HD
ENDBRANCH   1  23
BRANCH   9  27
HETATM   27  O6  UNL     1       5.482   3.998  93.601  1.00  0.00    -0.379 OA
ATOM     28  H6  UNL     1       5.274   3.170  94.017  1.00  0.00     0.211 HD
ENDBRANCH   9  27
BRANCH   9  29
HETATM   29  C16 UNL     1       7.841   4.222  93.647  1.00  0.00     0.294 C
HETATM   30  O7  UNL     1       8.484   5.247  93.367  1.00  0.00    -0.262 OA
BRANCH  29  31
HETATM   31  O8  UNL     1       8.290   3.511  94.779  1.00  0.00    -0.324 OA
HETATM   32  C17 UNL     1       9.399   3.929  95.552  1.00  0.00     0.213 C
ENDBRANCH  29  31
ENDBRANCH   9  29
TORSDOF 9
ENDMDL