MODEL 2
REMARK VINA RESULT: -7.625141419      1.755      8.389
REMARK  10 active torsions:
REMARK  status: ('A' for Active; 'I' for Inactive)
REMARK    1  A    between atoms: O1_1  and  C1_3
REMARK    2  A    between atoms: C1_3  and  C2_4
REMARK    3  A    between atoms: C3_6  and  O3_7
REMARK    4  A    between atoms: O3_7  and  C4_8
REMARK    5  A    between atoms: C6_11  and  O5_12
REMARK    6  A    between atoms: O5_12  and  C7_13
REMARK    7  A    between atoms: C13_19  and  O6_20
REMARK    8  A    between atoms: C15_23  and  O7_24
REMARK    9  A    between atoms: C16_26  and  O8_27
REMARK   10  A    between atoms: C17_29  and  O9_30
ROOT
HETATM    1  O3  UNL     1       3.643   5.599  87.874  1.00  0.00    -0.351 OA
ENDROOT
BRANCH   1   2
HETATM    2  C3  UNL     1       2.389   6.190  87.821  1.00  0.00     0.292 C
HETATM    3  O2  UNL     1       2.421   7.552  87.735  1.00  0.00    -0.348 OA
HETATM    4  C2  UNL     1       2.630   7.991  86.465  1.00  0.00     0.179 C
HETATM    5  C17 UNL     1       1.440   7.698  85.566  1.00  0.00     0.180 C
HETATM    6  C16 UNL     1       0.607   6.587  86.178  1.00  0.00     0.183 C
HETATM    7  C15 UNL     1       1.450   5.573  86.874  1.00  0.00     0.204 C
BRANCH   4   8
HETATM    8  C1  UNL     1       3.870   7.481  85.784  1.00  0.00     0.198 C
BRANCH   8   9
HETATM    9  O1  UNL     1       5.018   8.004  86.384  1.00  0.00    -0.398 OA
ATOM     10  H1  UNL     1       5.612   7.308  86.642  1.00  0.00     0.209 HD
ENDBRANCH   8   9
ENDBRANCH   4   8
BRANCH   5  11
HETATM   11  O9  UNL     1       0.653   8.834  85.518  1.00  0.00    -0.390 OA
ATOM     12  H9  UNL     1      -0.219   8.575  85.243  1.00  0.00     0.210 HD
ENDBRANCH   5  11
BRANCH   6  13
HETATM   13  O8  UNL     1      -0.349   7.064  87.053  1.00  0.00    -0.390 OA
ATOM     14  H8  UNL     1      -1.031   7.507  86.562  1.00  0.00     0.210 HD
ENDBRANCH   6  13
BRANCH   7  15
HETATM   15  O7  UNL     1       0.540   4.683  87.504  1.00  0.00    -0.388 OA
ATOM     16  H7  UNL     1      -0.363   4.972  87.436  1.00  0.00     0.210 HD
ENDBRANCH   7  15
ENDBRANCH   1   2
BRANCH   1  17
HETATM   17  C4  UNL     1       4.255   5.600  89.094  1.00  0.00     0.151 C
HETATM   18  C5  UNL     1       3.796   4.415  89.895  1.00  0.00     0.203 C
HETATM   19  O4  UNL     1       4.617   4.105  90.956  1.00  0.00    -0.356 OA
HETATM   20  C6  UNL     1       5.861   3.783  90.475  1.00  0.00     0.288 C
HETATM   21  C13 UNL     1       6.524   5.102  90.054  1.00  0.00     0.175 C
HETATM   22  C14 UNL     1       5.758   5.588  88.850  1.00  0.00     0.071 C
BRANCH  20  23
HETATM   23  O5  UNL     1       6.675   3.116  91.349  1.00  0.00    -0.353 OA
BRANCH  23  24
HETATM   24  C7  UNL     1       6.049   2.789  92.549  1.00  0.00     0.124 C
HETATM   25  C8  UNL     1       5.886   1.308  92.733  1.00  0.00     0.032 C
HETATM   26  C9  UNL     1       7.169   0.576  92.950  1.00  0.00     0.002 C
HETATM   27  C10 UNL     1       8.359   1.487  93.104  1.00  0.00     0.000 C
HETATM   28  C11 UNL     1       8.008   2.548  94.102  1.00  0.00     0.002 C
HETATM   29  C12 UNL     1       6.863   3.411  93.664  1.00  0.00     0.032 C
ENDBRANCH  23  24
ENDBRANCH  20  23
BRANCH  21  30
HETATM   30  O6  UNL     1       6.416   6.051  91.049  1.00  0.00    -0.391 OA
ATOM     31  H6  UNL     1       7.162   6.639  91.042  1.00  0.00     0.210 HD
ENDBRANCH  21  30
ENDBRANCH   1  17
TORSDOF 10
ENDMDL