MODEL 4
REMARK VINA RESULT: -7.212720922      3.525      6.322
REMARK  10 active torsions:
REMARK  status: ('A' for Active; 'I' for Inactive)
REMARK    1  A    between atoms: C3_4  and  O2_5
REMARK    2  A    between atoms: O2_5  and  C4_6
REMARK    3  A    between atoms: C7_9  and  O3_10
REMARK    4  A    between atoms: C8_12  and  O4_13
REMARK    5  A    between atoms: O4_13  and  C9_14
REMARK    6  A    between atoms: C12_17  and  O5_18
REMARK    7  A    between atoms: C13_20  and  C14_21
REMARK    8  A    between atoms: C14_21  and  N1_22
REMARK    9  A    between atoms: C15_27  and  N2_28
REMARK   10  A    between atoms: C17_33  and  O7_34
ROOT
HETATM    1  C4  UNL     1       3.787   5.798  88.341  1.00  0.00     0.156 C
HETATM    2  C5  UNL     1       3.558   4.855  89.524  1.00  0.00     0.037 C
HETATM    3  C6  UNL     1       4.961   4.649  90.090  1.00  0.00     0.037 C
HETATM    4  C7  UNL     1       5.863   5.637  89.366  1.00  0.00     0.149 C
HETATM    5  C8  UNL     1       4.837   6.684  88.931  1.00  0.00     0.182 C
ENDROOT
BRANCH   1   6
HETATM    6  O2  UNL     1       2.681   6.516  88.021  1.00  0.00    -0.351 OA
BRANCH   6   7
HETATM    7  C3  UNL     1       2.196   6.310  86.732  1.00  0.00     0.291 C
HETATM    8  O1  UNL     1       2.909   6.875  85.732  1.00  0.00    -0.352 OA
HETATM    9  C2  UNL     1       2.486   8.159  85.463  1.00  0.00     0.149 C
HETATM   10  C1  UNL     1       3.405   8.926  84.537  1.00  0.00     0.042 C
HETATM   11  C17 UNL     1       1.106   8.155  84.820  1.00  0.00     0.149 C
HETATM   12  C16 UNL     1       0.405   6.843  85.161  1.00  0.00     0.072 C
HETATM   13  C15 UNL     1       0.735   6.535  86.606  1.00  0.00     0.240 C
BRANCH  11  14
HETATM   14  O7  UNL     1       0.411   9.266  85.202  1.00  0.00    -0.393 OA
ATOM     15  H7  UNL     1       0.772  10.036  84.779  1.00  0.00     0.210 HD
ENDBRANCH  11  14
BRANCH  13  16
HETATM   16  N2  UNL     1       0.271   7.690  87.371  1.00  0.00    -0.070 N
ATOM     17  H23 UNL     1       0.508   7.594  88.358  1.00  0.00     0.274 HD
ATOM     18  H22 UNL     1       0.820   8.521  87.148  1.00  0.00     0.274 HD
ATOM     19  H21 UNL     1      -0.727   7.870  87.252  1.00  0.00     0.274 HD
ENDBRANCH  13  16
ENDBRANCH   6   7
ENDBRANCH   1   6
BRANCH   5  20
HETATM   20  O4  UNL     1       5.370   7.607  88.079  1.00  0.00    -0.351 OA
BRANCH  20  21
HETATM   21  C9  UNL     1       5.391   8.879  88.645  1.00  0.00     0.261 C
HETATM   22  C10 UNL     1       4.248   9.755  88.268  1.00  0.00     0.063 C
HETATM   23  C11 UNL     1       4.278  10.956  89.190  1.00  0.00     0.039 C
HETATM   24  C12 UNL     1       5.667  11.432  89.384  1.00  0.00     0.149 C
HETATM   25  C13 UNL     1       6.710  10.807  88.543  1.00  0.00     0.178 C
HETATM   26  O6  UNL     1       6.578   9.484  88.274  1.00  0.00    -0.352 OA
BRANCH  24  27
HETATM   27  O5  UNL     1       6.065  11.381  90.741  1.00  0.00    -0.393 OA
ATOM     28  H5  UNL     1       5.537  11.946  91.292  1.00  0.00     0.210 HD
ENDBRANCH  24  27
BRANCH  25  29
HETATM   29  C14 UNL     1       6.899  11.647  87.272  1.00  0.00     0.264 C
BRANCH  29  30
HETATM   30  N1  UNL     1       7.057  10.787  86.116  1.00  0.00    -0.077 N
ATOM     31  H13 UNL     1       7.785  11.126  85.488  1.00  0.00     0.274 HD
ATOM     32  H12 UNL     1       7.475   9.890  86.364  1.00  0.00     0.274 HD
ATOM     33  H11 UNL     1       6.164  10.671  85.636  1.00  0.00     0.274 HD
ENDBRANCH  29  30
ENDBRANCH  25  29
ENDBRANCH  20  21
ENDBRANCH   5  20
BRANCH   4  34
HETATM   34  O3  UNL     1       6.411   4.986  88.281  1.00  0.00    -0.393 OA
ATOM     35  H3  UNL     1       7.199   4.546  88.578  1.00  0.00     0.210 HD
ENDBRANCH   4  34
TORSDOF 10
ENDMDL