MODEL 4
REMARK VINA RESULT: -7.613123611      5.638      8.719
REMARK  10 active torsions:
REMARK  status: ('A' for Active; 'I' for Inactive)
REMARK    1  A    between atoms: O1_1  and  C1_3
REMARK    2  A    between atoms: C1_3  and  C2_4
REMARK    3  A    between atoms: C3_6  and  O3_7
REMARK    4  A    between atoms: O3_7  and  C4_8
REMARK    5  A    between atoms: C4_8  and  C5_9
REMARK    6  A    between atoms: C6_11  and  C7_12
REMARK    7  A    between atoms: C14_20  and  O6_21
REMARK    8  A    between atoms: C15_23  and  O7_24
REMARK    9  A    between atoms: C16_26  and  O8_27
REMARK   10  A    between atoms: C17_29  and  O9_30
ROOT
HETATM    1  O3  UNL     1       5.365  -2.493  95.985  1.00  0.00    -0.356 OA
ENDROOT
BRANCH   1   2
HETATM    2  C3  UNL     1       4.434  -3.221  95.287  1.00  0.00     0.291 C
HETATM    3  O2  UNL     1       3.289  -2.455  94.988  1.00  0.00    -0.348 OA
HETATM    4  C2  UNL     1       2.265  -3.363  94.644  1.00  0.00     0.179 C
HETATM    5  C17 UNL     1       2.623  -4.158  93.408  1.00  0.00     0.180 C
HETATM    6  C16 UNL     1       3.962  -3.656  92.924  1.00  0.00     0.183 C
HETATM    7  C15 UNL     1       4.969  -3.849  94.036  1.00  0.00     0.204 C
BRANCH   4   8
HETATM    8  C1  UNL     1       0.975  -2.650  94.411  1.00  0.00     0.198 C
BRANCH   8   9
HETATM    9  O1  UNL     1       1.233  -1.405  93.850  1.00  0.00    -0.398 OA
ATOM     10  H1  UNL     1       1.155  -1.463  92.905  1.00  0.00     0.209 HD
ENDBRANCH   8   9
ENDBRANCH   4   8
BRANCH   5  11
HETATM   11  O9  UNL     1       1.640  -4.040  92.430  1.00  0.00    -0.390 OA
ATOM     12  H9  UNL     1       0.883  -4.576  92.636  1.00  0.00     0.210 HD
ENDBRANCH   5  11
BRANCH   6  13
HETATM   13  O8  UNL     1       3.796  -2.300  92.615  1.00  0.00    -0.390 OA
ATOM     14  H8  UNL     1       3.596  -2.176  91.695  1.00  0.00     0.210 HD
ENDBRANCH   6  13
BRANCH   7  15
HETATM   15  O7  UNL     1       5.122  -5.233  94.203  1.00  0.00    -0.388 OA
ATOM     16  H7  UNL     1       5.847  -5.421  94.788  1.00  0.00     0.210 HD
ENDBRANCH   7  15
ENDBRANCH   1   2
BRANCH   1  17
HETATM   17  C4  UNL     1       6.462  -2.225  95.197  1.00  0.00     0.208 C
BRANCH  17  18
HETATM   18  C5  UNL     1       6.536  -0.762  94.808  1.00  0.00     0.200 C
HETATM   19  O4  UNL     1       6.052  -0.535  93.548  1.00  0.00    -0.371 OA
HETATM   20  C6  UNL     1       6.515   0.586  92.913  1.00  0.00     0.150 C
HETATM   21  C13 UNL     1       7.924   0.959  93.221  1.00  0.00     0.203 C
HETATM   22  O5  UNL     1       8.606  -0.102  93.785  1.00  0.00    -0.356 OA
HETATM   23  C14 UNL     1       7.957  -0.325  95.022  1.00  0.00     0.287 C
BRANCH  20  24
HETATM   24  C7  UNL     1       5.629   1.809  93.188  1.00  0.00     0.017 C
HETATM   25  C8  UNL     1       6.499   3.037  93.277  1.00  0.00     0.007 C
HETATM   26  C9  UNL     1       5.980   4.173  92.429  1.00  0.00     0.000 C
HETATM   27  C10 UNL     1       5.854   3.653  91.016  1.00  0.00     0.000 C
HETATM   28  C11 UNL     1       4.763   2.643  90.979  1.00  0.00     0.000 C
HETATM   29  C12 UNL     1       4.495   1.925  92.245  1.00  0.00     0.007 C
ENDBRANCH  20  24
BRANCH  23  30
HETATM   30  O6  UNL     1       8.011   0.839  95.785  1.00  0.00    -0.369 OA
ATOM     31  H6  UNL     1       8.824   1.307  95.635  1.00  0.00     0.212 HD
ENDBRANCH  23  30
ENDBRANCH  17  18
ENDBRANCH   1  17
TORSDOF 10
ENDMDL