MODEL 2
REMARK VINA RESULT: -7.318604380      6.873     11.573
REMARK  10 active torsions:
REMARK  status: ('A' for Active; 'I' for Inactive)
REMARK    1  A    between atoms: N1_1  and  C1_5
REMARK    2  A    between atoms: C4_8  and  O1_9
REMARK    3  A    between atoms: O1_9  and  C5_10
REMARK    4  A    between atoms: C6_12  and  C7_13
REMARK    5  A    between atoms: C8_15  and  O4_16
REMARK    6  A    between atoms: C9_18  and  O5_19
REMARK    7  A    between atoms: C10_21  and  O6_22
REMARK    8  A    between atoms: C11_24  and  O7_25
REMARK    9  A    between atoms: O7_25  and  C12_26
REMARK   10  A    between atoms: C17_31  and  O8_32
ROOT
HETATM    1  C1  UNL     1       3.935   7.769  85.680  1.00  0.00     0.214 C
HETATM    2  C2  UNL     1       2.883   8.790  85.910  1.00  0.00     0.038 C
HETATM    3  C3  UNL     1       2.230   8.737  87.251  1.00  0.00     0.037 C
HETATM    4  C4  UNL     1       1.665   7.316  87.384  1.00  0.00     0.156 C
HETATM    5  C11 UNL     1       2.914   6.462  87.590  1.00  0.00     0.181 C
HETATM    6  C17 UNL     1       3.859   6.524  86.449  1.00  0.00     0.180 C
ENDROOT
BRANCH   4   7
HETATM    7  O1  UNL     1       1.042   7.031  86.186  1.00  0.00    -0.351 OA
BRANCH   7   8
HETATM    8  C5  UNL     1      -0.329   7.012  86.244  1.00  0.00     0.292 C
HETATM    9  O2  UNL     1      -0.771   5.760  85.872  1.00  0.00    -0.344 OA
HETATM   10  C6  UNL     1      -1.998   5.753  85.250  1.00  0.00     0.217 C
HETATM   11  C8  UNL     1      -1.971   6.394  83.874  1.00  0.00     0.185 C
HETATM   12  C9  UNL     1      -0.994   7.546  83.946  1.00  0.00     0.183 C
HETATM   13  C10 UNL     1      -0.990   8.041  85.362  1.00  0.00     0.204 C
BRANCH  10  14
HETATM   14  C7  UNL     1      -2.366   4.310  85.026  1.00  0.00     0.265 C
HETATM   15  O3  UNL     1      -3.422   3.970  84.547  1.00  0.00    -0.304 OA
ENDBRANCH  10  14
BRANCH  11  16
HETATM   16  O4  UNL     1      -1.636   5.479  82.881  1.00  0.00    -0.390 OA
ATOM     17  H4  UNL     1      -1.495   5.902  82.042  1.00  0.00     0.210 HD
ENDBRANCH  11  16
BRANCH  12  18
HETATM   18  O5  UNL     1       0.257   7.077  83.541  1.00  0.00    -0.390 OA
ATOM     19  H5  UNL     1       0.767   7.820  83.242  1.00  0.00     0.210 HD
ENDBRANCH  12  18
BRANCH  13  20
HETATM   20  O6  UNL     1      -0.383   9.279  85.424  1.00  0.00    -0.388 OA
ATOM     21  H6  UNL     1      -0.632   9.853  84.709  1.00  0.00     0.210 HD
ENDBRANCH  13  20
ENDBRANCH   7   8
ENDBRANCH   4   7
BRANCH   5  22
HETATM   22  O7  UNL     1       2.568   5.141  87.893  1.00  0.00    -0.375 OA
BRANCH  22  23
HETATM   23  C12 UNL     1       3.033   4.721  89.113  1.00  0.00     0.122 C
HETATM   24  C13 UNL     1       2.685   3.298  89.446  1.00  0.00     0.032 C
HETATM   25  C14 UNL     1       3.735   2.863  90.474  1.00  0.00     0.002 C
HETATM   26  C15 UNL     1       4.772   3.936  90.506  1.00  0.00     0.002 C
HETATM   27  C16 UNL     1       4.539   4.717  89.212  1.00  0.00     0.032 C
ENDBRANCH  22  23
ENDBRANCH   5  22
BRANCH   6  28
HETATM   28  O8  UNL     1       3.577   5.413  85.616  1.00  0.00    -0.391 OA
ATOM     29  H8  UNL     1       3.116   4.730  86.090  1.00  0.00     0.210 HD
ENDBRANCH   6  28
BRANCH   1  30
HETATM   30  N1  UNL     1       5.237   8.436  85.859  1.00  0.00    -0.072 N
ATOM     31  H13 UNL     1       5.181   9.451  85.773  1.00  0.00     0.274 HD
ATOM     32  H12 UNL     1       5.574   8.404  86.821  1.00  0.00     0.274 HD
ATOM     33  H11 UNL     1       5.886   8.015  85.195  1.00  0.00     0.274 HD
ENDBRANCH   1  30
TORSDOF 10
ENDMDL