MODEL 1
REMARK VINA RESULT: -7.751838080      0.000      0.000
REMARK  8 active torsions:
REMARK  status: ('A' for Active; 'I' for Inactive)
REMARK    1  A    between atoms: C2_2  and  C3_3
REMARK    2  A    between atoms: C3_3  and  C13_23
REMARK       I    between atoms: N1_4  and  C4_6
REMARK    3  A    between atoms: C4_6  and  C5_8
REMARK    4  A    between atoms: C6_10  and  O3_11
REMARK    5  A    between atoms: C7_13  and  O4_15
REMARK    6  A    between atoms: C10_18  and  O5_19
REMARK    7  A    between atoms: O5_19  and  C11_20
REMARK    8  A    between atoms: N2_25  and  N3_27
REMARK       I    between atoms: N3_27  and  C15_29
ROOT
HETATM    1  C3  UNL     1       2.773   5.927  87.598  1.00  0.00     0.035 C
HETATM    2  N1  UNL     1       2.068   6.969  87.699  1.00  0.00    -0.327 N
ATOM      3  H1  UNL     1       1.886   7.292  88.648  1.00  0.00     0.168 HD
HETATM    4  C4  UNL     1       1.507   7.733  86.678  1.00  0.00     0.253 C
HETATM    5  O1  UNL     1       2.295   8.357  85.913  1.00  0.00    -0.270 OA
ENDROOT
BRANCH   4   6
HETATM    6  C5  UNL     1       0.039   7.827  86.476  1.00  0.00     0.246 C
HETATM    7  O2  UNL     1      -0.373   8.790  85.617  1.00  0.00    -0.341 OA
HETATM    8  C6  UNL     1      -0.441   8.522  84.290  1.00  0.00     0.291 C
HETATM    9  C7  UNL     1      -0.957   7.181  83.889  1.00  0.00     0.106 C
HETATM   10  C8  UNL     1      -2.479   7.220  83.896  1.00  0.00     0.051 C
HETATM   11  C9  UNL     1      -0.465   6.069  84.790  1.00  0.00     0.078 C
HETATM   12  C10 UNL     1      -0.591   6.501  86.220  1.00  0.00     0.173 C
BRANCH   8  13
HETATM   13  O3  UNL     1       0.723   8.780  83.563  1.00  0.00    -0.368 OA
ATOM     14  H3  UNL     1       0.601   9.253  82.747  1.00  0.00     0.212 HD
ENDBRANCH   8  13
BRANCH   9  15
HETATM   15  O4  UNL     1      -0.519   6.914  82.592  1.00  0.00    -0.385 OA
ATOM     16  H4  UNL     1      -0.786   6.032  82.363  1.00  0.00     0.210 HD
ENDBRANCH   9  15
BRANCH  12  17
HETATM   17  O5  UNL     1      -0.039   5.481  87.027  1.00  0.00    -0.313 OA
BRANCH  17  18
HETATM   18  C11 UNL     1      -0.816   4.400  87.422  1.00  0.00     0.255 C
HETATM   19  C12 UNL     1      -0.263   3.023  87.580  1.00  0.00     0.126 C
HETATM   20  O6  UNL     1      -2.041   4.639  87.646  1.00  0.00    -0.266 OA
ENDBRANCH  17  18
ENDBRANCH  12  17
ENDBRANCH   4   6
BRANCH   1  21
HETATM   21  C2  UNL     1       3.093   5.375  86.266  1.00  0.00     0.055 C
HETATM   22  C1  UNL     1       4.558   5.644  85.930  1.00  0.00     0.011 C
ENDBRANCH   1  21
BRANCH   1  23
HETATM   23  C13 UNL     1       3.276   5.256  88.781  1.00  0.00     0.044 C
HETATM   24  C14 UNL     1       2.762   3.933  89.234  1.00  0.00     0.072 C
HETATM   25  N2  UNL     1       4.213   5.791  89.512  1.00  0.00    -0.301 N
ATOM     26  H2  UNL     1       4.587   6.697  89.229  1.00  0.00     0.186 HD
BRANCH  25  27
HETATM   27  N3  UNL     1       4.726   5.202  90.641  1.00  0.00    -0.274 N
HETATM   28  C15 UNL     1       5.889   4.403  90.568  1.00  0.00     0.200 C
HETATM   29  N4  UNL     1       6.070   3.405  91.378  1.00  0.00    -0.372 N
HETATM   30  N5  UNL     1       6.906   4.669  89.600  1.00  0.00    -0.062 NA
ATOM     31  H42 UNL     1       5.344   3.215  92.069  1.00  0.00     0.158 HD
ATOM     32  H41 UNL     1       6.910   2.828  91.325  1.00  0.00     0.158 HD
ATOM     33  H3  UNL     1       4.264   5.343  91.540  1.00  0.00     0.189 HD
ENDBRANCH  25  27
ENDBRANCH   1  23
TORSDOF 8
ENDMDL