MODEL 3
REMARK VINA RESULT: -6.740402873      4.348      6.944
REMARK  10 active torsions:
REMARK  status: ('A' for Active; 'I' for Inactive)
REMARK    1  A    between atoms: N1_1  and  C1_5
REMARK    2  A    between atoms: C1_5  and  C2_6
REMARK    3  A    between atoms: C5_9  and  N2_10
REMARK    4  A    between atoms: C6_14  and  O1_15
REMARK    5  A    between atoms: O1_15  and  C7_16
REMARK    6  A    between atoms: C8_17  and  N3_18
REMARK    7  A    between atoms: C10_23  and  N4_24
REMARK    8  A    between atoms: C11_28  and  O2_29
REMARK    9  A    between atoms: C12_31  and  O3_32
REMARK   10  A    between atoms: O3_32  and  C13_33
ROOT
HETATM    1  C7  UNL     1       4.389   7.837  87.351  1.00  0.00     0.186 C
HETATM    2  C8  UNL     1       4.079   8.517  86.033  1.00  0.00     0.217 C
HETATM    3  C9  UNL     1       3.194   7.653  85.158  1.00  0.00     0.071 C
HETATM    4  C10 UNL     1       1.881   7.414  85.834  1.00  0.00     0.216 C
HETATM    5  C11 UNL     1       2.092   7.045  87.272  1.00  0.00     0.180 C
HETATM    6  C12 UNL     1       3.534   6.577  87.518  1.00  0.00     0.183 C
ENDROOT
BRANCH   1   7
HETATM    7  O1  UNL     1       4.125   8.790  88.335  1.00  0.00    -0.349 OA
BRANCH   7   8
HETATM    8  C6  UNL     1       5.231   9.445  88.782  1.00  0.00     0.291 C
HETATM    9  C5  UNL     1       4.828  10.624  89.635  1.00  0.00     0.238 C
HETATM   10  C4  UNL     1       5.791  11.780  89.461  1.00  0.00     0.040 C
HETATM   11  C3  UNL     1       7.208  11.388  89.251  1.00  0.00     0.036 C
HETATM   12  C2  UNL     1       7.303  10.162  88.399  1.00  0.00     0.150 C
HETATM   13  O5  UNL     1       6.081   9.931  87.782  1.00  0.00    -0.352 OA
BRANCH   9  14
HETATM   14  N2  UNL     1       3.523  11.142  89.221  1.00  0.00    -0.070 N
ATOM     15  H23 UNL     1       3.386  11.153  88.211  1.00  0.00     0.274 HD
ATOM     16  H22 UNL     1       2.745  10.518  89.440  1.00  0.00     0.274 HD
ATOM     17  H21 UNL     1       3.447  12.061  89.657  1.00  0.00     0.274 HD
ENDBRANCH   9  14
BRANCH  12  18
HETATM   18  C1  UNL     1       8.438  10.246  87.404  1.00  0.00     0.261 C
BRANCH  18  19
HETATM   19  N1  UNL     1       9.653   9.837  88.108  1.00  0.00    -0.077 N
ATOM     20  H13 UNL     1      10.418   9.593  87.479  1.00  0.00     0.274 HD
ATOM     21  H12 UNL     1      10.119  10.609  88.585  1.00  0.00     0.274 HD
ATOM     22  H11 UNL     1       9.392   9.076  88.735  1.00  0.00     0.274 HD
ENDBRANCH  18  19
ENDBRANCH  12  18
ENDBRANCH   7   8
ENDBRANCH   1   7
BRANCH   2  23
HETATM   23  N3  UNL     1       5.326   8.695  85.314  1.00  0.00    -0.072 N
ATOM     24  H33 UNL     1       5.521   7.930  84.669  1.00  0.00     0.274 HD
ATOM     25  H32 UNL     1       5.279   9.447  84.626  1.00  0.00     0.274 HD
ATOM     26  H31 UNL     1       6.070   8.833  85.999  1.00  0.00     0.274 HD
ENDBRANCH   2  23
BRANCH   6  27
HETATM   27  O3  UNL     1       3.630   6.126  88.759  1.00  0.00    -0.373 OA
BRANCH  27  28
HETATM   28  C13 UNL     1       4.381   5.053  89.088  1.00  0.00     0.149 C
HETATM   29  C14 UNL     1       3.463   3.942  89.537  1.00  0.00     0.063 C
HETATM   30  C15 UNL     1       4.005   3.061  90.570  1.00  0.00    -0.000 C
HETATM   31  C16 UNL     1       5.262   3.096  90.940  1.00  0.00     0.130 C
HETATM   32  O4  UNL     1       6.107   4.002  90.327  1.00  0.00    -0.361 OA
HETATM   33  C17 UNL     1       5.551   5.269  89.983  1.00  0.00     0.206 C
ENDBRANCH  27  28
ENDBRANCH   6  27
BRANCH   5  34
HETATM   34  O2  UNL     1       1.186   6.042  87.591  1.00  0.00    -0.391 OA
ATOM     35  H2  UNL     1       1.358   5.768  88.484  1.00  0.00     0.210 HD
ENDBRANCH   5  34
BRANCH   4  36
HETATM   36  N4  UNL     1       1.137   8.674  85.812  1.00  0.00    -0.072 N
ATOM     37  H43 UNL     1       1.376   9.289  86.590  1.00  0.00     0.274 HD
ATOM     38  H42 UNL     1       1.428   9.294  85.056  1.00  0.00     0.274 HD
ATOM     39  H41 UNL     1       0.144   8.445  85.777  1.00  0.00     0.274 HD
ENDBRANCH   4  36
TORSDOF 10
ENDMDL