MODEL 5
REMARK VINA RESULT: -5.817964174      3.716      6.401
REMARK  6 active torsions:
REMARK  status: ('A' for Active; 'I' for Inactive)
REMARK    1  A    between atoms: S1_2  and  C2_3
REMARK    2  A    between atoms: S1_2  and  N1_12
REMARK    3  A    between atoms: C2_3  and  C3_4
REMARK    4  A    between atoms: C3_4  and  O1_5
REMARK    5  A    between atoms: C3_4  and  C4_7
REMARK    6  A    between atoms: C4_7  and  C5_8
ROOT
HETATM    1  C2  UNL     1       3.103  16.350  57.201  1.00  0.00     0.116 C
ENDROOT
BRANCH   1   2
HETATM    2  S1  UNL     1       4.241  15.700  55.944  1.00  0.00    -0.132 SA
HETATM    3  C1  UNL     1       5.834  15.672  56.728  1.00  0.00     0.101 C
BRANCH   2   4
HETATM    4  N1  UNL     1       3.693  14.157  55.508  1.00  0.00    -0.361 N
HETATM    5  C9  UNL     1       4.665  13.118  55.589  1.00  0.00     0.156 C
HETATM    6  C10 UNL     1       5.120  12.628  54.230  1.00  0.00     0.188 C
HETATM    7  O2  UNL     1       4.083  12.373  53.367  1.00  0.00    -0.388 OA
HETATM    8  C11 UNL     1       2.835  12.671  53.855  1.00  0.00     0.188 C
HETATM    9  C12 UNL     1       2.839  14.111  54.369  1.00  0.00     0.156 C
ENDBRANCH   2   4
ENDBRANCH   1   2
BRANCH   1  10
HETATM   10  C3  UNL     1       2.238  17.330  56.460  1.00  0.00     0.129 C
BRANCH  10  11
HETATM   11  O1  UNL     1       2.882  17.592  55.230  1.00  0.00    -0.395 OA
ATOM     12  H1  UNL     1       2.281  18.114  54.712  1.00  0.00     0.210 HD
ENDBRANCH  10  11
BRANCH  10  13
HETATM   13  C4  UNL     1       0.880  16.795  56.213  1.00  0.00     0.040 C
BRANCH  13  14
HETATM   14  C5  UNL     1      -0.283  17.417  56.871  1.00  0.00    -0.049 C
HETATM   15  C6  UNL     1      -0.334  17.192  58.372  1.00  0.00     0.014 C
HETATM   16  C7  UNL     1      -0.026  18.963  56.718  1.00  0.00     0.014 C
HETATM   17  C8  UNL     1      -1.605  17.186  56.253  1.00  0.00     0.014 C
ENDBRANCH  13  14
ENDBRANCH  10  13
ENDBRANCH   1  10
TORSDOF 6
ENDMDL