MODEL 3
REMARK VINA RESULT: -6.063452597      0.976      1.465
REMARK  4 active torsions:
REMARK  status: ('A' for Active; 'I' for Inactive)
REMARK    1  A    between atoms: C2_2  and  O1_3
REMARK    2  A    between atoms: O1_3  and  C3_4
REMARK    3  A    between atoms: C7_9  and  C8_10
REMARK    4  A    between atoms: C8_10  and  N1_11
ROOT
HETATM    1  C3  UNL     1       2.253  17.595  57.085  1.00  0.00     0.153 C
HETATM    2  C4  UNL     1       2.197  18.812  58.021  1.00  0.00     0.200 C
HETATM    3  O2  UNL     1       2.817  18.450  59.199  1.00  0.00    -0.383 OA
HETATM    4  C5  UNL     1       2.950  17.089  59.218  1.00  0.00     0.131 C
HETATM    5  C6  UNL     1       4.028  16.560  60.127  1.00  0.00     0.067 C
HETATM    6  C7  UNL     1       4.307  15.128  59.733  1.00  0.00     0.214 C
HETATM    7  N2  UNL     1       3.277  14.682  58.768  1.00  0.00    -0.069 N
ATOM      8  H21 UNL     1       2.336  14.777  59.150  1.00  0.00     0.277 HD
ATOM      9  H22 UNL     1       3.291  13.671  58.643  1.00  0.00     0.277 HD
HETATM   10  C12 UNL     1       3.418  15.385  57.500  1.00  0.00     0.242 C
HETATM   11  C13 UNL     1       3.381  16.838  57.760  1.00  0.00     0.071 C
ENDROOT
BRANCH   6  12
HETATM   12  C8  UNL     1       4.166  14.186  60.912  1.00  0.00     0.269 C
BRANCH  12  13
HETATM   13  N1  UNL     1       5.212  13.230  61.054  1.00  0.00    -0.077 N
HETATM   14  C9  UNL     1       5.325  12.850  62.476  1.00  0.00     0.271 C
HETATM   15  C10 UNL     1       6.469  13.859  60.667  1.00  0.00     0.271 C
HETATM   16  C11 UNL     1       5.063  12.014  60.324  1.00  0.00     0.271 C
ENDBRANCH  12  13
ENDBRANCH   6  12
BRANCH   1  17
HETATM   17  O1  UNL     1       2.530  17.946  55.798  1.00  0.00    -0.384 OA
BRANCH  17  18
HETATM   18  C2  UNL     1       1.374  17.851  55.034  1.00  0.00     0.163 C
HETATM   19  C1  UNL     1       0.635  16.554  55.179  1.00  0.00     0.033 C
ENDBRANCH  17  18
ENDBRANCH   1  17
TORSDOF 4
ENDMDL