MODEL 4
REMARK VINA RESULT: -6.992695029      1.165      1.726
REMARK  5 active torsions:
REMARK  status: ('A' for Active; 'I' for Inactive)
REMARK    1  A    between atoms: C2_2  and  C4_4
REMARK    2  A    between atoms: C5_5  and  C6_6
REMARK    3  A    between atoms: C7_7  and  C8_8
REMARK       I    between atoms: C8_8  and  N1_10
REMARK    4  A    between atoms: N1_10  and  N2_12
REMARK    5  A    between atoms: N2_12  and  S1_14
ROOT
HETATM    1  C8  UNL     1       5.224  15.311  57.085  1.00  0.00     0.262 C
HETATM    2  O1  UNL     1       4.651  15.618  58.155  1.00  0.00    -0.267 OA
HETATM    3  N1  UNL     1       4.496  14.890  55.951  1.00  0.00    -0.253 N
HETATM    4  C9  UNL     1       5.211  14.531  54.727  1.00  0.00     0.182 C
ENDROOT
BRANCH   1   5
HETATM    5  C7  UNL     1       6.692  15.395  57.022  1.00  0.00     0.076 C
HETATM    6  C6  UNL     1       7.355  15.855  58.052  1.00  0.00     0.005 C
BRANCH   6   7
HETATM    7  C5  UNL     1       8.815  15.930  57.967  1.00  0.00    -0.003 C
HETATM    8  C4  UNL     1       9.518  15.723  59.032  1.00  0.00    -0.023 C
BRANCH   8   9
HETATM    9  C2  UNL     1      10.996  15.776  59.045  1.00  0.00    -0.000 C
HETATM   10  C1  UNL     1      11.453  16.430  60.310  1.00  0.00     0.013 C
HETATM   11  C3  UNL     1      11.537  16.535  57.854  1.00  0.00     0.013 C
ENDBRANCH   8   9
ENDBRANCH   6   7
ENDBRANCH   1   5
BRANCH   3  12
HETATM   12  N2  UNL     1       3.135  14.808  55.947  1.00  0.00    -0.223 N
ATOM     13  H2  UNL     1       2.652  13.930  56.135  1.00  0.00     0.200 HD
BRANCH  12  14
HETATM   14  S1  UNL     1       2.280  16.245  55.613  1.00  0.00     0.240 S
HETATM   15  C10 UNL     1       1.451  16.790  57.082  1.00  0.00     0.187 C
HETATM   16  O2  UNL     1       1.309  16.009  54.486  1.00  0.00    -0.205 OA
HETATM   17  O3  UNL     1       3.196  17.350  55.154  1.00  0.00    -0.205 OA
ENDBRANCH  12  14
ENDBRANCH   3  12
TORSDOF 5
ENDMDL