MODEL 5
REMARK VINA RESULT: -6.856237730      2.792      6.025
REMARK  4 active torsions:
REMARK  status: ('A' for Active; 'I' for Inactive)
REMARK    1  A    between atoms: S1_2  and  N1_4
REMARK    2  A    between atoms: S1_2  and  N2_12
REMARK    3  A    between atoms: N1_4  and  C1_6
REMARK    4  A    between atoms: C1_6  and  C2_7
ROOT
HETATM    1  O1  UNL     1       1.399  16.011  54.561  1.00  0.00    -0.188 OA
HETATM    2  S1  UNL     1       2.714  16.248  55.417  1.00  0.00     0.298 S
HETATM    3  O2  UNL     1       3.076  17.666  55.232  1.00  0.00    -0.188 OA
ENDROOT
BRANCH   2   4
HETATM    4  N1  UNL     1       2.148  15.983  57.058  1.00  0.00    -0.304 N
ATOM      5  H1  UNL     1       1.508  15.237  57.330  1.00  0.00     0.173 HD
BRANCH   4   6
HETATM    6  C1  UNL     1       2.689  16.929  57.950  1.00  0.00     0.165 C
BRANCH   6   7
HETATM    7  C2  UNL     1       2.416  16.319  59.325  1.00  0.00     0.140 C
HETATM    8  C3  UNL     1       3.570  16.284  60.244  1.00  0.00     0.035 C
HETATM    9  C4  UNL     1       2.876  15.878  61.543  1.00  0.00     0.029 C
HETATM   10  C5  UNL     1       1.485  16.403  61.316  1.00  0.00     0.168 C
HETATM   11  O3  UNL     1       1.443  16.954  60.049  1.00  0.00    -0.384 OA
ENDBRANCH   6   7
ENDBRANCH   4   6
ENDBRANCH   2   4
BRANCH   2  12
HETATM   12  N2  UNL     1       3.723  15.030  54.916  1.00  0.00    -0.194 NA
HETATM   13  C6  UNL     1       2.953  13.921  54.345  1.00  0.00     0.109 C
HETATM   14  C7  UNL     1       3.976  13.309  53.350  1.00  0.00     0.015 C
HETATM   15  C8  UNL     1       5.201  13.033  54.206  1.00  0.00     0.002 C
HETATM   16  C9  UNL     1       4.846  13.010  55.687  1.00  0.00     0.015 C
HETATM   17  C10 UNL     1       4.305  14.353  56.147  1.00  0.00     0.109 C
ENDBRANCH   2  12
TORSDOF 4
ENDMDL