MODEL 5
REMARK VINA RESULT: -6.319573764      4.091      5.472
REMARK  5 active torsions:
REMARK  status: ('A' for Active; 'I' for Inactive)
REMARK    1  A    between atoms: N1_2  and  C2_3
REMARK    2  A    between atoms: N1_2  and  C6_7
REMARK    3  A    between atoms: C2_3  and  C3_4
REMARK    4  A    between atoms: C10_11  and  N2_12
REMARK    5  A    between atoms: N2_12  and  S1_14
ROOT
HETATM    1  C6  UNL     1       3.726  15.194  58.653  1.00  0.00     0.245 C
HETATM    2  C7  UNL     1       4.115  16.474  59.336  1.00  0.00     0.038 C
HETATM    3  C8  UNL     1       3.342  16.344  60.642  1.00  0.00     0.004 C
HETATM    4  C9  UNL     1       3.393  14.871  60.955  1.00  0.00     0.028 C
HETATM    5  C10 UNL     1       3.918  14.164  59.690  1.00  0.00     0.126 C
ENDROOT
BRANCH   1   6
HETATM    6  N1  UNL     1       4.433  14.992  57.400  1.00  0.00     0.091 N
HETATM    7  C1  UNL     1       3.590  15.646  56.377  1.00  0.00     0.310 C
BRANCH   6   8
HETATM    8  C2  UNL     1       5.680  15.693  57.492  1.00  0.00     0.277 C
BRANCH   8   9
HETATM    9  C3  UNL     1       6.916  14.891  57.618  1.00  0.00     0.014 A
HETATM   10  C4  UNL     1       8.171  15.773  57.840  1.00  0.00     0.007 A
HETATM   11  C5  UNL     1       7.747  14.702  58.794  1.00  0.00     0.007 A
ENDBRANCH   8   9
ENDBRANCH   6   8
ENDBRANCH   1   6
BRANCH   5  12
HETATM   12  N2  UNL     1       3.126  12.952  59.512  1.00  0.00    -0.313 N
ATOM     13  H2  UNL     1       2.128  12.935  59.306  1.00  0.00     0.172 HD
BRANCH  12  14
HETATM   14  S1  UNL     1       4.114  11.559  59.697  1.00  0.00     0.223 S
HETATM   15  C11 UNL     1       5.552  11.566  58.693  1.00  0.00     0.185 C
HETATM   16  O1  UNL     1       3.289  10.331  59.312  1.00  0.00    -0.206 OA
HETATM   17  O2  UNL     1       4.476  11.390  61.150  1.00  0.00    -0.206 OA
ENDBRANCH  12  14
ENDBRANCH   5  12
TORSDOF 5
ENDMDL