MODEL 1
REMARK VINA RESULT: -6.714386329      0.000      0.000
REMARK  5 active torsions:
REMARK  status: ('A' for Active; 'I' for Inactive)
REMARK    1  A    between atoms: C2_2  and  C3_3
REMARK    2  A    between atoms: C3_3  and  C4_4
REMARK    3  A    between atoms: C4_4  and  N1_5
REMARK    4  A    between atoms: N1_5  and  S1_7
REMARK    5  A    between atoms: S1_7  and  N2_10
ROOT
HETATM    1  S1  UNL     1       1.991  16.964  55.411  1.00  0.00     0.298 S
HETATM    2  O1  UNL     1       1.112  17.290  54.214  1.00  0.00    -0.188 OA
HETATM    3  O2  UNL     1       3.375  17.470  55.016  1.00  0.00    -0.188 OA
ENDROOT
BRANCH   1   4
HETATM    4  N1  UNL     1       2.132  15.287  55.648  1.00  0.00    -0.303 N
ATOM      5  H1  UNL     1       1.400  14.690  56.033  1.00  0.00     0.173 HD
BRANCH   4   6
HETATM    6  C4  UNL     1       3.420  14.832  55.231  1.00  0.00     0.177 C
BRANCH   6   7
HETATM    7  C3  UNL     1       3.350  13.797  54.127  1.00  0.00     0.116 A
HETATM    8  C10 UNL     1       4.666  13.272  53.601  1.00  0.00     0.213 A
HETATM    9  O3  UNL     1       3.843  14.137  52.869  1.00  0.00    -0.369 OA
BRANCH   7  10
HETATM   10  C2  UNL     1       2.230  12.807  54.207  1.00  0.00     0.004 C
HETATM   11  C1  UNL     1       1.618  12.334  53.150  1.00  0.00     0.010 C
ENDBRANCH   7  10
ENDBRANCH   6   7
ENDBRANCH   4   6
ENDBRANCH   1   4
BRANCH   1  12
HETATM   12  N2  UNL     1       1.473  17.858  56.757  1.00  0.00    -0.194 NA
HETATM   13  C5  UNL     1       0.602  17.135  57.626  1.00  0.00     0.109 C
HETATM   14  C6  UNL     1      -0.776  16.929  57.068  1.00  0.00     0.015 C
HETATM   15  C7  UNL     1      -1.360  18.222  56.539  1.00  0.00     0.002 C
HETATM   16  C8  UNL     1      -0.459  19.369  56.931  1.00  0.00     0.015 C
HETATM   17  C9  UNL     1       0.900  19.120  56.316  1.00  0.00     0.109 C
ENDBRANCH   1  12
TORSDOF 5
ENDMDL