MODEL 4
REMARK VINA RESULT: -5.817017322      1.003      1.519
REMARK  6 active torsions:
REMARK  status: ('A' for Active; 'I' for Inactive)
REMARK    1  A    between atoms: O1_3  and  C3_4
REMARK    2  A    between atoms: C3_4  and  C4_5
REMARK    3  A    between atoms: C3_4  and  N2_9
REMARK    4  A    between atoms: C4_5  and  N1_6
REMARK    5  A    between atoms: N2_9  and  C7_11
REMARK    6  A    between atoms: N3_14  and  C11_16
ROOT
HETATM    1  C1  UNL     1       4.017  12.598  53.532  1.00  0.00     0.045 C
HETATM    2  C2  UNL     1       3.473  13.622  53.855  1.00  0.00     0.045 C
HETATM    3  O1  UNL     1       2.865  14.756  54.216  1.00  0.00    -0.277 OA
ENDROOT
BRANCH   3   4
HETATM    4  C3  UNL     1       3.220  15.532  55.383  1.00  0.00     0.263 C
BRANCH   4   5
HETATM    5  C4  UNL     1       4.694  15.496  55.462  1.00  0.00     0.325 C
BRANCH   5   6
HETATM    6  N1  UNL     1       5.046  15.458  56.901  1.00  0.00     0.084 N
HETATM    7  C5  UNL     1       4.268  14.406  57.553  1.00  0.00     0.309 C
HETATM    8  C6  UNL     1       6.471  15.142  57.010  1.00  0.00     0.309 C
ENDBRANCH   5   6
ENDBRANCH   4   5
BRANCH   4   9
HETATM    9  N2  UNL     1       2.550  16.752  55.246  1.00  0.00    -0.388 N
ATOM     10  H2  UNL     1       2.304  17.071  54.310  1.00  0.00     0.156 HD
BRANCH   9  11
HETATM   11  C7  UNL     1       2.204  17.553  56.340  1.00  0.00     0.106 C
HETATM   12  C8  UNL     1       1.446  18.806  55.948  1.00  0.00     0.054 C
HETATM   13  C9  UNL     1       0.284  18.878  56.940  1.00  0.00     0.239 C
HETATM   14  N3  UNL     1      -0.036  17.472  57.196  1.00  0.00    -0.069 N
HETATM   15  C10 UNL     1      -0.877  16.979  56.133  1.00  0.00     0.272 C
HETATM   16  C13 UNL     1       1.225  16.806  57.222  1.00  0.00     0.261 C
BRANCH  14  17
HETATM   17  C11 UNL     1      -0.680  17.361  58.491  1.00  0.00     0.232 C
HETATM   18  C12 UNL     1      -2.115  17.839  58.469  1.00  0.00     0.035 C
ENDBRANCH  14  17
ENDBRANCH   9  11
ENDBRANCH   4   9
ENDBRANCH   3   4
TORSDOF 6
ENDMDL