MODEL 5
REMARK VINA RESULT: -6.278061819      2.053      3.376
REMARK  6 active torsions:
REMARK  status: ('A' for Active; 'I' for Inactive)
REMARK    1  A    between atoms: N1_2  and  C2_3
REMARK    2  A    between atoms: N1_2  and  C6_7
REMARK    3  A    between atoms: C2_3  and  C3_4
REMARK    4  A    between atoms: C6_7  and  C7_8
REMARK    5  A    between atoms: C7_8  and  O1_9
REMARK    6  A    between atoms: C7_8  and  C8_11
ROOT
HETATM    1  C7  UNL     1       2.866  16.384  57.518  1.00  0.00     0.140 C
ENDROOT
BRANCH   1   2
HETATM    2  C6  UNL     1       3.977  15.731  56.738  1.00  0.00     0.148 C
BRANCH   2   3
HETATM    3  N1  UNL     1       4.919  15.043  57.542  1.00  0.00    -0.414 N
HETATM    4  C1  UNL     1       5.178  13.690  57.222  1.00  0.00     0.143 C
BRANCH   3   5
HETATM    5  C2  UNL     1       5.983  15.779  58.111  1.00  0.00     0.121 C
BRANCH   5   6
HETATM    6  C3  UNL     1       7.306  15.231  57.622  1.00  0.00     0.003 A
HETATM    7  C4  UNL     1       8.288  16.313  57.166  1.00  0.00     0.007 A
HETATM    8  C5  UNL     1       8.548  15.532  58.380  1.00  0.00     0.007 A
ENDBRANCH   5   6
ENDBRANCH   3   5
ENDBRANCH   2   3
ENDBRANCH   1   2
BRANCH   1   9
HETATM    9  O1  UNL     1       2.493  15.530  58.551  1.00  0.00    -0.394 OA
ATOM     10  H1  UNL     1       1.544  15.506  58.591  1.00  0.00     0.210 HD
ENDBRANCH   1   9
BRANCH   1  11
HETATM   11  C8  UNL     1       1.668  16.644  56.635  1.00  0.00     0.023 C
HETATM   12  C9  UNL     1       0.471  16.977  57.504  1.00  0.00     0.038 C
HETATM   13  C10 UNL     1      -0.689  17.525  56.761  1.00  0.00     0.273 C
HETATM   14  N2  UNL     1      -0.324  18.466  55.719  1.00  0.00     0.088 N
HETATM   15  C11 UNL     1       0.332  19.578  56.336  1.00  0.00     0.273 C
HETATM   16  C14 UNL     1       0.657  17.911  54.820  1.00  0.00     0.277 C
HETATM   17  C12 UNL     1       1.757  19.139  56.475  1.00  0.00     0.037 C
HETATM   18  C13 UNL     1       1.880  17.816  55.713  1.00  0.00     0.022 C
ENDBRANCH   1  11
TORSDOF 6
ENDMDL