MODEL 1
REMARK VINA RESULT: -6.469634147      0.000      0.000
REMARK  6 active torsions:
REMARK  status: ('A' for Active; 'I' for Inactive)
REMARK    1  A    between atoms: C2_2  and  C3_3
REMARK    2  A    between atoms: C3_3  and  N1_4
REMARK    3  A    between atoms: N1_4  and  C4_5
REMARK    4  A    between atoms: N1_4  and  C5_7
REMARK    5  A    between atoms: N2_9  and  C7_10
REMARK    6  A    between atoms: C13_16  and  O2_17
ROOT
HETATM    1  C5  UNL     1       5.585  14.245  56.811  1.00  0.00     0.153 C
HETATM    2  C6  UNL     1       4.605  14.121  57.947  1.00  0.00     0.087 C
HETATM    3  N2  UNL     1       5.141  14.113  59.233  1.00  0.00    -0.383 N
HETATM    4  C10 UNL     1       6.349  14.800  59.486  1.00  0.00     0.082 C
HETATM    5  C11 UNL     1       7.473  13.812  59.619  1.00  0.00     0.032 C
HETATM    6  C12 UNL     1       6.654  15.858  58.439  1.00  0.00     0.059 C
HETATM    7  C13 UNL     1       6.713  15.158  57.110  1.00  0.00     0.148 C
ENDROOT
BRANCH   1   8
HETATM    8  N1  UNL     1       4.896  14.539  55.574  1.00  0.00    -0.344 N
BRANCH   8   9
HETATM    9  C3  UNL     1       5.264  13.808  54.382  1.00  0.00     0.152 C
BRANCH   9  10
HETATM   10  C2  UNL     1       4.109  13.559  53.480  1.00  0.00    -0.017 C
HETATM   11  C1  UNL     1       3.458  12.423  53.415  1.00  0.00     0.008 C
ENDBRANCH   9  10
ENDBRANCH   8   9
BRANCH   8  12
HETATM   12  C4  UNL     1       3.878  15.516  55.471  1.00  0.00     0.351 C
HETATM   13  O1  UNL     1       4.061  16.727  55.191  1.00  0.00    -0.283 OA
ENDBRANCH   8  12
ENDBRANCH   1   8
BRANCH   7  14
HETATM   14  O2  UNL     1       6.957  16.116  56.134  1.00  0.00    -0.393 OA
ATOM     15  H2  UNL     1       7.594  15.861  55.478  1.00  0.00     0.210 HD
ENDBRANCH   7  14
BRANCH   3  16
HETATM   16  C7  UNL     1       4.366  13.655  60.306  1.00  0.00     0.075 C
HETATM   17  C8  UNL     1       3.401  12.548  60.031  1.00  0.00     0.032 C
HETATM   18  C9  UNL     1       3.525  14.845  60.800  1.00  0.00     0.032 C
ENDBRANCH   3  16
TORSDOF 6
ENDMDL