MODEL 5
REMARK VINA RESULT: -6.403217776      2.831      3.687
REMARK  6 active torsions:
REMARK  status: ('A' for Active; 'I' for Inactive)
REMARK    1  A    between atoms: N1_2  and  C3_4
REMARK    2  A    between atoms: N2_7  and  C6_8
REMARK    3  A    between atoms: C6_8  and  C7_9
REMARK    4  A    between atoms: C7_9  and  O1_10
REMARK    5  A    between atoms: C7_9  and  C8_12
REMARK    6  A    between atoms: C8_12  and  N3_13
ROOT
HETATM    1  C7  UNL     1       3.802  15.685  58.474  1.00  0.00     0.164 C
ENDROOT
BRANCH   1   2
HETATM    2  C6  UNL     1       3.028  16.887  57.987  1.00  0.00     0.305 C
BRANCH   2   3
HETATM    3  N2  UNL     1       1.936  16.455  57.123  1.00  0.00     0.093 N
HETATM    4  C5  UNL     1       2.199  16.883  55.768  1.00  0.00     0.275 C
HETATM    5  C4  UNL     1       0.956  17.575  55.252  1.00  0.00     0.068 C
HETATM    6  C3  UNL     1      -0.081  17.089  56.235  1.00  0.00     0.252 C
HETATM    7  C14 UNL     1       0.688  17.086  57.518  1.00  0.00     0.308 C
BRANCH   6   8
HETATM    8  N1  UNL     1      -1.280  17.844  56.250  1.00  0.00     0.086 N
HETATM    9  C1  UNL     1      -1.214  18.834  57.304  1.00  0.00     0.310 C
HETATM   10  C2  UNL     1      -2.496  17.097  56.249  1.00  0.00     0.310 C
ENDBRANCH   6   8
ENDBRANCH   2   3
ENDBRANCH   1   2
BRANCH   1  11
HETATM   11  O1  UNL     1       2.898  14.719  58.905  1.00  0.00    -0.392 OA
ATOM     12  H1  UNL     1       2.559  14.261  58.145  1.00  0.00     0.210 HD
ENDBRANCH   1  11
BRANCH   1  13
HETATM   13  C8  UNL     1       4.784  16.040  59.552  1.00  0.00     0.150 C
BRANCH  13  14
HETATM   14  N3  UNL     1       6.095  15.532  59.336  1.00  0.00    -0.410 N
HETATM   15  C9  UNL     1       6.765  16.031  58.182  1.00  0.00     0.117 C
HETATM   16  C10 UNL     1       8.014  15.201  57.925  1.00  0.00     0.019 C
HETATM   17  C11 UNL     1       8.628  14.931  59.297  1.00  0.00     0.003 C
HETATM   18  C12 UNL     1       7.749  13.929  59.977  1.00  0.00     0.019 C
HETATM   19  C13 UNL     1       6.292  14.148  59.613  1.00  0.00     0.117 C
ENDBRANCH  13  14
ENDBRANCH   1  13
TORSDOF 6
ENDMDL