MODEL 2
REMARK VINA RESULT: -6.846710358      2.060      2.079
REMARK  6 active torsions:
REMARK  status: ('A' for Active; 'I' for Inactive)
REMARK    1  A    between atoms: N1_2  and  C2_4
REMARK    2  A    between atoms: N3_11  and  C6_13
REMARK    3  A    between atoms: C6_13  and  C7_14
REMARK    4  A    between atoms: C8_15  and  C9_16
REMARK    5  A    between atoms: C9_16  and  C10_18
REMARK    6  A    between atoms: C11_19  and  C12_20
ROOT
HETATM    1  C2  UNL     1      27.666 -21.975   3.237  1.00  0.00     0.679 A
HETATM    2  N2  UNL     1      27.088 -21.560   2.098  1.00  0.00    -0.201 N
ATOM      3  H2  UNL     1      27.621 -20.957   1.472  1.00  0.00     0.183 HD
HETATM    4  C3  UNL     1      25.843 -21.905   1.748  1.00  0.00     0.129 A
HETATM    5  C4  UNL     1      25.101 -22.715   2.569  1.00  0.00     0.071 A
HETATM    6 BR1  UNL     1      23.301 -23.216   2.067  1.00  0.00    -0.046 Br
HETATM    7  C5  UNL     1      25.658 -23.160   3.743  1.00  0.00     0.139 A
HETATM    8  N3  UNL     1      25.085 -23.899   4.570  1.00  0.00    -0.351 N
ATOM      9  H3  UNL     1      25.681 -24.106   5.372  1.00  0.00     0.166 HD
HETATM   10  N4  UNL     1      26.940 -22.761   4.030  1.00  0.00    -0.175 N
ATOM     11  H4  UNL     1      27.361 -23.085   4.901  1.00  0.00     0.186 HD
ENDROOT
BRANCH   8  12
HETATM   12  C6  UNL     1      23.835 -24.515   4.678  1.00  0.00     0.089 C
BRANCH  12  13
HETATM   13  C7  UNL     1      23.276 -24.456   6.082  1.00  0.00     0.015 C
HETATM   14  C8  UNL     1      22.021 -24.172   6.354  1.00  0.00     0.003 C
BRANCH  14  15
HETATM   15  C9  UNL     1      20.989 -23.872   5.316  1.00  0.00     0.159 C
HETATM   16 BR2  UNL     1      19.299 -24.724   5.718  1.00  0.00    -0.073 Br
BRANCH  15  17
HETATM   17  C10 UNL     1      20.797 -22.406   5.234  1.00  0.00    -0.084 C
HETATM   18  C11 UNL     1      20.642 -21.211   5.175  1.00  0.00    -0.074 C
BRANCH  18  19
HETATM   19  C12 UNL     1      20.427 -19.758   5.098  1.00  0.00     0.315 C
HETATM   20  F1  UNL     1      20.034 -19.374   3.829  1.00  0.00    -0.242 F
ENDBRANCH  18  19
ENDBRANCH  15  17
ENDBRANCH  14  15
ENDBRANCH  12  13
ENDBRANCH   8  12
BRANCH   1  21
HETATM   21  N1  UNL     1      28.870 -21.607   3.518  1.00  0.00    -0.230 N
HETATM   22  C1  UNL     1      29.628 -22.112   4.616  1.00  0.00     0.165 C
ATOM     23  H1  UNL     1      29.309 -20.910   2.915  1.00  0.00     0.177 HD
ENDBRANCH   1  21
TORSDOF 6
ENDMDL