MODEL 4
REMARK VINA RESULT: -5.563820482      4.758      6.707
REMARK  3 active torsions:
REMARK  status: ('A' for Active; 'I' for Inactive)
REMARK    1  A    between atoms: C2_2  and  C3_3
REMARK    2  A    between atoms: C3_3  and  C4_4
REMARK       I    between atoms: N1_6  and  C5_8
REMARK       I    between atoms: C5_8  and  N3_12
REMARK       I    between atoms: N3_12  and  C6_14
REMARK    3  A    between atoms: C6_14  and  C7_16
ROOT
HETATM    1  C1  UNL     1      22.366 -22.569   4.190  1.00  0.00     0.064 C
HETATM    2  C2  UNL     1      23.158 -23.823   4.145  1.00  0.00     0.001 C
HETATM    3  N1  UNL     1      24.172 -23.981   3.372  1.00  0.00    -0.200 N
ATOM      4  H1  UNL     1      24.665 -24.873   3.398  1.00  0.00     0.183 HD
HETATM    5  C5  UNL     1      24.643 -22.978   2.483  1.00  0.00     0.678 C
HETATM    6  N2  UNL     1      23.977 -22.687   1.420  1.00  0.00    -0.234 N
ATOM      7  H21 UNL     1      24.315 -21.967   0.782  1.00  0.00     0.174 HD
ATOM      8  H22 UNL     1      23.105 -23.175   1.212  1.00  0.00     0.174 HD
HETATM    9  N3  UNL     1      25.854 -22.299   2.772  1.00  0.00    -0.158 N
ATOM     10  H3  UNL     1      26.183 -21.581   2.127  1.00  0.00     0.187 HD
HETATM   11  C6  UNL     1      26.616 -22.583   3.919  1.00  0.00     0.260 C
HETATM   12  O1  UNL     1      26.200 -23.471   4.708  1.00  0.00    -0.270 OA
ENDROOT
BRANCH   2  13
HETATM   13  C3  UNL     1      22.794 -24.971   5.016  1.00  0.00     0.063 C
BRANCH  13  14
HETATM   14  C4  UNL     1      23.333 -24.763   6.436  1.00  0.00     0.091 C
HETATM   15 BR1  UNL     1      21.841 -25.057   7.648  1.00  0.00    -0.096 Br
ENDBRANCH  13  14
ENDBRANCH   2  13
BRANCH  11  16
HETATM   16  C7  UNL     1      27.880 -21.907   4.264  1.00  0.00     0.222 C
HETATM   17 BR2  UNL     1      28.318 -22.060   6.129  1.00  0.00    -0.069 Br
HETATM   18 BR3  UNL     1      29.357 -22.558   3.231  1.00  0.00    -0.069 Br
ENDBRANCH  11  16
TORSDOF 3
ENDMDL