MODEL 3
REMARK VINA RESULT: -5.375601746      6.091      7.353
REMARK  3 active torsions:
REMARK  status: ('A' for Active; 'I' for Inactive)
REMARK       I    between atoms: N1_2  and  C2_4
REMARK    1  A    between atoms: C2_4  and  C3_6
REMARK    2  A    between atoms: C3_6  and  C4_7
REMARK    3  A    between atoms: C6_10  and  O2_11
ROOT
HETATM    1  C4  UNL     1      18.158 -21.638   2.871  1.00  0.00     0.027 C
HETATM    2  C5  UNL     1      17.833 -22.365   4.176  1.00  0.00     0.093 C
HETATM    3 BR1  UNL     1      18.256 -24.225   4.017  1.00  0.00    -0.088 Br
HETATM    4  C6  UNL     1      18.614 -21.674   5.259  1.00  0.00     0.148 C
HETATM    5  C7  UNL     1      19.445 -20.623   4.598  1.00  0.00     0.102 C
HETATM    6 BR2  UNL     1      21.241 -20.713   5.327  1.00  0.00    -0.087 Br
HETATM    7  C8  UNL     1      19.542 -21.136   3.158  1.00  0.00     0.080 C
HETATM    8 BR3  UNL     1      20.704 -22.704   3.240  1.00  0.00    -0.089 Br
ENDROOT
BRANCH   1   9
HETATM    9  C3  UNL     1      17.155 -20.543   2.612  1.00  0.00     0.109 C
BRANCH   9  10
HETATM   10  C2  UNL     1      16.679 -20.510   1.213  1.00  0.00     0.217 C
HETATM   11  N1  UNL     1      15.923 -21.571   0.667  1.00  0.00    -0.365 N
HETATM   12  C1  UNL     1      15.468 -21.519  -0.699  1.00  0.00     0.149 C
ATOM     13  H1  UNL     1      15.696 -22.380   1.245  1.00  0.00     0.161 HD
HETATM   14  O1  UNL     1      16.951 -19.524   0.500  1.00  0.00    -0.274 OA
ENDBRANCH   9  10
ENDBRANCH   1   9
BRANCH   4  15
HETATM   15  O2  UNL     1      17.732 -21.012   6.142  1.00  0.00    -0.393 OA
ATOM     16  H2  UNL     1      17.852 -20.071   6.075  1.00  0.00     0.210 HD
ENDBRANCH   4  15
TORSDOF 3
ENDMDL