MODEL 5
REMARK VINA RESULT: -6.253686594      1.434      1.464
REMARK  5 active torsions:
REMARK  status: ('A' for Active; 'I' for Inactive)
REMARK    1  A    between atoms: N1_2  and  O1_3
REMARK    2  A    between atoms: C4_9  and  C5_10
REMARK    3  A    between atoms: C4_9  and  C6_12
REMARK    4  A    between atoms: C6_12  and  C7_13
REMARK    5  A    between atoms: C10_16  and  N2_17
ROOT
HETATM    1  C1  UNL     1      20.710 -26.959   6.192  1.00  0.00     0.184 C
HETATM    2  N1  UNL     1      20.110 -25.938   5.379  1.00  0.00    -0.270 N
HETATM    3  C2  UNL     1      20.756 -24.972   4.842  1.00  0.00     0.056 A
HETATM    4  C3  UNL     1      20.698 -23.731   3.981  1.00  0.00     0.131 A
HETATM    5 BR1  UNL     1      19.795 -22.188   4.752  1.00  0.00    -0.065 Br
HETATM    6 BR2  UNL     1      20.369 -23.986   2.116  1.00  0.00    -0.065 Br
HETATM    7  C4  UNL     1      21.990 -24.176   4.532  1.00  0.00     0.052 A
ENDROOT
BRANCH   7   8
HETATM    8  C5  UNL     1      22.571 -23.471   5.746  1.00  0.00     0.133 C
HETATM    9 CL1  UNL     1      23.305 -24.566   6.910  1.00  0.00    -0.129 Cl
ENDBRANCH   7   8
BRANCH   7  10
HETATM   10  C6  UNL     1      22.971 -24.736   3.561  1.00  0.00     0.059 C
BRANCH  10  11
HETATM   11  C7  UNL     1      24.022 -23.800   3.120  1.00  0.00    -0.041 A
HETATM   12  C8  UNL     1      25.153 -23.643   3.931  1.00  0.00     0.012 A
HETATM   13  C9  UNL     1      26.127 -22.764   3.507  1.00  0.00     0.048 A
HETATM   14  C10 UNL     1      26.010 -22.052   2.326  1.00  0.00     0.098 A
HETATM   15  N3  UNL     1      24.924 -22.211   1.557  1.00  0.00    -0.352 N
HETATM   16  C11 UNL     1      23.967 -23.072   1.970  1.00  0.00     0.096 A
ATOM     17  H3  UNL     1      24.822 -21.694   0.684  1.00  0.00     0.166 HD
BRANCH  14  18
HETATM   18  N2  UNL     1      26.937 -21.239   1.958  1.00  0.00    -0.385 N
ATOM     19  H22 UNL     1      27.724 -21.585   1.410  1.00  0.00     0.157 HD
ATOM     20  H21 UNL     1      26.890 -20.252   2.210  1.00  0.00     0.157 HD
ENDBRANCH  14  18
ENDBRANCH  10  11
ENDBRANCH   7  10
BRANCH   2  21
HETATM   21  O1  UNL     1      18.755 -26.017   5.175  1.00  0.00    -0.288 OA
ATOM     22  H1  UNL     1      18.325 -25.249   4.818  1.00  0.00     0.244 HD
ENDBRANCH   2  21
TORSDOF 5
ENDMDL