MODEL 4
REMARK VINA RESULT: -7.191319404      2.441      3.064
REMARK  3 active torsions:
REMARK  status: ('A' for Active; 'I' for Inactive)
REMARK    1  A    between atoms: C4_5  and  C5_6
REMARK    2  A    between atoms: C6_10  and  C7_11
REMARK       I    between atoms: N3_13  and  C8_15
REMARK       I    between atoms: C8_15  and  N5_20
REMARK    3  A    between atoms: N4_16  and  C9_18
ROOT
HETATM    1  C1  UNL     1      20.830 -23.074   6.103  1.00  0.00     0.222 C
HETATM    2  N1  UNL     1      20.211 -22.726   5.178  1.00  0.00    -0.458 NA
HETATM    3  C2  UNL     1      19.472 -22.323   4.052  1.00  0.00     0.238 C
HETATM    4  C3  UNL     1      20.366 -22.256   2.854  1.00  0.00     0.083 C
HETATM    5  C4  UNL     1      21.314 -23.119   2.555  1.00  0.00     0.040 C
HETATM    6  O1  UNL     1      20.055 -21.150   2.099  1.00  0.00    -0.338 OA
HETATM    7  C6  UNL     1      19.363 -20.218   2.896  1.00  0.00     0.215 C
HETATM    8  C12 UNL     1      19.100 -20.888   4.231  1.00  0.00     0.161 C
HETATM    9 CL2  UNL     1      20.157 -20.131   5.471  1.00  0.00    -0.118 Cl
ENDROOT
BRANCH   5  10
HETATM   10  C5  UNL     1      22.135 -22.950   1.343  1.00  0.00     0.179 C
HETATM   11 CL1  UNL     1      23.869 -22.929   1.723  1.00  0.00    -0.109 Cl
HETATM   12 BR1  UNL     1      21.802 -24.392   0.093  1.00  0.00    -0.070 Br
ENDBRANCH   5  10
BRANCH   7  13
HETATM   13  C7  UNL     1      18.049 -19.852   2.348  1.00  0.00     0.140 C
HETATM   14  N2  UNL     1      17.900 -18.679   1.579  1.00  0.00    -0.084 NA
HETATM   15  N3  UNL     1      17.058 -20.619   2.587  1.00  0.00    -0.180 N
HETATM   16  C8  UNL     1      15.755 -20.375   2.119  1.00  0.00     0.674 C
ATOM     17  H3  UNL     1      17.220 -21.454   3.149  1.00  0.00     0.185 HD
HETATM   18  N4  UNL     1      15.436 -20.866   0.961  1.00  0.00    -0.227 N
HETATM   19  N5  UNL     1      14.871 -19.625   2.914  1.00  0.00    -0.231 N
ATOM     20  H4  UNL     1      14.494 -20.698   0.607  1.00  0.00     0.177 HD
HETATM   21  C11 UNL     1      13.512 -20.106   3.060  1.00  0.00     0.165 C
ATOM     22  H5  UNL     1      15.177 -18.768   3.375  1.00  0.00     0.177 HD
BRANCH  18  23
HETATM   23  C9  UNL     1      16.338 -21.631   0.153  1.00  0.00     0.133 C
HETATM   24  C10 UNL     1      16.552 -20.879  -1.144  1.00  0.00     0.027 C
ENDBRANCH  18  23
ENDBRANCH   7  13
TORSDOF 3
ENDMDL