MODEL 1
REMARK VINA RESULT: -6.028951818      0.000      0.000
REMARK  3 active torsions:
REMARK  status: ('A' for Active; 'I' for Inactive)
REMARK    1  A    between atoms: C4_4  and  C5_5
REMARK       I    between atoms: C5_5  and  N1_7
REMARK    2  A    between atoms: N1_7  and  N2_9
REMARK       I    between atoms: N2_9  and  C6_11
REMARK    3  A    between atoms: C6_11  and  C7_13
ROOT
HETATM    1  C5  UNL     1      19.361 -21.770   0.055  1.00  0.00     0.243 C
HETATM    2  O1  UNL     1      20.270 -20.937   0.190  1.00  0.00    -0.271 OA
HETATM    3  N1  UNL     1      19.603 -23.135   0.004  1.00  0.00    -0.267 N
ATOM      4  H1  UNL     1      18.747 -23.682  -0.088  1.00  0.00     0.190 HD
ENDROOT
BRANCH   1   5
HETATM    5  C4  UNL     1      17.948 -21.273  -0.068  1.00  0.00     0.120 A
HETATM    6  C2  UNL     1      16.733 -21.991   0.207  1.00  0.00    -0.005 A
HETATM    7  C1  UNL     1      15.382 -21.342  -0.185  1.00  0.00     0.018 C
HETATM    8  C3  UNL     1      16.595 -23.485   0.288  1.00  0.00     0.018 C
HETATM    9  C8  UNL     1      17.323 -21.251   1.379  1.00  0.00     0.096 A
HETATM   10 BR2  UNL     1      16.606 -19.560   1.936  1.00  0.00    -0.071 Br
HETATM   11 BR3  UNL     1      18.228 -22.231   2.752  1.00  0.00    -0.071 Br
ENDBRANCH   1   5
BRANCH   3  12
HETATM   12  N2  UNL     1      20.712 -23.908   0.047  1.00  0.00    -0.267 N
HETATM   13  C6  UNL     1      21.216 -24.743  -0.964  1.00  0.00     0.245 C
HETATM   14  O2  UNL     1      20.718 -24.870  -2.079  1.00  0.00    -0.271 OA
ATOM     15  H2  UNL     1      21.244 -23.881   0.916  1.00  0.00     0.190 HD
BRANCH  13  16
HETATM   16  C7  UNL     1      22.448 -25.561  -0.689  1.00  0.00     0.189 C
HETATM   17 BR1  UNL     1      21.926 -27.001   0.481  1.00  0.00    -0.087 Br
ENDBRANCH  13  16
ENDBRANCH   3  12
TORSDOF 3
ENDMDL