MODEL 2
REMARK VINA RESULT: -6.948349225      0.908      1.391
REMARK  2 active torsions:
REMARK  status: ('A' for Active; 'I' for Inactive)
REMARK    1  A    between atoms: C4_11  and  C5_12
REMARK    2  A    between atoms: C5_12  and  C6_13
ROOT
HETATM    1 BR1  UNL     1      17.813 -21.190  -0.220  1.00  0.00    -0.010 Br
HETATM    2  C1  UNL     1      19.243 -21.779   0.900  1.00  0.00     0.155 A
HETATM    3  N1  UNL     1      20.260 -22.591   0.593  1.00  0.00    -0.332 N
ATOM      4  H1  UNL     1      20.406 -23.020  -0.320  1.00  0.00     0.168 HD
HETATM    5  C2  UNL     1      21.066 -22.763   1.665  1.00  0.00     0.102 A
HETATM    6  C3  UNL     1      20.517 -22.018   2.684  1.00  0.00     0.137 A
HETATM    7  N2  UNL     1      19.406 -21.431   2.183  1.00  0.00    -0.321 N
ATOM      8  H2  UNL     1      18.783 -20.815   2.705  1.00  0.00     0.169 HD
HETATM    9  N3  UNL     1      21.469 -22.400   3.455  1.00  0.00    -0.342 N
ATOM     10  H3  UNL     1      21.704 -22.215   4.430  1.00  0.00     0.167 HD
HETATM   11  C4  UNL     1      22.066 -23.175   2.439  1.00  0.00     0.047 A
ENDROOT
BRANCH  11  12
HETATM   12  C5  UNL     1      23.253 -24.041   2.288  1.00  0.00     0.118 C
BRANCH  12  13
HETATM   13  C6  UNL     1      24.462 -23.154   2.360  1.00  0.00     0.033 A
HETATM   14  N4  UNL     1      24.904 -22.267   1.469  1.00  0.00    -0.366 N
HETATM   15  C7  UNL     1      26.037 -21.679   1.911  1.00  0.00     0.108 A
ATOM     16  H4  UNL     1      24.451 -22.060   0.579  1.00  0.00     0.165 HD
HETATM   17  C8  UNL     1      26.320 -22.224   3.143  1.00  0.00     0.045 A
HETATM   18 BR2  UNL     1      27.813 -21.789   4.278  1.00  0.00    -0.048 Br
HETATM   19  C9  UNL     1      25.337 -23.147   3.425  1.00  0.00     0.052 A
HETATM   20 BR3  UNL     1      25.248 -24.192   5.017  1.00  0.00    -0.048 Br
ENDBRANCH  12  13
ENDBRANCH  11  12
TORSDOF 2
ENDMDL