MODEL 5
REMARK VINA RESULT: -7.041619849      2.416      3.715
REMARK  5 active torsions:
REMARK  status: ('A' for Active; 'I' for Inactive)
REMARK    1  A    between atoms: C2_2  and  C3_3
REMARK    2  A    between atoms: C4_4  and  C5_5
REMARK    3  A    between atoms: C6_6  and  C7_7
REMARK    4  A    between atoms: C10_10  and  C11_11
REMARK       I    between atoms: C11_11  and  N1_13
REMARK    5  A    between atoms: N1_13  and  S1_15
ROOT
HETATM    1  C7  UNL     1      61.028   7.033  12.262  1.00  0.00    -0.079 C
HETATM    2  C8  UNL     1      60.590   6.165  12.989  1.00  0.00    -0.106 C
HETATM    3  C9  UNL     1      60.020   5.118  13.845  1.00  0.00     0.112 C
ENDROOT
BRANCH   1   4
HETATM    4  C6  UNL     1      61.492   8.049  11.403  1.00  0.00     0.061 C
HETATM    5  C5  UNL     1      61.377   7.955  10.102  1.00  0.00    -0.012 C
BRANCH   5   6
HETATM    6  C4  UNL     1      61.893   9.098   9.271  1.00  0.00     0.031 A
HETATM    7  C3  UNL     1      63.183   8.926   8.544  1.00  0.00     0.029 A
HETATM    8  C10 UNL     1      63.094   9.879   9.750  1.00  0.00     0.095 A
BRANCH   7   9
HETATM    9  C2  UNL     1      64.047   7.742   8.695  1.00  0.00    -0.031 C
HETATM   10  C1  UNL     1      64.804   7.333   7.705  1.00  0.00     0.007 C
ENDBRANCH   7   9
BRANCH   8  11
HETATM   11  C11 UNL     1      63.193  11.318   9.486  1.00  0.00     0.236 C
HETATM   12  O1  UNL     1      64.321  11.866   9.522  1.00  0.00    -0.272 OA
HETATM   13  N1  UNL     1      62.075  12.128   9.186  1.00  0.00    -0.254 N
ATOM     14  H1  UNL     1      61.156  11.686   9.155  1.00  0.00     0.181 HD
BRANCH  13  15
HETATM   15  S1  UNL     1      62.174  13.819   8.870  1.00  0.00     0.229 S
HETATM   16  C12 UNL     1      62.689  14.625  10.382  1.00  0.00     0.186 C
HETATM   17  O2  UNL     1      60.855  14.371   8.418  1.00  0.00    -0.206 OA
HETATM   18  O3  UNL     1      63.191  14.014   7.767  1.00  0.00    -0.206 OA
ENDBRANCH  13  15
ENDBRANCH   8  11
ENDBRANCH   5   6
ENDBRANCH   1   4
TORSDOF 5
ENDMDL