MODEL 4
REMARK VINA RESULT: -6.931559779      1.641      1.881
REMARK  4 active torsions:
REMARK  status: ('A' for Active; 'I' for Inactive)
REMARK    1  A    between atoms: C2_2  and  C3_3
REMARK    2  A    between atoms: C3_3  and  N1_5
REMARK    3  A    between atoms: N1_5  and  C5_7
REMARK    4  A    between atoms: N2_11  and  C9_12
ROOT
HETATM    1  C5  UNL     1      61.066  10.490  10.111  1.00  0.00     0.142 C
HETATM    2  C6  UNL     1      62.445  11.134  10.356  1.00  0.00     0.073 C
HETATM    3  C7  UNL     1      62.847  11.435   8.925  1.00  0.00     0.107 C
HETATM    4  C8  UNL     1      63.174  10.149   8.184  1.00  0.00     0.147 C
HETATM    5  N2  UNL     1      62.528   8.998   8.739  1.00  0.00    -0.385 N
HETATM    6  C12 UNL     1      61.285   9.209   9.356  1.00  0.00     0.099 C
HETATM    7  N3  UNL     1      61.590  11.912   8.366  1.00  0.00    -0.348 N
HETATM    8  C13 UNL     1      61.451  12.616   7.110  1.00  0.00     0.153 C
HETATM    9  C14 UNL     1      60.519  11.570   9.251  1.00  0.00     0.253 C
HETATM   10  O1  UNL     1      59.419  12.133   9.202  1.00  0.00    -0.270 OA
ENDROOT
BRANCH   1  11
HETATM   11  N1  UNL     1      60.380  10.367  11.335  1.00  0.00    -0.394 N
ATOM     12  H1  UNL     1      60.677  10.927  12.134  1.00  0.00     0.155 HD
BRANCH  11  13
HETATM   13  C3  UNL     1      59.299   9.493  11.474  1.00  0.00     0.096 C
HETATM   14  C4  UNL     1      59.742   8.307  12.348  1.00  0.00     0.036 C
BRANCH  13  15
HETATM   15  C2  UNL     1      58.060  10.023  12.098  1.00  0.00    -0.013 C
HETATM   16  C1  UNL     1      57.239   9.269  12.817  1.00  0.00     0.009 C
ENDBRANCH  13  15
ENDBRANCH  11  13
ENDBRANCH   1  11
BRANCH   5  17
HETATM   17  C9  UNL     1      63.390   8.044   9.332  1.00  0.00     0.075 C
HETATM   18  C10 UNL     1      64.318   7.364   8.341  1.00  0.00     0.032 C
HETATM   19  C11 UNL     1      62.547   6.913   9.917  1.00  0.00     0.032 C
ENDBRANCH   5  17
TORSDOF 4
ENDMDL