MODEL 2
REMARK VINA RESULT: -6.726533062      2.059      5.962
REMARK  4 active torsions:
REMARK  status: ('A' for Active; 'I' for Inactive)
REMARK    1  A    between atoms: S1_2  and  N1_4
REMARK    2  A    between atoms: S1_2  and  N2_13
REMARK    3  A    between atoms: N1_4  and  C1_6
REMARK    4  A    between atoms: C1_6  and  C2_7
ROOT
HETATM    1  N1  UNL     1      63.654  11.430   7.383  1.00  0.00    -0.304 N
ATOM      2  H1  UNL     1      64.444  11.162   6.796  1.00  0.00     0.173 HD
ENDROOT
BRANCH   1   3
HETATM    3  S1  UNL     1      63.578  12.833   8.458  1.00  0.00     0.298 S
HETATM    4  O1  UNL     1      65.225  13.344   8.135  1.00  0.00    -0.188 OA
HETATM    5  O2  UNL     1      62.883  13.835   7.658  1.00  0.00    -0.188 OA
BRANCH   3   6
HETATM    6  N2  UNL     1      63.623  12.919  10.039  1.00  0.00    -0.194 NA
HETATM    7  C7  UNL     1      62.629  13.915  10.440  1.00  0.00     0.109 C
HETATM    8  C8  UNL     1      63.148  14.476  11.705  1.00  0.00     0.017 C
HETATM    9  C9  UNL     1      64.524  14.894  11.217  1.00  0.00     0.017 C
HETATM   10  C10 UNL     1      64.902  13.722  10.362  1.00  0.00     0.109 C
ENDBRANCH   3   6
ENDBRANCH   1   3
BRANCH   1  11
HETATM   11  C1  UNL     1      62.388  10.731   7.488  1.00  0.00     0.165 C
BRANCH  11  12
HETATM   12  C2  UNL     1      62.824   9.756   8.757  1.00  0.00     0.140 C
HETATM   13  C3  UNL     1      63.575   8.585   8.058  1.00  0.00     0.034 C
HETATM   14  C4  UNL     1      64.046   7.720   9.200  1.00  0.00     0.005 C
HETATM   15  C5  UNL     1      62.814   7.161   9.864  1.00  0.00     0.026 C
HETATM   16  C6  UNL     1      61.715   8.191   9.829  1.00  0.00     0.168 C
HETATM   17  O3  UNL     1      62.190   9.472   9.786  1.00  0.00    -0.384 OA
ENDBRANCH  11  12
ENDBRANCH   1  11
TORSDOF 4
ENDMDL