MODEL 4
REMARK VINA RESULT: -6.255359143      3.444      7.443
REMARK  5 active torsions:
REMARK  status: ('A' for Active; 'I' for Inactive)
REMARK    1  A    between atoms: C2_2  and  C3_3
REMARK    2  A    between atoms: N1_5  and  C5_6
REMARK    3  A    between atoms: C5_6  and  C6_7
REMARK       I    between atoms: C6_7  and  N2_9
REMARK    4  A    between atoms: N2_9  and  C7_11
REMARK    5  A    between atoms: N3_16  and  C12_17
ROOT
HETATM    1  C3  UNL     1      62.168   9.935  10.414  1.00  0.00     0.134 C
HETATM    2  C4  UNL     1      63.576   9.367  10.330  1.00  0.00     0.302 C
HETATM    3  N1  UNL     1      63.758   8.688   9.062  1.00  0.00     0.104 N
HETATM    4  C10 UNL     1      63.334   9.488   7.952  1.00  0.00     0.317 C
HETATM    5  C11 UNL     1      62.766  10.830   8.279  1.00  0.00     0.089 C
HETATM    6  N3  UNL     1      62.029  10.968   9.462  1.00  0.00    -0.378 N
ENDROOT
BRANCH   3   7
HETATM    7  C5  UNL     1      63.187   7.364   9.084  1.00  0.00     0.375 C
BRANCH   7   8
HETATM    8  C6  UNL     1      64.239   6.366   8.833  1.00  0.00     0.246 C
HETATM    9  O1  UNL     1      65.364   6.723   8.419  1.00  0.00    -0.272 OA
HETATM   10  N2  UNL     1      63.985   4.986   9.059  1.00  0.00    -0.356 N
ATOM     11  H2  UNL     1      63.071   4.680   9.394  1.00  0.00     0.162 HD
BRANCH  10  12
HETATM   12  C7  UNL     1      65.027   4.023   8.810  1.00  0.00     0.076 C
HETATM   13  C8  UNL     1      64.870   2.916   9.834  1.00  0.00     0.032 C
HETATM   14  C9  UNL     1      64.897   3.511   7.408  1.00  0.00     0.032 C
ENDBRANCH  10  12
ENDBRANCH   7   8
ENDBRANCH   3   7
BRANCH   1  15
HETATM   15  C2  UNL     1      61.812  10.265  11.787  1.00  0.00    -0.010 C
HETATM   16  C1  UNL     1      62.206   9.525  12.807  1.00  0.00     0.009 C
ENDBRANCH   1  15
BRANCH   6  17
HETATM   17  C12 UNL     1      61.685  12.260   9.887  1.00  0.00     0.076 C
HETATM   18  C13 UNL     1      60.862  12.985   8.845  1.00  0.00     0.032 C
HETATM   19  C14 UNL     1      62.847  13.138  10.262  1.00  0.00     0.032 C
ENDBRANCH   6  17
TORSDOF 5
ENDMDL