MODEL 2
REMARK VINA RESULT: -6.614669141      3.433      5.875
REMARK  5 active torsions:
REMARK  status: ('A' for Active; 'I' for Inactive)
REMARK    1  A    between atoms: C2_2  and  C3_3
REMARK    2  A    between atoms: C3_3  and  N1_4
REMARK    3  A    between atoms: C7_8  and  C8_9
REMARK       I    between atoms: C8_9  and  N2_11
REMARK    4  A    between atoms: N2_11  and  C9_13
REMARK    5  A    between atoms: C9_13  and  C10_14
ROOT
HETATM    1  C8  UNL     1      62.180   9.038  10.629  1.00  0.00     0.251 C
HETATM    2  O1  UNL     1      62.279   8.715   9.432  1.00  0.00    -0.271 OA
HETATM    3  N2  UNL     1      62.382  10.387  11.011  1.00  0.00    -0.359 N
ATOM      4  H2  UNL     1      62.311  10.675  11.987  1.00  0.00     0.162 HD
ENDROOT
BRANCH   1   5
HETATM    5  C7  UNL     1      61.861   8.068  11.659  1.00  0.00     0.314 C
HETATM    6  N1  UNL     1      60.652   8.301  12.432  1.00  0.00     0.105 N
HETATM    7  C4  UNL     1      60.698   7.096  13.276  1.00  0.00     0.274 C
HETATM    8  C5  UNL     1      60.926   5.999  12.294  1.00  0.00     0.033 C
HETATM    9  C6  UNL     1      61.746   6.655  11.183  1.00  0.00     0.047 C
BRANCH   6  10
HETATM   10  C3  UNL     1      59.460   8.267  11.604  1.00  0.00     0.300 C
BRANCH  10  11
HETATM   11  C2  UNL     1      58.669   9.525  11.735  1.00  0.00    -0.007 C
HETATM   12  C1  UNL     1      57.618   9.628  12.528  1.00  0.00     0.008 C
ENDBRANCH  10  11
ENDBRANCH   6  10
ENDBRANCH   1   5
BRANCH   3  13
HETATM   13  C9  UNL     1      62.694  11.343   9.968  1.00  0.00     0.127 C
BRANCH  13  14
HETATM   14  C10 UNL     1      61.565  12.266   9.650  1.00  0.00     0.007 C
HETATM   15  C11 UNL     1      62.130  13.665   9.610  1.00  0.00     0.032 C
HETATM   16  C12 UNL     1      61.644  14.366   8.361  1.00  0.00     0.168 C
HETATM   17  O2  UNL     1      61.966  13.695   7.197  1.00  0.00    -0.391 OA
HETATM   18  C13 UNL     1      61.483  12.405   7.131  1.00  0.00     0.168 C
HETATM   19  C14 UNL     1      60.822  11.942   8.400  1.00  0.00     0.032 C
ENDBRANCH  13  14
ENDBRANCH   3  13
TORSDOF 5
ENDMDL