MODEL 4
REMARK VINA RESULT: -6.590585822      1.238      1.666
REMARK  6 active torsions:
REMARK  status: ('A' for Active; 'I' for Inactive)
REMARK    1  A    between atoms: C4_4  and  C5_5
REMARK    2  A    between atoms: C5_5  and  O1_6
REMARK    3  A    between atoms: C5_5  and  C6_8
REMARK    4  A    between atoms: C6_8  and  N1_9
REMARK    5  A    between atoms: N2_12  and  C9_13
REMARK    6  A    between atoms: C9_13  and  C10_14
ROOT
HETATM    1  N1  UNL     1      62.597   7.633   9.462  1.00  0.00    -0.385 N
HETATM    2  C7  UNL     1      61.835   8.834   9.683  1.00  0.00     0.142 C
HETATM    3  C8  UNL     1      61.555   9.085  11.151  1.00  0.00     0.147 C
HETATM    4  N2  UNL     1      60.901   7.928  11.626  1.00  0.00    -0.367 N
HETATM    5  C13 UNL     1      61.742   6.819  11.646  1.00  0.00     0.107 C
HETATM    6  C14 UNL     1      62.293   6.538  10.266  1.00  0.00     0.102 C
ENDROOT
BRANCH   1   7
HETATM    7  C6  UNL     1      63.922   7.919   9.068  1.00  0.00     0.154 C
BRANCH   7   8
HETATM    8  C5  UNL     1      64.464   7.054   7.966  1.00  0.00     0.140 C
BRANCH   8   9
HETATM    9  C4  UNL     1      65.301   5.943   8.650  1.00  0.00     0.020 A
HETATM   10  C2  UNL     1      65.087   4.583   8.024  1.00  0.00    -0.012 A
HETATM   11  C1  UNL     1      64.973   3.451   9.006  1.00  0.00     0.010 C
HETATM   12  C3  UNL     1      66.395   5.298   7.853  1.00  0.00     0.012 A
ENDBRANCH   8   9
BRANCH   8  13
HETATM   13  O1  UNL     1      65.313   7.802   7.148  1.00  0.00    -0.394 OA
ATOM     14  H1  UNL     1      65.080   7.634   6.243  1.00  0.00     0.210 HD
ENDBRANCH   8  13
ENDBRANCH   7   8
ENDBRANCH   1   7
BRANCH   4  15
HETATM   15  C9  UNL     1      59.701   8.002  12.308  1.00  0.00     0.068 C
BRANCH  15  16
HETATM   16  C10 UNL     1      58.563   8.700  11.603  1.00  0.00     0.024 A
HETATM   17  C11 UNL     1      58.102  10.019  12.199  1.00  0.00     0.010 A
HETATM   18  C12 UNL     1      57.214   8.801  12.221  1.00  0.00     0.010 A
ENDBRANCH  15  16
ENDBRANCH   4  15
TORSDOF 6
ENDMDL