MODEL 4
REMARK VINA RESULT: -4.842580277      3.308      5.294
REMARK  4 active torsions:
REMARK  status: ('A' for Active; 'I' for Inactive)
REMARK    1  A    between atoms: C2_2  and  N2_5
REMARK    2  A    between atoms: N2_5  and  C4_7
REMARK    3  A    between atoms: C4_7  and  N3_9
REMARK    4  A    between atoms: N3_9  and  C5_11
ROOT
HETATM    1  C1  UNL     1     -24.142  44.539   9.848  1.00  0.00     0.048 C
HETATM    2  C2  UNL     1     -24.019  44.184  11.292  1.00  0.00     0.187 C
HETATM    3  C3  UNL     1     -22.908  43.242  11.439  1.00  0.00     0.084 C
HETATM    4  N1  UNL     1     -22.036  42.483  11.541  1.00  0.00    -0.195 NA
ENDROOT
BRANCH   2   5
HETATM    5  N2  UNL     1     -25.210  43.607  11.825  1.00  0.00    -0.351 N
ATOM      6  H2  UNL     1     -25.357  42.600  11.746  1.00  0.00     0.163 HD
BRANCH   5   7
HETATM    7  C4  UNL     1     -26.190  44.404  12.462  1.00  0.00     0.169 C
HETATM    8  S1  UNL     1     -25.776  45.864  13.027  1.00  0.00    -0.041 SA
BRANCH   7   9
HETATM    9  N3  UNL     1     -27.518  43.945  12.605  1.00  0.00    -0.357 N
ATOM     10  H3  UNL     1     -27.758  43.420  13.445  1.00  0.00     0.162 HD
BRANCH   9  11
HETATM   11  C5  UNL     1     -28.570  44.183  11.609  1.00  0.00     0.042 C
HETATM   12  C6  UNL     1     -28.927  42.817  11.066  1.00  0.00     0.039 C
HETATM   13  C7  UNL     1     -28.051  45.062  10.563  1.00  0.00     0.046 C
HETATM   14  C8  UNL     1     -28.991  46.151  10.189  1.00  0.00     0.143 C
HETATM   15  S2  UNL     1     -29.734  46.506  11.769  1.00  0.00     0.146 S
HETATM   16  O1  UNL     1     -31.119  47.031  11.642  1.00  0.00    -0.228 OA
HETATM   17  O2  UNL     1     -28.830  47.371  12.571  1.00  0.00    -0.228 OA
HETATM   18  C9  UNL     1     -29.720  44.807  12.357  1.00  0.00     0.170 C
ENDBRANCH   9  11
ENDBRANCH   7   9
ENDBRANCH   5   7
ENDBRANCH   2   5
TORSDOF 4
ENDMDL