MODEL 3
REMARK VINA RESULT: -6.074856039      1.984      5.988
REMARK  4 active torsions:
REMARK  status: ('A' for Active; 'I' for Inactive)
REMARK       I    between atoms: C2_2  and  N1_4
REMARK    1  A    between atoms: N1_4  and  N2_6
REMARK       I    between atoms: N2_6  and  C3_8
REMARK       I    between atoms: C3_8  and  N4_15
REMARK    2  A    between atoms: N3_9  and  C4_11
REMARK    3  A    between atoms: N4_15  and  C8_17
REMARK    4  A    between atoms: C8_17  and  C9_18
ROOT
HETATM    1  N2  UNL     1     -24.067  45.050   9.219  1.00  0.00    -0.130 N
ATOM      2  H2  UNL     1     -24.441  44.119   9.403  1.00  0.00     0.205 HD
HETATM    3  C3  UNL     1     -24.964  46.183   9.197  1.00  0.00     0.689 C
HETATM    4  N3  UNL     1     -24.757  47.078   8.346  1.00  0.00    -0.217 N
ATOM      5  H3  UNL     1     -23.948  46.877   7.758  1.00  0.00     0.178 HD
HETATM    6  N4  UNL     1     -25.990  46.136  10.170  1.00  0.00    -0.224 N
ATOM      7  H4  UNL     1     -26.946  46.411   9.945  1.00  0.00     0.177 HD
ENDROOT
BRANCH   1   8
HETATM    8  N1  UNL     1     -22.703  45.204   8.995  1.00  0.00    -0.256 N
HETATM    9  C2  UNL     1     -21.742  44.559   9.798  1.00  0.00     0.232 C
HETATM   10  C1  UNL     1     -20.284  44.726   9.558  1.00  0.00     0.119 C
HETATM   11  O1  UNL     1     -22.104  43.808  10.765  1.00  0.00    -0.272 OA
ATOM     12  H1  UNL     1     -22.390  45.801   8.229  1.00  0.00     0.190 HD
ENDBRANCH   1   8
BRANCH   4  13
HETATM   13  C4  UNL     1     -25.373  48.287   8.009  1.00  0.00     0.036 C
HETATM   14  C5  UNL     1     -24.383  49.112   7.166  1.00  0.00     0.038 C
HETATM   15  C6  UNL     1     -26.588  48.126   7.104  1.00  0.00     0.038 C
HETATM   16  C7  UNL     1     -25.797  49.186   9.132  1.00  0.00     0.038 C
ENDBRANCH   4  13
BRANCH   6  17
HETATM   17  C8  UNL     1     -25.634  45.685  11.494  1.00  0.00     0.155 C
BRANCH  17  18
HETATM   18  C9  UNL     1     -26.801  45.555  12.430  1.00  0.00     0.040 A
HETATM   19  C10 UNL     1     -27.560  44.244  12.389  1.00  0.00     0.025 C
HETATM   20  C11 UNL     1     -26.613  46.178  13.793  1.00  0.00     0.097 A
HETATM   21  C12 UNL     1     -27.618  46.722  12.781  1.00  0.00     0.138 A
HETATM   22  O2  UNL     1     -28.437  47.607  12.667  1.00  0.00    -0.297 OA
ENDBRANCH  17  18
ENDBRANCH   6  17
TORSDOF 4
ENDMDL