MODEL 3
REMARK VINA RESULT: -4.871443433      6.503      8.557
REMARK  3 active torsions:
REMARK  status: ('A' for Active; 'I' for Inactive)
REMARK    1  A    between atoms: C4_4  and  O1_5
REMARK    2  A    between atoms: C8_10  and  C9_11
REMARK    3  A    between atoms: C10_14  and  C11_15
ROOT
HETATM    1  C1  UNL     1     -25.222  49.073   8.575  1.00  0.00     0.011 C
HETATM    2  C2  UNL     1     -26.067  49.320   7.401  1.00  0.00    -0.005 C
HETATM    3  C3  UNL     1     -25.678  48.488   6.165  1.00  0.00     0.039 C
HETATM    4  C4  UNL     1     -24.281  49.033   6.007  1.00  0.00     0.128 C
HETATM    5  C5  UNL     1     -24.649  50.507   5.799  1.00  0.00     0.024 C
HETATM    6  C6  UNL     1     -25.165  50.702   4.368  1.00  0.00    -0.005 C
HETATM    7  C7  UNL     1     -25.872  49.489   3.879  1.00  0.00     0.027 C
HETATM    8  C8  UNL     1     -26.634  49.127   5.143  1.00  0.00     0.073 C
HETATM    9  C10 UNL     1     -26.980  50.490   5.676  1.00  0.00     0.071 C
HETATM   10  C12 UNL     1     -26.440  51.521   4.678  1.00  0.00     0.027 C
HETATM   11  C13 UNL     1     -25.843  50.647   6.712  1.00  0.00     0.017 C
ENDROOT
BRANCH   8  12
HETATM   12  C9  UNL     1     -27.772  48.249   4.875  1.00  0.00     0.183 C
HETATM   13  O2  UNL     1     -28.498  48.501   3.879  1.00  0.00    -0.647 OA
HETATM   14  O3  UNL     1     -28.031  47.172   5.703  1.00  0.00    -0.647 OA
ENDBRANCH   8  12
BRANCH   9  15
HETATM   15  C11 UNL     1     -28.269  50.731   6.207  1.00  0.00     0.183 C
HETATM   16  O4  UNL     1     -28.737  50.214   7.222  1.00  0.00    -0.647 OA
HETATM   17  O5  UNL     1     -29.112  51.640   5.535  1.00  0.00    -0.647 OA
ENDBRANCH   9  15
BRANCH   4  18
HETATM   18  O1  UNL     1     -23.514  48.493   5.035  1.00  0.00    -0.395 OA
ATOM     19  H1  UNL     1     -23.304  49.045   4.290  1.00  0.00     0.210 HD
ENDBRANCH   4  18
TORSDOF 3
ENDMDL