MODEL 2
REMARK VINA RESULT: -5.715389457      2.702      5.622
REMARK  3 active torsions:
REMARK  status: ('A' for Active; 'I' for Inactive)
REMARK    1  A    between atoms: C2_2  and  N1_5
REMARK       I    between atoms: N1_5  and  C5_7
REMARK       I    between atoms: C5_7  and  N2_9
REMARK    2  A    between atoms: C7_11  and  C8_12
REMARK    3  A    between atoms: C10_16  and  C11_17
ROOT
HETATM    1  N1  UNL     1     -28.531  43.908  13.667  1.00  0.00    -0.335 N
ATOM      2  H1  UNL     1     -27.726  43.431  14.072  1.00  0.00     0.165 HD
HETATM    3  C5  UNL     1     -28.318  44.620  12.474  1.00  0.00     0.319 C
HETATM    4  O1  UNL     1     -29.283  45.221  11.940  1.00  0.00    -0.247 OA
HETATM    5  N2  UNL     1     -27.056  44.700  11.827  1.00  0.00    -0.319 N
HETATM    6  C6  UNL     1     -25.857  44.036  12.361  1.00  0.00     0.144 C
HETATM    7  C7  UNL     1     -24.726  44.672  11.619  1.00  0.00     0.107 C
HETATM    8  C9  UNL     1     -25.335  44.889  10.253  1.00  0.00     0.053 C
HETATM    9  C10 UNL     1     -26.717  45.390  10.618  1.00  0.00     0.190 C
ENDROOT
BRANCH   9  10
HETATM   10  C11 UNL     1     -26.725  46.865  10.797  1.00  0.00     0.197 C
HETATM   11  O4  UNL     1     -26.470  47.578   9.791  1.00  0.00    -0.646 OA
HETATM   12  O5  UNL     1     -27.006  47.385  12.033  1.00  0.00    -0.646 OA
ENDBRANCH   9  10
BRANCH   1  13
HETATM   13  C2  UNL     1     -29.770  43.793  14.359  1.00  0.00     0.023 C
HETATM   14  C1  UNL     1     -29.586  42.963  15.638  1.00  0.00     0.037 C
HETATM   15  C3  UNL     1     -30.226  45.150  14.797  1.00  0.00     0.037 C
HETATM   16  C4  UNL     1     -30.820  43.066  13.543  1.00  0.00     0.037 C
ENDBRANCH   1  13
BRANCH   7  17
HETATM   17  C8  UNL     1     -23.587  43.752  11.602  1.00  0.00     0.178 C
HETATM   18  O2  UNL     1     -23.665  42.645  12.174  1.00  0.00    -0.648 OA
HETATM   19  O3  UNL     1     -22.431  44.130  10.944  1.00  0.00    -0.648 OA
ENDBRANCH   7  17
TORSDOF 3
ENDMDL