MODEL 5
REMARK VINA RESULT: -5.333818720      5.754      6.999
REMARK  4 active torsions:
REMARK  status: ('A' for Active; 'I' for Inactive)
REMARK    1  A    between atoms: C4_4  and  C5_5
REMARK    2  A    between atoms: C6_6  and  O1_7
REMARK    3  A    between atoms: C11_17  and  C12_18
REMARK    4  A    between atoms: C12_18  and  O3_20
ROOT
HETATM    1  C5  UNL     1     -28.895  46.087  13.969  1.00  0.00     0.061 C
HETATM    2  C6  UNL     1     -28.345  47.004  12.866  1.00  0.00     0.136 C
HETATM    3  C7  UNL     1     -28.835  46.043  11.856  1.00  0.00     0.064 C
HETATM    4  C8  UNL     1     -29.751  45.460  12.904  1.00  0.00     0.105 C
HETATM    5  N1  UNL     1     -29.845  44.040  12.898  1.00  0.00    -0.337 N
ATOM      6  H1  UNL     1     -30.015  43.511  13.754  1.00  0.00     0.164 HD
HETATM    7  C9  UNL     1     -29.688  43.395  11.640  1.00  0.00     0.318 C
HETATM    8  O2  UNL     1     -30.220  42.282  11.378  1.00  0.00    -0.247 OA
HETATM    9  N2  UNL     1     -28.896  44.056  10.659  1.00  0.00    -0.331 N
HETATM   10  C10 UNL     1     -28.992  43.609   9.289  1.00  0.00     0.155 C
HETATM   11  C11 UNL     1     -28.023  45.153  11.075  1.00  0.00     0.125 C
ENDROOT
BRANCH   1  12
HETATM   12  C4  UNL     1     -29.724  46.814  14.969  1.00  0.00    -0.016 C
HETATM   13  C2  UNL     1     -30.038  46.327  16.130  1.00  0.00    -0.091 C
HETATM   14  C1  UNL     1     -29.561  44.955  16.535  1.00  0.00     0.042 C
HETATM   15  C3  UNL     1     -30.871  47.091  17.099  1.00  0.00     0.042 C
ENDBRANCH   1  12
BRANCH   2  16
HETATM   16  O1  UNL     1     -29.027  48.243  12.923  1.00  0.00    -0.394 OA
ATOM     17  H1  UNL     1     -28.611  48.791  13.577  1.00  0.00     0.210 HD
ENDBRANCH   2  16
BRANCH  11  18
HETATM   18  C12 UNL     1     -26.789  44.506  11.520  1.00  0.00     0.137 C
HETATM   19  C13 UNL     1     -25.511  45.245  11.476  1.00  0.00     0.041 C
BRANCH  18  20
HETATM   20  O3  UNL     1     -26.848  43.831  12.743  1.00  0.00    -0.394 OA
ATOM     21  H3  UNL     1     -26.227  43.122  12.864  1.00  0.00     0.210 HD
ENDBRANCH  18  20
ENDBRANCH  11  18
TORSDOF 4
ENDMDL