MODEL 5
REMARK VINA RESULT: -6.455252750      2.400      8.298
REMARK  3 active torsions:
REMARK  status: ('A' for Active; 'I' for Inactive)
REMARK    1  A    between atoms: C1_2  and  C2_4
REMARK    2  A    between atoms: C3_5  and  C4_6
REMARK       I    between atoms: C4_6  and  N1_8
REMARK    3  A    between atoms: N1_8  and  N2_10
REMARK       I    between atoms: N2_10  and  C5_12
REMARK       I    between atoms: C5_12  and  N3_14
ROOT
HETATM    1  N2  UNL     1     -25.708  44.453  11.842  1.00  0.00    -0.249 N
ATOM      2  H2  UNL     1     -26.054  43.662  12.386  1.00  0.00     0.192 HD
HETATM    3  C5  UNL     1     -26.399  45.658  11.905  1.00  0.00     0.337 C
HETATM    4  O4  UNL     1     -25.961  46.644  11.216  1.00  0.00    -0.245 OA
HETATM    5  N3  UNL     1     -27.531  45.851  12.666  1.00  0.00    -0.323 N
HETATM    6  C6  UNL     1     -28.047  44.689  13.469  1.00  0.00     0.207 C
HETATM    7  C7  UNL     1     -29.162  45.149  14.214  1.00  0.00    -0.163 C
HETATM    8  C8  UNL     1     -30.238  45.846  14.800  1.00  0.00     0.081 C
HETATM    9  C9  UNL     1     -30.289  47.279  14.172  1.00  0.00     0.013 C
HETATM   10  C10 UNL     1     -29.611  47.300  12.804  1.00  0.00     0.021 C
HETATM   11  C11 UNL     1     -28.173  47.162  12.685  1.00  0.00     0.128 C
ENDROOT
BRANCH   1  12
HETATM   12  N1  UNL     1     -24.545  44.275  11.056  1.00  0.00    -0.263 N
HETATM   13  C4  UNL     1     -23.517  43.369  11.376  1.00  0.00     0.260 C
HETATM   14  O3  UNL     1     -23.600  42.657  12.404  1.00  0.00    -0.267 OA
ATOM     15  H1  UNL     1     -24.446  44.837  10.210  1.00  0.00     0.190 HD
BRANCH  13  16
HETATM   16  C3  UNL     1     -22.335  43.236  10.526  1.00  0.00     0.082 C
HETATM   17  C2  UNL     1     -21.723  44.234   9.948  1.00  0.00     0.090 C
BRANCH  17  18
HETATM   18  C1  UNL     1     -20.544  43.929   9.123  1.00  0.00     0.198 C
HETATM   19  O1  UNL     1     -19.747  42.999   9.501  1.00  0.00    -0.645 OA
HETATM   20  O2  UNL     1     -20.284  44.623   7.966  1.00  0.00    -0.645 OA
ENDBRANCH  17  18
ENDBRANCH  13  16
ENDBRANCH   1  12
TORSDOF 3
ENDMDL