MODEL 5
REMARK VINA RESULT: -5.544203126      2.184      3.600
REMARK  6 active torsions:
REMARK  status: ('A' for Active; 'I' for Inactive)
REMARK    1  A    between atoms: N1_1  and  C1_5
REMARK    2  A    between atoms: N2_6  and  C2_7
REMARK    3  A    between atoms: C2_7  and  C3_8
REMARK    4  A    between atoms: C12_17  and  C13_18
REMARK    5  A    between atoms: C13_18  and  O1_19
REMARK    6  A    between atoms: C14_21  and  O2_22
ROOT
HETATM    1  C1  UNL     1     -29.458  46.204  11.629  1.00  0.00     0.454 C
HETATM    2  N2  UNL     1     -29.397  45.032  12.444  1.00  0.00     0.128 N
HETATM    3  C6  UNL     1     -28.030  44.610  12.749  1.00  0.00     0.233 C
HETATM    4  C7  UNL     1     -27.496  45.742  13.582  1.00  0.00     0.041 C
HETATM    5  C8  UNL     1     -26.548  46.490  12.707  1.00  0.00    -0.005 C
HETATM    6  C9  UNL     1     -25.348  45.516  12.629  1.00  0.00     0.010 C
HETATM    7  C10 UNL     1     -25.863  44.783  11.375  1.00  0.00    -0.005 C
HETATM    8  C11 UNL     1     -25.850  46.083  10.543  1.00  0.00     0.013 C
HETATM    9  C12 UNL     1     -26.990  46.766  11.329  1.00  0.00     0.031 C
HETATM   10  C13 UNL     1     -28.227  46.239  10.779  1.00  0.00     0.144 C
HETATM   11  C14 UNL     1     -28.039  44.773  10.340  1.00  0.00     0.163 C
HETATM   12  C15 UNL     1     -27.244  44.247  11.551  1.00  0.00     0.055 C
ENDROOT
BRANCH   1  13
HETATM   13  N1  UNL     1     -29.774  47.422  12.292  1.00  0.00    -0.044 N
ATOM     14  H13 UNL     1     -30.274  47.223  13.158  1.00  0.00     0.277 HD
ATOM     15  H12 UNL     1     -28.922  47.843  12.662  1.00  0.00     0.277 HD
ATOM     16  H11 UNL     1     -30.292  48.114  11.749  1.00  0.00     0.277 HD
ENDBRANCH   1  13
BRANCH   2  17
HETATM   17  C2  UNL     1     -30.281  45.064  13.523  1.00  0.00     0.280 C
BRANCH  17  18
HETATM   18  C3  UNL     1     -30.551  43.735  14.178  1.00  0.00     0.014 A
HETATM   19  C4  UNL     1     -31.474  43.832  15.397  1.00  0.00     0.007 A
HETATM   20  C5  UNL     1     -30.039  43.528  15.602  1.00  0.00     0.007 A
ENDBRANCH  17  18
ENDBRANCH   2  17
BRANCH  10  21
HETATM   21  O1  UNL     1     -28.546  46.937   9.610  1.00  0.00    -0.383 OA
ATOM     22  H1  UNL     1     -28.019  47.728   9.599  1.00  0.00     0.210 HD
ENDBRANCH  10  21
BRANCH  11  23
HETATM   23  O2  UNL     1     -29.249  44.115  10.174  1.00  0.00    -0.392 OA
ATOM     24  H2  UNL     1     -29.133  43.190   9.989  1.00  0.00     0.210 HD
ENDBRANCH  11  23
TORSDOF 6
ENDMDL