MODEL 5
REMARK VINA RESULT: -5.213003790      3.077      4.164
REMARK  2 active torsions:
REMARK  status: ('A' for Active; 'I' for Inactive)
REMARK    1  A    between atoms: C2_2  and  N1_3
REMARK    2  A    between atoms: N2_5  and  N3_7
REMARK       I    between atoms: N3_7  and  C4_9
REMARK       I    between atoms: N6_14  and  C5_15
ROOT
HETATM    1  N1  UNL     1     -26.792  46.140  11.004  1.00  0.00    -0.210 N
HETATM    2  C3  UNL     1     -27.252  46.724   9.771  1.00  0.00     0.701 C
HETATM    3  N2  UNL     1     -26.656  47.561   8.997  1.00  0.00    -0.129 N
ATOM      4  H2  UNL     1     -27.177  47.842   8.166  1.00  0.00     0.205 HD
HETATM    5  N6  UNL     1     -28.572  46.167   9.571  1.00  0.00    -0.139 N
HETATM    6  C5  UNL     1     -29.349  46.265   8.379  1.00  0.00     0.235 C
HETATM    7  C6  UNL     1     -28.798  46.995   7.215  1.00  0.00     0.118 C
HETATM    8  O1  UNL     1     -30.489  45.756   8.274  1.00  0.00    -0.273 OA
HETATM    9  C7  UNL     1     -28.981  45.491  10.789  1.00  0.00     0.071 C
HETATM   10  C8  UNL     1     -29.047  44.006  10.636  1.00  0.00     0.041 C
HETATM   11  C9  UNL     1     -30.379  45.981  11.108  1.00  0.00     0.041 C
HETATM   12  C10 UNL     1     -27.998  45.984  11.791  1.00  0.00     0.126 C
HETATM   13  C11 UNL     1     -27.863  45.169  13.018  1.00  0.00     0.035 C
ENDROOT
BRANCH   1  14
HETATM   14  C2  UNL     1     -25.432  45.807  11.327  1.00  0.00     0.137 C
HETATM   15  C1  UNL     1     -24.834  44.757  10.396  1.00  0.00     0.027 C
ENDBRANCH   1  14
BRANCH   3  16
HETATM   16  N3  UNL     1     -25.421  48.125   9.136  1.00  0.00    -0.260 N
HETATM   17  C4  UNL     1     -24.855  49.084   8.253  1.00  0.00     0.201 C
HETATM   18  N4  UNL     1     -23.861  48.692   7.537  1.00  0.00    -0.372 N
HETATM   19  N5  UNL     1     -25.316  50.418   8.117  1.00  0.00    -0.062 NA
ATOM     20  H42 UNL     1     -23.529  47.732   7.635  1.00  0.00     0.158 HD
ATOM     21  H41 UNL     1     -23.454  49.380   6.904  1.00  0.00     0.158 HD
ATOM     22  H3  UNL     1     -24.860  47.836   9.938  1.00  0.00     0.190 HD
ENDBRANCH   3  16
TORSDOF 2
ENDMDL