MODEL 5
REMARK VINA RESULT: -6.841275591      0.980      1.258
REMARK  8 active torsions:
REMARK  status: ('A' for Active; 'I' for Inactive)
REMARK    1  A    between atoms: C2_2  and  O1_3
REMARK    2  A    between atoms: C2_2  and  C3_5
REMARK    3  A    between atoms: C3_5  and  N1_6
REMARK    4  A    between atoms: C3_5  and  C14_30
REMARK    5  A    between atoms: N1_6  and  C4_8
REMARK    6  A    between atoms: C7_17  and  N5_18
REMARK    7  A    between atoms: C12_25  and  N7_26
REMARK    8  A    between atoms: C14_30  and  O2_32
ROOT
HETATM    1  C14 UNL     1     -10.884 -26.679 -21.831  1.00  0.00     0.165 C
HETATM    2  C15 UNL     1      -9.641 -27.185 -22.618  1.00  0.00     0.065 C
HETATM    3  C16 UNL     1     -11.769 -26.153 -22.812  1.00  0.00     0.099 C
HETATM    4  N8  UNL     1     -12.493 -25.714 -23.589  1.00  0.00    -0.194 NA
ENDROOT
BRANCH   1   5
HETATM    5  C3  UNL     1     -11.394 -27.843 -21.014  1.00  0.00     0.160 C
BRANCH   5   6
HETATM    6  C2  UNL     1     -12.103 -27.333 -19.755  1.00  0.00     0.140 C
HETATM    7  C1  UNL     1     -13.382 -28.031 -19.459  1.00  0.00     0.041 C
BRANCH   6   8
HETATM    8  O1  UNL     1     -11.307 -27.229 -18.655  1.00  0.00    -0.394 OA
ATOM      9  H1  UNL     1     -10.920 -26.365 -18.573  1.00  0.00     0.210 HD
ENDBRANCH   6   8
ENDBRANCH   5   6
BRANCH   5  10
HETATM   10  N1  UNL     1     -10.567 -28.866 -20.682  1.00  0.00    -0.364 N
ATOM     11  H1  UNL     1      -9.954 -28.395 -20.016  1.00  0.00     0.161 HD
BRANCH  10  12
HETATM   12  C4  UNL     1     -10.092 -29.972 -20.667  1.00  0.00     0.120 A
HETATM   13  N2  UNL     1     -10.642 -31.035 -21.307  1.00  0.00    -0.338 N
HETATM   14  C5  UNL     1     -10.084 -32.258 -21.301  1.00  0.00     0.183 A
ATOM     15  H2  UNL     1     -11.516 -30.900 -21.815  1.00  0.00     0.168 HD
HETATM   16  N3  UNL     1      -8.937 -32.462 -20.642  1.00  0.00    -0.337 N
HETATM   17  C6  UNL     1      -8.331 -31.476 -19.985  1.00  0.00     0.139 A
ATOM     18  H3  UNL     1      -8.519 -33.392 -20.643  1.00  0.00     0.168 HD
HETATM   19  N4  UNL     1      -7.168 -31.685 -19.313  1.00  0.00    -0.175 N
HETATM   20  C13 UNL     1      -8.893 -30.227 -19.986  1.00  0.00     0.096 A
HETATM   21  C7  UNL     1      -6.520 -30.724 -18.636  1.00  0.00     0.683 A
ATOM     22  H4  UNL     1      -6.766 -32.622 -19.325  1.00  0.00     0.186 HD
HETATM   23  N6  UNL     1      -7.053 -29.493 -18.622  1.00  0.00    -0.176 N
HETATM   24  C12 UNL     1      -8.204 -29.259 -19.277  1.00  0.00     0.132 A
ATOM     25  H6  UNL     1      -6.588 -28.739 -18.117  1.00  0.00     0.186 HD
BRANCH  21  26
HETATM   26  N5  UNL     1      -5.298 -31.027 -17.948  1.00  0.00    -0.217 N
HETATM   27  C8  UNL     1      -5.236 -31.887 -16.810  1.00  0.00     0.141 C
HETATM   28  C9  UNL     1      -3.786 -32.031 -16.471  1.00  0.00     0.022 C
HETATM   29  C10 UNL     1      -3.069 -30.917 -17.186  1.00  0.00     0.022 C
HETATM   30  C11 UNL     1      -4.004 -30.549 -18.288  1.00  0.00     0.141 C
ENDBRANCH  21  26
BRANCH  24  31
HETATM   31  N7  UNL     1      -8.680 -28.075 -19.197  1.00  0.00    -0.384 N
ATOM     32  H72 UNL     1      -8.052 -27.289 -19.028  1.00  0.00     0.157 HD
ATOM     33  H71 UNL     1      -9.686 -27.975 -19.336  1.00  0.00     0.157 HD
ENDBRANCH  24  31
ENDBRANCH  10  12
ENDBRANCH   5  10
ENDBRANCH   1   5
BRANCH   1  34
HETATM   34  O2  UNL     1     -10.325 -25.774 -20.930  1.00  0.00    -0.374 OA
ATOM     35  H2  UNL     1      -9.396 -25.971 -20.889  1.00  0.00     0.212 HD
ENDBRANCH   1  34
TORSDOF 8
ENDMDL