MODEL 1
REMARK VINA RESULT: -7.503795132      0.000      0.000
REMARK  7 active torsions:
REMARK  status: ('A' for Active; 'I' for Inactive)
REMARK    1  A    between atoms: C4_6  and  C5_7
REMARK    2  A    between atoms: C5_7  and  N2_8
REMARK    3  A    between atoms: N2_8  and  C6_9
REMARK    4  A    between atoms: N2_8  and  C7_11
REMARK    5  A    between atoms: C8_14  and  N4_15
REMARK    6  A    between atoms: C12_25  and  C13_26
REMARK    7  A    between atoms: C13_26  and  O1_27
ROOT
HETATM    1  C7  UNL     1      -9.048 -28.948 -19.487  1.00  0.00     0.688 A
HETATM    2  N3  UNL     1     -10.210 -29.625 -19.622  1.00  0.00    -0.175 N
ATOM      3  H3  UNL     1     -10.201 -30.629 -19.450  1.00  0.00     0.186 HD
HETATM    4  C8  UNL     1     -11.379 -29.055 -19.969  1.00  0.00     0.139 A
HETATM    5  C9  UNL     1     -11.429 -27.698 -20.209  1.00  0.00     0.130 A
HETATM    6  C10 UNL     1     -12.640 -27.024 -20.583  1.00  0.00     0.106 C
HETATM    7  N5  UNL     1     -13.611 -26.471 -20.899  1.00  0.00    -0.191 NA
HETATM    8  C11 UNL     1     -10.250 -26.999 -20.075  1.00  0.00     0.156 A
HETATM    9  N6  UNL     1     -10.291 -25.606 -20.320  1.00  0.00    -0.080 NA
HETATM   10  N7  UNL     1      -9.091 -27.628 -19.720  1.00  0.00    -0.177 N
ATOM     11  H7  UNL     1      -8.236 -27.079 -19.630  1.00  0.00     0.185 HD
ENDROOT
BRANCH   4  12
HETATM   12  N4  UNL     1     -12.458 -29.748 -20.083  1.00  0.00    -0.384 N
ATOM     13  H42 UNL     1     -12.449 -30.583 -20.670  1.00  0.00     0.157 HD
ATOM     14  H41 UNL     1     -13.317 -29.481 -19.601  1.00  0.00     0.157 HD
ENDBRANCH   4  12
BRANCH   1  15
HETATM   15  N2  UNL     1      -7.862 -29.655 -19.112  1.00  0.00    -0.178 N
BRANCH  15  16
HETATM   16  C5  UNL     1      -6.943 -29.221 -18.112  1.00  0.00     0.205 C
BRANCH  16  17
HETATM   17  C4  UNL     1      -6.193 -30.276 -17.421  1.00  0.00     0.040 A
HETATM   18  N1  UNL     1      -6.766 -31.242 -16.698  1.00  0.00    -0.367 N
HETATM   19  C3  UNL     1      -5.982 -32.171 -16.081  1.00  0.00     0.099 A
ATOM     20  H1  UNL     1      -7.781 -31.284 -16.609  1.00  0.00     0.165 HD
HETATM   21  C2  UNL     1      -4.618 -32.174 -16.160  1.00  0.00     0.004 A
HETATM   22  C1  UNL     1      -3.765 -33.189 -15.486  1.00  0.00     0.054 C
HETATM   23  C14 UNL     1      -4.008 -31.186 -16.901  1.00  0.00     0.189 A
HETATM   24  C12 UNL     1      -4.799 -30.245 -17.526  1.00  0.00     0.040 A
HETATM   25  O2  UNL     1      -2.752 -31.129 -17.016  1.00  0.00    -0.287 OA
BRANCH  24  26
HETATM   26  C13 UNL     1      -4.202 -29.160 -18.336  1.00  0.00     0.209 C
BRANCH  26  27
HETATM   27  O1  UNL     1      -3.665 -28.177 -17.492  1.00  0.00    -0.396 OA
ATOM     28  H1  UNL     1      -3.267 -27.489 -18.012  1.00  0.00     0.209 HD
ENDBRANCH  26  27
ENDBRANCH  24  26
ENDBRANCH  16  17
ENDBRANCH  15  16
BRANCH  15  29
HETATM   29  C6  UNL     1      -7.584 -30.876 -19.781  1.00  0.00     0.191 C
HETATM   30  S1  UNL     1      -6.674 -30.932 -21.119  1.00  0.00    -0.073 SA
ENDBRANCH  15  29
ENDBRANCH   1  15
TORSDOF 7
ENDMDL