MODEL 4
REMARK VINA RESULT: -6.270135480      1.436      1.805
REMARK  8 active torsions:
REMARK  status: ('A' for Active; 'I' for Inactive)
REMARK    1  A    between atoms: C2_2  and  O1_3
REMARK    2  A    between atoms: O1_3  and  C3_4
REMARK    3  A    between atoms: C4_5  and  N1_6
REMARK    4  A    between atoms: C6_8  and  N2_9
REMARK    5  A    between atoms: C8_14  and  N3_15
REMARK    6  A    between atoms: C10_22  and  N5_23
REMARK    7  A    between atoms: C13_26  and  N6_27
REMARK    8  A    between atoms: C16_35  and  N8_36
ROOT
HETATM    1  C3  UNL     1     -10.345 -27.713 -20.634  1.00  0.00     0.157 A
HETATM    2  C4  UNL     1      -9.177 -28.164 -21.192  1.00  0.00     0.156 A
HETATM    3  N4  UNL     1      -8.323 -28.867 -20.379  1.00  0.00    -0.173 N
ATOM      4  H4  UNL     1      -7.450 -29.209 -20.782  1.00  0.00     0.186 HD
HETATM    5  C10 UNL     1      -8.564 -29.129 -19.098  1.00  0.00     0.687 A
HETATM    6  N7  UNL     1      -9.707 -28.680 -18.576  1.00  0.00    -0.174 N
ATOM      7  H7  UNL     1      -9.905 -28.875 -17.594  1.00  0.00     0.186 HD
HETATM    8  C16 UNL     1     -10.602 -27.988 -19.283  1.00  0.00     0.152 A
ENDROOT
BRANCH   2   9
HETATM    9  N1  UNL     1      -8.736 -27.952 -22.523  1.00  0.00    -0.360 N
HETATM   10  C5  UNL     1      -9.277 -28.484 -23.726  1.00  0.00     0.157 C
HETATM   11  C6  UNL     1      -8.236 -28.273 -24.840  1.00  0.00     0.203 C
HETATM   12  C7  UNL     1      -8.061 -26.773 -25.087  1.00  0.00     0.068 C
HETATM   13  C8  UNL     1      -7.952 -26.057 -23.760  1.00  0.00     0.203 C
HETATM   14  C9  UNL     1      -7.550 -27.079 -22.727  1.00  0.00     0.157 C
BRANCH  11  15
HETATM   15  N2  UNL     1      -8.763 -28.806 -26.096  1.00  0.00    -0.073 N
ATOM     16  H23 UNL     1      -9.249 -29.694 -25.966  1.00  0.00     0.274 HD
ATOM     17  H22 UNL     1      -9.550 -28.261 -26.447  1.00  0.00     0.274 HD
ATOM     18  H21 UNL     1      -8.004 -28.875 -26.774  1.00  0.00     0.274 HD
ENDBRANCH  11  15
BRANCH  13  19
HETATM   19  N3  UNL     1      -6.911 -25.051 -23.769  1.00  0.00    -0.073 N
ATOM     20  H33 UNL     1      -6.261 -25.197 -24.542  1.00  0.00     0.274 HD
ATOM     21  H32 UNL     1      -7.280 -24.139 -24.039  1.00  0.00     0.274 HD
ATOM     22  H31 UNL     1      -6.419 -25.001 -22.878  1.00  0.00     0.274 HD
ENDBRANCH  13  19
ENDBRANCH   2   9
BRANCH   1  23
HETATM   23  O1  UNL     1     -11.277 -27.014 -21.306  1.00  0.00    -0.345 OA
BRANCH  23  24
HETATM   24  C2  UNL     1     -12.316 -27.267 -22.137  1.00  0.00     0.171 C
HETATM   25  C1  UNL     1     -12.908 -28.654 -22.143  1.00  0.00     0.034 C
ENDBRANCH  23  24
ENDBRANCH   1  23
BRANCH   8  26
HETATM   26  N8  UNL     1     -11.692 -27.566 -18.707  1.00  0.00    -0.383 N
ATOM     27  H82 UNL     1     -12.233 -26.817 -19.139  1.00  0.00     0.157 HD
ATOM     28  H81 UNL     1     -12.020 -27.979 -17.834  1.00  0.00     0.157 HD
ENDBRANCH   8  26
BRANCH   5  29
HETATM   29  N5  UNL     1      -7.598 -29.838 -18.338  1.00  0.00    -0.197 N
HETATM   30  C11 UNL     1      -7.197 -29.340 -17.083  1.00  0.00     0.084 C
HETATM   31  C12 UNL     1      -5.933 -29.864 -16.499  1.00  0.00     0.078 C
HETATM   32  C13 UNL     1      -5.549 -31.241 -16.915  1.00  0.00     0.189 C
HETATM   33  C14 UNL     1      -6.528 -31.909 -17.835  1.00  0.00     0.053 C
HETATM   34  C15 UNL     1      -7.063 -31.038 -18.904  1.00  0.00     0.148 C
BRANCH  32  35
HETATM   35  N6  UNL     1      -5.365 -32.118 -15.771  1.00  0.00    -0.075 N
ATOM     36  H63 UNL     1      -5.087 -31.594 -14.942  1.00  0.00     0.274 HD
ATOM     37  H62 UNL     1      -6.257 -32.486 -15.439  1.00  0.00     0.274 HD
ATOM     38  H61 UNL     1      -4.706 -32.870 -15.972  1.00  0.00     0.274 HD
ENDBRANCH  32  35
ENDBRANCH   5  29
TORSDOF 8
ENDMDL