MODEL 1
REMARK VINA RESULT: -8.581469497      0.000      0.000
REMARK  6 active torsions:
REMARK  status: ('A' for Active; 'I' for Inactive)
REMARK    1  A    between atoms: C2_2  and  C3_3
REMARK    2  A    between atoms: C3_3  and  N1_4
REMARK    3  A    between atoms: C3_3  and  O4_33
REMARK    4  A    between atoms: N1_4  and  C4_6
REMARK    5  A    between atoms: C7_14  and  O2_15
REMARK    6  A    between atoms: O2_15  and  C8_16
ROOT
HETATM    1  C4  UNL     1      -6.248 -31.409 -17.891  1.00  0.00     0.683 A
HETATM    2  N2  UNL     1      -6.390 -30.340 -17.118  1.00  0.00    -0.154 N
ATOM      3  H2  UNL     1      -5.867 -30.259 -16.245  1.00  0.00     0.187 HD
HETATM    4  C5  UNL     1      -7.231 -29.363 -17.499  1.00  0.00     0.288 A
HETATM    5  O1  UNL     1      -7.397 -28.333 -16.801  1.00  0.00    -0.265 OA
HETATM    6  C6  UNL     1      -7.940 -29.460 -18.675  1.00  0.00     0.136 A
HETATM    7  N3  UNL     1      -8.788 -28.509 -19.092  1.00  0.00    -0.315 N
ATOM      8  H3  UNL     1      -8.908 -27.680 -18.509  1.00  0.00     0.169 HD
HETATM    9  C7  UNL     1      -9.489 -28.589 -20.237  1.00  0.00     0.228 A
HETATM   10  N5  UNL     1      -9.351 -29.662 -21.019  1.00  0.00    -0.306 N
ATOM     11  H5  UNL     1      -9.874 -29.740 -21.891  1.00  0.00     0.171 HD
HETATM   12  C12 UNL     1      -8.501 -30.647 -20.630  1.00  0.00     0.132 A
HETATM   13  N6  UNL     1      -8.411 -31.646 -21.419  1.00  0.00    -0.383 N
ATOM     14  H61 UNL     1      -7.773 -32.387 -21.126  1.00  0.00     0.157 HD
ATOM     15  H62 UNL     1      -8.949 -31.694 -22.284  1.00  0.00     0.157 HD
HETATM   16  C13 UNL     1      -7.781 -30.584 -19.472  1.00  0.00     0.125 A
HETATM   17  N7  UNL     1      -6.942 -31.513 -19.047  1.00  0.00    -0.186 N
ATOM     18  H7  UNL     1      -6.811 -32.348 -19.618  1.00  0.00     0.184 HD
ENDROOT
BRANCH   9  19
HETATM   19  O2  UNL     1     -10.321 -27.532 -20.531  1.00  0.00    -0.290 OA
BRANCH  19  20
HETATM   20  C8  UNL     1     -10.823 -26.581 -19.626  1.00  0.00     0.273 C
HETATM   21  C9  UNL     1     -12.323 -26.882 -19.494  1.00  0.00     0.089 C
HETATM   22  C10 UNL     1     -12.825 -27.152 -20.901  1.00  0.00     0.239 C
HETATM   23  N4  UNL     1     -12.346 -26.111 -21.780  1.00  0.00    -0.054 N
HETATM   24  C11 UNL     1     -11.826 -25.008 -21.003  1.00  0.00     0.402 C
ATOM     25  H42 UNL     1     -11.662 -26.462 -22.451  1.00  0.00     0.279 HD
ATOM     26  H41 UNL     1     -13.061 -25.810 -22.441  1.00  0.00     0.279 HD
HETATM   27  O3  UNL     1     -10.719 -25.329 -20.252  1.00  0.00    -0.334 OA
ENDBRANCH  19  20
ENDBRANCH   9  19
BRANCH   1  28
HETATM   28  N1  UNL     1      -5.482 -32.356 -17.597  1.00  0.00    -0.199 N
ATOM     29  H1  UNL     1      -5.707 -33.229 -18.074  1.00  0.00     0.180 HD
BRANCH  28  30
HETATM   30  C3  UNL     1      -4.358 -32.452 -16.725  1.00  0.00     0.236 C
BRANCH  30  31
HETATM   31  C2  UNL     1      -4.708 -33.018 -15.360  1.00  0.00     0.050 C
HETATM   32  C1  UNL     1      -3.618 -33.925 -14.841  1.00  0.00     0.009 C
ENDBRANCH  30  31
BRANCH  30  33
HETATM   33  O4  UNL     1      -3.775 -31.200 -16.592  1.00  0.00    -0.371 OA
HETATM   34  C14 UNL     1      -2.566 -31.086 -17.257  1.00  0.00     0.204 C
ENDBRANCH  30  33
ENDBRANCH  28  30
ENDBRANCH   1  28
TORSDOF 6
ENDMDL