MODEL 4
REMARK VINA RESULT: -8.382996312      1.100      1.158
REMARK  7 active torsions:
REMARK  status: ('A' for Active; 'I' for Inactive)
REMARK    1  A    between atoms: C2_2  and  N1_3
REMARK    2  A    between atoms: N1_3  and  C3_5
REMARK    3  A    between atoms: C4_8  and  C5_9
REMARK    4  A    between atoms: C5_9  and  C6_10
REMARK    5  A    between atoms: C6_10  and  N3_11
REMARK    6  A    between atoms: N3_11  and  C7_13
REMARK    7  A    between atoms: C8_16  and  N5_17
ROOT
HETATM    1  N3  UNL     1      -8.355 -28.530 -18.810  1.00  0.00    -0.226 N
ATOM      2  H3  UNL     1      -7.521 -28.652 -19.385  1.00  0.00     0.177 HD
ENDROOT
BRANCH   1   3
HETATM    3  C6  UNL     1      -8.279 -28.648 -17.380  1.00  0.00     0.145 C
BRANCH   3   4
HETATM    4  C5  UNL     1      -6.902 -28.181 -16.956  1.00  0.00     0.097 C
BRANCH   4   5
HETATM    5  C4  UNL     1      -5.951 -29.315 -17.104  1.00  0.00     0.102 A
HETATM    6  N2  UNL     1      -5.998 -30.365 -16.282  1.00  0.00    -0.180 N
HETATM    7  C3  UNL     1      -5.159 -31.420 -16.373  1.00  0.00     0.683 A
ATOM      8  H2  UNL     1      -6.705 -30.373 -15.546  1.00  0.00     0.185 HD
HETATM    9  N9  UNL     1      -4.242 -31.363 -17.364  1.00  0.00    -0.141 N
HETATM   10  C13 UNL     1      -4.154 -30.336 -18.211  1.00  0.00     0.339 A
ATOM     11  H9  UNL     1      -3.589 -32.139 -17.469  1.00  0.00     0.189 HD
HETATM   12  N8  UNL     1      -5.017 -29.314 -18.071  1.00  0.00    -0.297 N
HETATM   13  O1  UNL     1      -3.279 -30.310 -19.136  1.00  0.00    -0.246 OA
ATOM     14  H8  UNL     1      -4.962 -28.522 -18.712  1.00  0.00     0.172 HD
BRANCH   7  15
HETATM   15  N1  UNL     1      -5.221 -32.432 -15.562  1.00  0.00    -0.226 N
ATOM     16  H1  UNL     1      -5.880 -32.440 -14.784  1.00  0.00     0.177 HD
BRANCH  15  17
HETATM   17  C2  UNL     1      -4.335 -33.545 -15.793  1.00  0.00     0.133 C
HETATM   18  C1  UNL     1      -3.644 -33.946 -14.498  1.00  0.00     0.027 C
ENDBRANCH  15  17
ENDBRANCH   7  15
ENDBRANCH   4   5
ENDBRANCH   3   4
ENDBRANCH   1   3
BRANCH   1  19
HETATM   19  C7  UNL     1      -9.515 -28.262 -19.364  1.00  0.00     0.681 A
HETATM   20  N4  UNL     1      -9.653 -27.035 -19.901  1.00  0.00    -0.176 N
HETATM   21  C8  UNL     1     -10.846 -26.774 -20.466  1.00  0.00     0.135 A
ATOM     22  H4  UNL     1      -8.901 -26.347 -19.880  1.00  0.00     0.186 HD
HETATM   23  C9  UNL     1     -11.858 -27.746 -20.474  1.00  0.00     0.095 A
HETATM   24  S1  UNL     1     -13.469 -27.856 -21.054  1.00  0.00    -0.070 SA
HETATM   25  C12 UNL     1     -11.684 -28.986 -19.918  1.00  0.00     0.142 A
HETATM   26  C10 UNL     1     -13.810 -29.455 -20.556  1.00  0.00     0.049 A
HETATM   27  C11 UNL     1     -15.041 -30.291 -20.703  1.00  0.00     0.076 C
HETATM   28  N6  UNL     1     -12.683 -29.816 -19.978  1.00  0.00    -0.339 N
ATOM     29  H6  UNL     1     -12.593 -30.749 -19.576  1.00  0.00     0.168 HD
HETATM   30  N7  UNL     1     -10.450 -29.201 -19.356  1.00  0.00    -0.175 N
ATOM     31  H7  UNL     1     -10.248 -30.103 -18.923  1.00  0.00     0.186 HD
BRANCH  21  32
HETATM   32  N5  UNL     1     -11.144 -25.658 -21.021  1.00  0.00    -0.384 N
ATOM     33  H52 UNL     1     -10.399 -24.962 -21.042  1.00  0.00     0.157 HD
ATOM     34  H51 UNL     1     -12.057 -25.450 -21.425  1.00  0.00     0.157 HD
ENDBRANCH  21  32
ENDBRANCH   1  19
TORSDOF 7
ENDMDL