MODEL 5
REMARK VINA RESULT: -8.816478134      2.273      2.572
REMARK  5 active torsions:
REMARK  status: ('A' for Active; 'I' for Inactive)
REMARK    1  A    between atoms: C3_3  and  N1_4
REMARK    2  A    between atoms: C7_13  and  C8_14
REMARK    3  A    between atoms: C8_14  and  C9_15
REMARK    4  A    between atoms: C9_15  and  C10_16
REMARK    5  A    between atoms: C13_23  and  N6_24
ROOT
HETATM    1  C1  UNL     1      -3.529 -33.924 -14.852  1.00  0.00     0.014 C
HETATM    2  C2  UNL     1      -4.367 -33.174 -15.299  1.00  0.00    -0.097 C
HETATM    3  C3  UNL     1      -5.374 -32.268 -15.862  1.00  0.00     0.224 C
ENDROOT
BRANCH   3   4
HETATM    4  N1  UNL     1      -4.801 -31.469 -16.924  1.00  0.00    -0.316 N
HETATM    5  C4  UNL     1      -3.515 -31.219 -17.155  1.00  0.00     0.186 A
HETATM    6  N2  UNL     1      -3.381 -30.425 -18.251  1.00  0.00    -0.345 N
HETATM    7  C5  UNL     1      -4.602 -30.170 -18.718  1.00  0.00     0.146 A
ATOM      8  H2  UNL     1      -2.503 -30.086 -18.646  1.00  0.00     0.167 HD
HETATM    9  C6  UNL     1      -5.053 -29.422 -19.802  1.00  0.00     0.277 A
HETATM   10  C16 UNL     1      -5.498 -30.826 -17.884  1.00  0.00     0.143 A
HETATM   11  O1  UNL     1      -4.218 -28.844 -20.533  1.00  0.00    -0.266 OA
HETATM   12  N3  UNL     1      -6.385 -29.376 -19.987  1.00  0.00    -0.311 N
HETATM   13  C7  UNL     1      -7.261 -30.006 -19.189  1.00  0.00     0.085 A
ATOM     14  H3  UNL     1      -6.746 -28.835 -20.773  1.00  0.00     0.170 HD
HETATM   15  N10 UNL     1      -6.812 -30.723 -18.148  1.00  0.00    -0.330 N
ATOM     16  H10 UNL     1      -7.482 -31.199 -17.543  1.00  0.00     0.168 HD
BRANCH  13  17
HETATM   17  C8  UNL     1      -8.705 -29.867 -19.513  1.00  0.00     0.083 C
BRANCH  17  18
HETATM   18  C9  UNL     1      -9.126 -28.484 -19.061  1.00  0.00     0.066 C
BRANCH  18  19
HETATM   19  C10 UNL     1      -9.938 -27.784 -20.096  1.00  0.00     0.025 A
HETATM   20  C11 UNL     1     -10.613 -26.614 -19.809  1.00  0.00     0.114 A
HETATM   21  N4  UNL     1     -11.351 -25.971 -20.735  1.00  0.00    -0.348 N
HETATM   22  C12 UNL     1     -11.466 -26.442 -21.990  1.00  0.00     0.151 A
ATOM     23  H4  UNL     1     -11.832 -25.109 -20.479  1.00  0.00     0.167 HD
HETATM   24  N5  UNL     1     -12.201 -25.813 -22.934  1.00  0.00    -0.174 N
HETATM   25  C15 UNL     1     -10.795 -27.611 -22.283  1.00  0.00     0.122 A
HETATM   26  C13 UNL     1     -12.318 -26.282 -24.188  1.00  0.00     0.679 A
ATOM     27  H5  UNL     1     -12.685 -24.951 -22.685  1.00  0.00     0.186 HD
HETATM   28  N7  UNL     1     -11.666 -27.422 -24.480  1.00  0.00    -0.175 N
HETATM   29  C14 UNL     1     -10.923 -28.083 -23.575  1.00  0.00     0.145 A
ATOM     30  H7  UNL     1     -11.739 -27.800 -25.425  1.00  0.00     0.186 HD
HETATM   31  N8  UNL     1     -10.311 -29.175 -23.888  1.00  0.00    -0.383 N
ATOM     32  H82 UNL     1     -10.405 -29.524 -24.842  1.00  0.00     0.157 HD
ATOM     33  H81 UNL     1      -9.747 -29.676 -23.202  1.00  0.00     0.157 HD
HETATM   34  N9  UNL     1     -10.058 -28.250 -21.354  1.00  0.00    -0.352 N
ATOM     35  H9  UNL     1      -9.577 -29.112 -21.611  1.00  0.00     0.166 HD
BRANCH  26  36
HETATM   36  N6  UNL     1     -13.029 -25.666 -25.088  1.00  0.00    -0.234 N
ATOM     37  H62 UNL     1     -13.380 -24.722 -24.925  1.00  0.00     0.174 HD
ATOM     38  H61 UNL     1     -13.259 -26.101 -25.981  1.00  0.00     0.174 HD
ENDBRANCH  26  36
ENDBRANCH  18  19
ENDBRANCH  17  18
ENDBRANCH  13  17
ENDBRANCH   3   4
TORSDOF 5
ENDMDL