MODEL 2
REMARK VINA RESULT: -7.234296458      0.787      1.013
REMARK  7 active torsions:
REMARK  status: ('A' for Active; 'I' for Inactive)
REMARK    1  A    between atoms: N1_2  and  C3_4
REMARK    2  A    between atoms: C3_4  and  C4_5
REMARK    3  A    between atoms: C4_5  and  N2_6
REMARK    4  A    between atoms: N2_6  and  C5_8
REMARK    5  A    between atoms: C6_12  and  C7_13
REMARK    6  A    between atoms: C12_27  and  N8_28
REMARK    7  A    between atoms: C13_31  and  O2_32
ROOT
HETATM    1  C7  UNL     1      -7.770 -29.867 -19.273  1.00  0.00     0.107 A
HETATM    2  N4  UNL     1      -6.628 -29.492 -18.624  1.00  0.00    -0.344 N
ATOM      3  H4  UNL     1      -6.396 -28.499 -18.601  1.00  0.00     0.166 HD
HETATM    4  C8  UNL     1      -5.798 -30.340 -18.020  1.00  0.00     0.146 A
HETATM    5  C9  UNL     1      -4.648 -29.922 -17.370  1.00  0.00     0.277 A
HETATM    6  O1  UNL     1      -4.361 -28.697 -17.340  1.00  0.00    -0.266 OA
HETATM    7  N5  UNL     1      -3.850 -30.822 -16.778  1.00  0.00    -0.318 N
ATOM      8  H5  UNL     1      -3.000 -30.531 -16.295  1.00  0.00     0.169 HD
HETATM    9  C10 UNL     1      -4.200 -32.117 -16.838  1.00  0.00     0.185 A
HETATM   10  N6  UNL     1      -5.309 -32.546 -17.462  1.00  0.00    -0.336 N
ATOM     11  H6  UNL     1      -5.525 -33.543 -17.476  1.00  0.00     0.168 HD
HETATM   12  C11 UNL     1      -6.142 -31.676 -18.072  1.00  0.00     0.140 A
HETATM   13  N7  UNL     1      -7.236 -32.121 -18.684  1.00  0.00    -0.325 N
ATOM     14  H7  UNL     1      -7.463 -33.115 -18.704  1.00  0.00     0.169 HD
HETATM   15  C12 UNL     1      -8.054 -31.192 -19.290  1.00  0.00     0.130 A
ENDROOT
BRANCH   1  16
HETATM   16  C6  UNL     1      -8.622 -28.822 -19.930  1.00  0.00     0.105 A
HETATM   17  N3  UNL     1      -8.509 -28.459 -21.199  1.00  0.00    -0.320 N
HETATM   18  S1  UNL     1      -9.698 -27.247 -21.395  1.00  0.00     0.007 SA
ATOM     19  H3  UNL     1      -7.862 -28.821 -21.899  1.00  0.00     0.174 HD
HETATM   20  C5  UNL     1     -10.317 -27.235 -19.828  1.00  0.00     0.122 A
HETATM   21  C13 UNL     1      -9.577 -28.179 -19.193  1.00  0.00     0.130 A
BRANCH  20  22
HETATM   22  N2  UNL     1     -11.274 -26.490 -19.344  1.00  0.00    -0.379 N
ATOM     23  H2  UNL     1     -11.105 -25.830 -18.585  1.00  0.00     0.160 HD
BRANCH  22  24
HETATM   24  C4  UNL     1     -12.593 -26.646 -19.939  1.00  0.00     0.150 C
BRANCH  24  25
HETATM   25  C3  UNL     1     -13.293 -27.861 -19.382  1.00  0.00     0.290 C
BRANCH  25  26
HETATM   26  N1  UNL     1     -13.555 -28.831 -20.428  1.00  0.00     0.081 N
HETATM   27  C1  UNL     1     -13.459 -28.228 -21.735  1.00  0.00     0.309 C
HETATM   28  C2  UNL     1     -12.704 -29.989 -20.285  1.00  0.00     0.309 C
ENDBRANCH  25  26
ENDBRANCH  24  25
ENDBRANCH  22  24
ENDBRANCH  20  22
BRANCH  21  29
HETATM   29  O2  UNL     1      -9.847 -28.432 -17.815  1.00  0.00    -0.356 OA
ATOM     30  H2  UNL     1      -9.110 -28.505 -17.220  1.00  0.00     0.218 HD
ENDBRANCH  21  29
ENDBRANCH   1  16
BRANCH  15  31
HETATM   31  N8  UNL     1      -9.118 -31.641 -19.863  1.00  0.00    -0.384 N
ATOM     32  H82 UNL     1      -9.308 -31.304 -20.807  1.00  0.00     0.157 HD
ATOM     33  H81 UNL     1      -9.729 -32.311 -19.396  1.00  0.00     0.157 HD
ENDBRANCH  15  31
TORSDOF 7
ENDMDL