MODEL 4
REMARK VINA RESULT: -7.469311763      1.368      1.748
REMARK  6 active torsions:
REMARK  status: ('A' for Active; 'I' for Inactive)
REMARK    1  A    between atoms: N1_1  and  C1_4
REMARK    2  A    between atoms: C4_12  and  N4_13
REMARK    3  A    between atoms: C8_17  and  C9_18
REMARK    4  A    between atoms: C9_18  and  O2_19
REMARK    5  A    between atoms: O2_19  and  S1_20
REMARK    6  A    between atoms: S1_20  and  N5_21
ROOT
HETATM    1  C1  UNL     1     -15.658 -27.994 -20.227  1.00  0.00     0.144 A
HETATM    2  N2  UNL     1     -14.786 -27.007 -20.408  1.00  0.00    -0.330 N
ATOM      3  H2  UNL     1     -15.100 -26.075 -20.680  1.00  0.00     0.168 HD
HETATM    4  C2  UNL     1     -13.503 -27.261 -20.228  1.00  0.00     0.138 A
HETATM    5  C3  UNL     1     -12.423 -26.360 -20.369  1.00  0.00     0.289 A
HETATM    6  O1  UNL     1     -12.614 -25.151 -20.700  1.00  0.00    -0.265 OA
HETATM    7  N3  UNL     1     -11.186 -26.805 -20.143  1.00  0.00    -0.153 N
ATOM      8  H3  UNL     1     -10.429 -26.131 -20.254  1.00  0.00     0.187 HD
HETATM    9  C4  UNL     1     -10.839 -28.042 -19.788  1.00  0.00     0.700 A
HETATM   10  N7  UNL     1     -11.853 -28.913 -19.650  1.00  0.00    -0.181 N
ATOM     11  H7  UNL     1     -11.653 -29.876 -19.380  1.00  0.00     0.185 HD
HETATM   12  C10 UNL     1     -13.152 -28.528 -19.866  1.00  0.00     0.126 A
HETATM   13  S2  UNL     1     -14.674 -29.314 -19.795  1.00  0.00    -0.034 SA
ENDROOT
BRANCH   9  14
HETATM   14  N4  UNL     1      -9.487 -28.434 -19.552  1.00  0.00    -0.127 N
HETATM   15  C5  UNL     1      -8.570 -28.646 -20.681  1.00  0.00     0.164 C
HETATM   16  C6  UNL     1      -8.169 -30.098 -20.693  1.00  0.00     0.024 C
HETATM   17  C7  UNL     1      -7.961 -30.557 -19.268  1.00  0.00     0.027 C
HETATM   18  C8  UNL     1      -7.696 -29.318 -18.451  1.00  0.00     0.125 C
HETATM   19  N6  UNL     1      -8.951 -28.629 -18.269  1.00  0.00    -0.117 NA
BRANCH  18  20
HETATM   20  C9  UNL     1      -7.078 -29.593 -17.110  1.00  0.00     0.215 C
BRANCH  20  21
HETATM   21  O2  UNL     1      -5.704 -29.386 -17.203  1.00  0.00    -0.258 OA
BRANCH  21  22
HETATM   22  S1  UNL     1      -4.863 -30.794 -16.818  1.00  0.00     0.355 S
HETATM   23  O3  UNL     1      -3.394 -30.577 -16.738  1.00  0.00    -0.176 OA
HETATM   24  O4  UNL     1      -5.436 -31.312 -15.519  1.00  0.00    -0.176 OA
BRANCH  22  25
HETATM   25  N5  UNL     1      -5.193 -31.960 -18.030  1.00  0.00    -0.306 N
ATOM     26  H52 UNL     1      -4.494 -32.395 -18.632  1.00  0.00     0.171 HD
ATOM     27  H51 UNL     1      -6.198 -32.135 -18.038  1.00  0.00     0.171 HD
ENDBRANCH  22  25
ENDBRANCH  21  22
ENDBRANCH  20  21
ENDBRANCH  18  20
ENDBRANCH   9  14
BRANCH   1  28
HETATM   28  N1  UNL     1     -16.968 -27.960 -20.349  1.00  0.00    -0.380 N
ATOM     29  H12 UNL     1     -17.663 -28.510 -19.845  1.00  0.00     0.158 HD
ATOM     30  H11 UNL     1     -17.531 -27.377 -20.968  1.00  0.00     0.158 HD
ENDBRANCH   1  28
TORSDOF 6
ENDMDL