MODEL 3
REMARK VINA RESULT: -7.249649524      2.342      7.951
REMARK  7 active torsions:
REMARK  status: ('A' for Active; 'I' for Inactive)
REMARK    1  A    between atoms: C2_2  and  O1_3
REMARK    2  A    between atoms: O1_3  and  C3_4
REMARK    3  A    between atoms: C3_4  and  C12_29
REMARK    4  A    between atoms: N1_5  and  N2_7
REMARK    5  A    between atoms: N2_7  and  C4_9
REMARK    6  A    between atoms: C5_12  and  N4_13
REMARK    7  A    between atoms: C10_23  and  N7_24
ROOT
HETATM    1  C4  UNL     1     -10.027 -28.243 -19.012  1.00  0.00     0.726 A
HETATM    2  N3  UNL     1     -11.274 -28.565 -19.362  1.00  0.00    -0.020 N
ATOM      3  H3  UNL     1     -11.824 -29.138 -18.723  1.00  0.00     0.203 HD
HETATM    4  C5  UNL     1     -11.838 -28.172 -20.510  1.00  0.00     0.709 A
HETATM    5  N6  UNL     1     -11.064 -27.420 -21.312  1.00  0.00    -0.021 N
ATOM      6  H6  UNL     1     -11.449 -27.095 -22.199  1.00  0.00     0.203 HD
HETATM    7  C10 UNL     1      -9.801 -27.077 -20.992  1.00  0.00     0.706 A
HETATM    8  N8  UNL     1      -9.289 -27.495 -19.835  1.00  0.00    -0.020 N
ATOM      9  H8  UNL     1      -8.335 -27.244 -19.578  1.00  0.00     0.203 HD
ENDROOT
BRANCH   1  10
HETATM   10  N2  UNL     1      -9.593 -28.661 -17.864  1.00  0.00    -0.129 N
ATOM     11  H2  UNL     1     -10.298 -28.846 -17.150  1.00  0.00     0.205 HD
BRANCH  10  12
HETATM   12  N1  UNL     1      -8.332 -28.872 -17.519  1.00  0.00    -0.267 N
HETATM   13  C3  UNL     1      -7.442 -29.722 -17.484  1.00  0.00     0.164 C
ATOM     14  H1  UNL     1      -7.956 -28.003 -17.142  1.00  0.00     0.189 HD
BRANCH  13  15
HETATM   15  O1  UNL     1      -7.620 -31.008 -17.923  1.00  0.00    -0.337 OA
BRANCH  15  16
HETATM   16  C2  UNL     1      -7.580 -31.444 -19.242  1.00  0.00     0.172 C
HETATM   17  C1  UNL     1      -8.611 -32.597 -19.300  1.00  0.00     0.034 C
ENDBRANCH  15  16
ENDBRANCH  13  15
BRANCH  13  18
HETATM   18  C12 UNL     1      -6.066 -29.407 -16.945  1.00  0.00     0.261 C
HETATM   19  C13 UNL     1      -5.434 -30.674 -16.413  1.00  0.00     0.043 C
HETATM   20  C14 UNL     1      -4.008 -30.668 -16.922  1.00  0.00     0.030 C
HETATM   21  C15 UNL     1      -3.875 -29.238 -17.407  1.00  0.00     0.233 C
HETATM   22  N9  UNL     1      -5.188 -28.946 -17.970  1.00  0.00    -0.064 N
ATOM     23  H92 UNL     1      -5.359 -29.343 -18.894  1.00  0.00     0.278 HD
ATOM     24  H91 UNL     1      -5.328 -27.976 -18.253  1.00  0.00     0.278 HD
ENDBRANCH  13  18
ENDBRANCH  10  12
ENDBRANCH   1  10
BRANCH   4  25
HETATM   25  N4  UNL     1     -13.168 -28.563 -20.814  1.00  0.00    -0.213 N
HETATM   26  C6  UNL     1     -13.676 -29.828 -20.296  1.00  0.00     0.168 C
HETATM   27  C7  UNL     1     -14.939 -29.535 -19.526  1.00  0.00     0.252 C
HETATM   28  N5  UNL     1     -15.848 -28.841 -20.438  1.00  0.00    -0.072 N
HETATM   29  C8  UNL     1     -15.318 -27.523 -20.773  1.00  0.00     0.252 C
ATOM     30  H52 UNL     1     -16.046 -29.394 -21.271  1.00  0.00     0.277 HD
ATOM     31  H51 UNL     1     -16.795 -28.787 -20.063  1.00  0.00     0.277 HD
HETATM   32  C9  UNL     1     -14.069 -27.780 -21.620  1.00  0.00     0.168 C
ENDBRANCH   4  25
BRANCH   7  33
HETATM   33  N7  UNL     1      -9.136 -26.367 -21.807  1.00  0.00    -0.229 N
HETATM   34  C11 UNL     1      -8.766 -26.620 -23.149  1.00  0.00     0.165 C
ATOM     35  H7  UNL     1      -8.817 -25.472 -21.435  1.00  0.00     0.177 HD
ENDBRANCH   7  33
TORSDOF 7
ENDMDL