MODEL 3
REMARK VINA RESULT: -6.765377231      5.896      8.208
REMARK  8 active torsions:
REMARK  status: ('A' for Active; 'I' for Inactive)
REMARK    1  A    between atoms: C3_4  and  N2_5
REMARK    2  A    between atoms: N2_5  and  C4_7
REMARK    3  A    between atoms: C4_7  and  C5_8
REMARK    4  A    between atoms: C4_7  and  C7_18
REMARK    5  A    between atoms: C5_8  and  C6_9
REMARK    6  A    between atoms: C9_22  and  O1_23
REMARK    7  A    between atoms: N8_25  and  C10_26
REMARK    8  A    between atoms: C14_32  and  N10_33
ROOT
HETATM    1  C4  UNL     1      -5.134 -29.193 -21.704  1.00  0.00     0.158 C
ENDROOT
BRANCH   1   2
HETATM    2  N2  UNL     1      -4.924 -28.985 -20.363  1.00  0.00    -0.363 N
ATOM      3  H2  UNL     1      -4.348 -28.144 -20.310  1.00  0.00     0.162 HD
BRANCH   2   4
HETATM    4  C3  UNL     1      -5.098 -29.327 -19.204  1.00  0.00     0.134 A
HETATM    5  C2  UNL     1      -4.192 -30.241 -18.600  1.00  0.00     0.158 A
HETATM    6  N1  UNL     1      -4.344 -30.642 -17.338  1.00  0.00    -0.290 N
HETATM    7  C1  UNL     1      -3.410 -31.585 -16.716  1.00  0.00     0.177 C
HETATM    8  N11 UNL     1      -5.342 -30.197 -16.620  1.00  0.00    -0.131 N
HETATM    9  C14 UNL     1      -6.208 -29.333 -17.176  1.00  0.00     0.692 A
ATOM     10  H11 UNL     1      -5.460 -30.501 -15.653  1.00  0.00     0.205 HD
HETATM   11  N9  UNL     1      -6.110 -28.891 -18.440  1.00  0.00    -0.175 N
ATOM     12  H9  UNL     1      -6.795 -28.234 -18.814  1.00  0.00     0.186 HD
BRANCH   9  13
HETATM   13  N10 UNL     1      -7.198 -28.902 -16.439  1.00  0.00    -0.233 N
ATOM     14 2H10 UNL     1      -7.502 -29.488 -15.660  1.00  0.00     0.174 HD
ATOM     15 1H10 UNL     1      -7.621 -28.002 -16.669  1.00  0.00     0.174 HD
ENDBRANCH   9  13
ENDBRANCH   2   4
ENDBRANCH   1   2
BRANCH   1  16
HETATM   16  C5  UNL     1      -6.064 -30.382 -21.938  1.00  0.00     0.112 C
BRANCH  16  17
HETATM   17  C6  UNL     1      -5.346 -31.570 -22.434  1.00  0.00     0.115 A
HETATM   18  N3  UNL     1      -4.031 -31.676 -22.561  1.00  0.00    -0.272 N
HETATM   19  N4  UNL     1      -3.712 -32.866 -23.031  1.00  0.00    -0.227 N
ATOM     20  H3  UNL     1      -3.361 -30.943 -22.330  1.00  0.00     0.190 HD
HETATM   21  N5  UNL     1      -4.840 -33.504 -23.196  1.00  0.00    -0.227 N
ATOM     22  H4  UNL     1      -2.775 -33.218 -23.226  1.00  0.00     0.210 HD
HETATM   23  N6  UNL     1      -5.865 -32.747 -22.843  1.00  0.00    -0.272 N
ATOM     24  H5  UNL     1      -4.920 -34.457 -23.550  1.00  0.00     0.210 HD
ATOM     25  H6  UNL     1      -6.852 -33.002 -22.874  1.00  0.00     0.190 HD
ENDBRANCH  16  17
ENDBRANCH   1  16
BRANCH   1  26
HETATM   26  C7  UNL     1      -5.832 -28.022 -22.311  1.00  0.00     0.109 A
HETATM   27  N7  UNL     1      -7.146 -27.884 -22.248  1.00  0.00    -0.350 N
HETATM   28  C8  UNL     1      -7.538 -26.766 -22.844  1.00  0.00     0.145 A
ATOM     29  H7  UNL     1      -7.776 -28.550 -21.800  1.00  0.00     0.166 HD
HETATM   30  C9  UNL     1      -6.351 -26.182 -23.303  1.00  0.00     0.160 A
HETATM   31  N8  UNL     1      -5.328 -26.970 -22.963  1.00  0.00    -0.305 N
BRANCH  30  32
HETATM   32  O1  UNL     1      -6.363 -24.955 -24.002  1.00  0.00    -0.345 OA
ATOM     33  H1  UNL     1      -5.653 -24.331 -23.909  1.00  0.00     0.219 HD
ENDBRANCH  30  32
BRANCH  31  34
HETATM   34  C10 UNL     1      -3.941 -26.731 -23.228  1.00  0.00     0.030 C
HETATM   35  C11 UNL     1      -3.738 -25.605 -24.232  1.00  0.00     0.038 C
HETATM   36  C12 UNL     1      -3.338 -27.963 -23.862  1.00  0.00     0.038 C
HETATM   37  C13 UNL     1      -3.095 -26.425 -22.023  1.00  0.00     0.038 C
ENDBRANCH  31  34
ENDBRANCH   1  26
TORSDOF 8
ENDMDL