MODEL 3
REMARK VINA RESULT: -7.653519472      1.817      2.259
REMARK  4 active torsions:
REMARK  status: ('A' for Active; 'I' for Inactive)
REMARK    1  A    between atoms: C4_9  and  S1_10
REMARK    2  A    between atoms: S1_10  and  C5_11
REMARK    3  A    between atoms: C5_11  and  C6_12
REMARK    4  A    between atoms: C6_12  and  N3_13
ROOT
HETATM    1  N3  UNL     1      61.871  12.229  53.643  1.00  0.00    -0.325 N
HETATM    2  C7  UNL     1      61.510  11.117  52.800  1.00  0.00     0.147 C
HETATM    3  C8  UNL     1      61.059  11.469  51.432  1.00  0.00     0.138 C
HETATM    4  N4  UNL     1      61.781  12.527  50.839  1.00  0.00    -0.399 N
ATOM      5  H4  UNL     1      62.497  13.037  51.358  1.00  0.00     0.158 HD
HETATM    6  C9  UNL     1      61.478  12.851  49.508  1.00  0.00     0.082 C
HETATM    7  C10 UNL     1      60.016  13.053  49.212  1.00  0.00     0.276 C
HETATM    8  N5  UNL     1      59.487  14.257  49.791  1.00  0.00    -0.071 N
ATOM      9  H51 UNL     1      59.407  14.989  49.085  1.00  0.00     0.277 HD
ATOM     10  H52 UNL     1      60.173  14.690  50.408  1.00  0.00     0.277 HD
HETATM   11  C11 UNL     1      58.232  14.070  50.476  1.00  0.00     0.234 C
HETATM   12  C12 UNL     1      58.266  14.680  51.875  1.00  0.00     0.046 C
HETATM   13  C13 UNL     1      57.849  13.708  52.932  1.00  0.00     0.145 C
HETATM   14  N6  UNL     1      58.943  13.262  53.773  1.00  0.00    -0.090 NA
HETATM   15  O1  UNL     1      60.069  13.902  53.413  1.00  0.00    -0.189 OA
HETATM   16  C14 UNL     1      61.380  13.548  53.518  1.00  0.00     0.381 C
HETATM   17  O2  UNL     1      62.289  14.467  53.505  1.00  0.00    -0.237 OA
ENDROOT
BRANCH   1  18
HETATM   18  C6  UNL     1      62.818  11.937  54.700  1.00  0.00     0.138 C
BRANCH  18  19
HETATM   19  C5  UNL     1      63.957  11.068  54.324  1.00  0.00     0.102 C
BRANCH  19  20
HETATM   20  S1  UNL     1      65.549  11.534  54.950  1.00  0.00    -0.092 SA
BRANCH  20  21
HETATM   21  C4  UNL     1      65.990  13.232  54.692  1.00  0.00     0.145 A
HETATM   22  N2  UNL     1      66.908  13.897  55.395  1.00  0.00    -0.347 N
HETATM   23  C3  UNL     1      67.220  15.183  55.161  1.00  0.00     0.094 A
ATOM     24  H2  UNL     1      67.395  13.407  56.145  1.00  0.00     0.167 HD
HETATM   25  C2  UNL     1      66.569  15.855  54.149  1.00  0.00     0.065 A
HETATM   26  C1  UNL     1      65.621  15.171  53.420  1.00  0.00     0.101 A
HETATM   27  N1  UNL     1      65.013  15.823  52.464  1.00  0.00    -0.385 N
HETATM   28  N7  UNL     1      65.338  13.887  53.686  1.00  0.00    -0.323 N
ATOM     29  H12 UNL     1      65.227  16.799  52.262  1.00  0.00     0.157 HD
ATOM     30  H11 UNL     1      64.311  15.316  51.924  1.00  0.00     0.157 HD
ATOM     31  H7  UNL     1      64.633  13.397  53.136  1.00  0.00     0.169 HD
ENDBRANCH  20  21
ENDBRANCH  19  20
ENDBRANCH  18  19
ENDBRANCH   1  18
TORSDOF 4
ENDMDL