MODEL 4
REMARK VINA RESULT: -6.138047892      5.338      7.627
REMARK  9 active torsions:
REMARK  status: ('A' for Active; 'I' for Inactive)
REMARK    1  A    between atoms: C2_2  and  N1_3
REMARK    2  A    between atoms: C3_4  and  C4_5
REMARK    3  A    between atoms: C4_5  and  O1_6
REMARK    4  A    between atoms: C9_13  and  N3_14
REMARK    5  A    between atoms: N3_14  and  N4_16
REMARK    6  A    between atoms: C10_21  and  N6_22
REMARK    7  A    between atoms: C13_25  and  N7_26
REMARK    8  A    between atoms: C13_25  and  C14_30
REMARK    9  A    between atoms: C14_30  and  O2_31
ROOT
HETATM    1  N1  UNL     1      61.534  13.079  55.491  1.00  0.00    -0.345 N
HETATM    2  C3  UNL     1      61.665  13.537  56.779  1.00  0.00     0.036 A
HETATM    3  C5  UNL     1      62.747  14.368  56.829  1.00  0.00     0.043 A
HETATM    4  C6  UNL     1      63.300  14.434  55.574  1.00  0.00     0.021 A
HETATM    5  C7  UNL     1      64.396  15.106  55.049  1.00  0.00     0.102 A
HETATM    6  C8  UNL     1      65.167  15.938  55.924  1.00  0.00     0.104 C
HETATM    7  N2  UNL     1      65.782  16.614  56.662  1.00  0.00    -0.191 NA
HETATM    8  C9  UNL     1      64.715  14.961  53.720  1.00  0.00     0.143 A
HETATM    9  N5  UNL     1      63.944  14.168  52.983  1.00  0.00    -0.325 N
ATOM     10  H5  UNL     1      64.186  14.065  51.998  1.00  0.00     0.169 HD
HETATM   11  C10 UNL     1      62.848  13.476  53.440  1.00  0.00     0.133 A
HETATM   12  C16 UNL     1      62.510  13.606  54.752  1.00  0.00     0.091 A
ENDROOT
BRANCH   8  13
HETATM   13  N3  UNL     1      65.709  15.558  53.198  1.00  0.00    -0.291 N
ATOM     14  H3  UNL     1      65.493  16.484  52.828  1.00  0.00     0.188 HD
BRANCH  13  15
HETATM   15  N4  UNL     1      67.002  15.187  53.044  1.00  0.00    -0.344 N
ATOM     16  H42 UNL     1      67.151  14.190  53.202  1.00  0.00     0.176 HD
ATOM     17  H41 UNL     1      67.836  15.720  52.801  1.00  0.00     0.176 HD
ENDBRANCH  13  15
ENDBRANCH   8  13
BRANCH   2  18
HETATM   18  C4  UNL     1      60.758  13.163  57.893  1.00  0.00     0.221 C
BRANCH  18  19
HETATM   19  O1  UNL     1      61.449  12.980  59.094  1.00  0.00    -0.395 OA
ATOM     20  H1  UNL     1      61.172  12.194  59.550  1.00  0.00     0.209 HD
ENDBRANCH  18  19
ENDBRANCH   2  18
BRANCH   1  21
HETATM   21  C2  UNL     1      60.479  12.187  55.139  1.00  0.00     0.125 C
HETATM   22  C1  UNL     1      59.249  12.948  54.643  1.00  0.00     0.027 C
ENDBRANCH   1  21
BRANCH  11  23
HETATM   23  N6  UNL     1      62.221  12.666  52.503  1.00  0.00    -0.363 N
HETATM   24  C11 UNL     1      61.182  12.961  51.565  1.00  0.00     0.127 C
HETATM   25  C12 UNL     1      61.620  12.285  50.262  1.00  0.00     0.062 C
HETATM   26  C13 UNL     1      62.213  11.023  50.786  1.00  0.00     0.162 C
HETATM   27  C15 UNL     1      62.600  11.276  52.210  1.00  0.00     0.165 C
BRANCH  26  28
HETATM   28  N7  UNL     1      63.403  10.608  50.064  1.00  0.00    -0.067 N
ATOM     29  H73 UNL     1      63.154  10.125  49.202  1.00  0.00     0.275 HD
ATOM     30  H72 UNL     1      63.889  11.414  49.672  1.00  0.00     0.275 HD
ATOM     31  H71 UNL     1      64.037  10.041  50.629  1.00  0.00     0.275 HD
ENDBRANCH  26  28
BRANCH  26  32
HETATM   32  C14 UNL     1      61.200   9.887  50.668  1.00  0.00     0.204 C
BRANCH  32  33
HETATM   33  O2  UNL     1      61.766   8.802  50.011  1.00  0.00    -0.398 OA
ATOM     34  H2  UNL     1      61.088   8.236  49.663  1.00  0.00     0.209 HD
ENDBRANCH  32  33
ENDBRANCH  26  32
ENDBRANCH  11  23
TORSDOF 9
ENDMDL