MODEL 4
REMARK VINA RESULT: -7.835894809      3.852      5.257
REMARK  6 active torsions:
REMARK  status: ('A' for Active; 'I' for Inactive)
REMARK    1  A    between atoms: C2_2  and  C4_4
REMARK    2  A    between atoms: C4_4  and  N1_5
REMARK    3  A    between atoms: N1_5  and  C5_7
REMARK    4  A    between atoms: C8_14  and  C9_15
REMARK    5  A    between atoms: C11_19  and  N5_20
REMARK    6  A    between atoms: C14_29  and  N8_30
REMARK       I    between atoms: N8_30  and  C16_32
ROOT
HETATM    1  C5  UNL     1      64.438  13.157  54.940  1.00  0.00     0.681 A
HETATM    2  N2  UNL     1      64.067  13.517  53.702  1.00  0.00    -0.174 N
ATOM      3  H2  UNL     1      64.771  13.725  52.994  1.00  0.00     0.186 HD
HETATM    4  C6  UNL     1      62.759  13.604  53.399  1.00  0.00     0.151 A
HETATM    5  N3  UNL     1      62.346  13.964  52.156  1.00  0.00    -0.348 N
ATOM      6  H3  UNL     1      63.024  14.178  51.425  1.00  0.00     0.167 HD
HETATM    7  C7  UNL     1      61.011  14.034  51.909  1.00  0.00     0.120 A
HETATM    8  C8  UNL     1      60.055  13.760  52.855  1.00  0.00     0.061 A
HETATM    9  N7  UNL     1      60.508  13.405  54.076  1.00  0.00    -0.348 N
ATOM     10  H7  UNL     1      59.829  13.192  54.806  1.00  0.00     0.166 HD
HETATM   11  C13 UNL     1      61.818  13.322  54.368  1.00  0.00     0.123 A
HETATM   12  C14 UNL     1      62.199  12.950  55.650  1.00  0.00     0.156 A
HETATM   13  N11 UNL     1      63.522  12.885  55.880  1.00  0.00    -0.174 N
ATOM     14  H11 UNL     1      63.842  12.615  56.810  1.00  0.00     0.186 HD
ENDROOT
BRANCH   8  15
HETATM   15  C9  UNL     1      58.635  13.844  52.555  1.00  0.00     0.024 A
HETATM   16  C10 UNL     1      57.644  13.229  53.272  1.00  0.00     0.121 A
HETATM   17  N4  UNL     1      56.330  13.364  52.915  1.00  0.00    -0.201 N
HETATM   18  C11 UNL     1      55.959  14.100  51.854  1.00  0.00     0.675 A
ATOM     19  H4  UNL     1      55.613  12.894  53.468  1.00  0.00     0.183 HD
HETATM   20  N6  UNL     1      56.917  14.713  51.136  1.00  0.00    -0.201 N
HETATM   21  C12 UNL     1      58.226  14.605  51.454  1.00  0.00     0.121 A
ATOM     22  H6  UNL     1      56.648  15.276  50.329  1.00  0.00     0.183 HD
BRANCH  18  23
HETATM   23  N5  UNL     1      54.732  14.249  51.491  1.00  0.00    -0.234 N
ATOM     24  H52 UNL     1      54.379  15.196  51.355  1.00  0.00     0.174 HD
ATOM     25  H51 UNL     1      54.097  13.466  51.331  1.00  0.00     0.174 HD
ENDBRANCH  18  23
ENDBRANCH   8  15
BRANCH  12  26
HETATM   26  N8  UNL     1      61.259  12.653  56.673  1.00  0.00    -0.310 N
HETATM   27  C15 UNL     1      60.718  11.309  56.722  1.00  0.00     0.160 C
HETATM   28  C16 UNL     1      60.827  13.582  57.636  1.00  0.00     0.189 C
HETATM   29  N9  UNL     1      60.740  14.834  57.369  1.00  0.00    -0.373 N
HETATM   30  N10 UNL     1      60.478  13.137  58.928  1.00  0.00    -0.064 NA
ATOM     31  H92 UNL     1      60.991  15.156  56.435  1.00  0.00     0.158 HD
ATOM     32  H91 UNL     1      60.425  15.508  58.068  1.00  0.00     0.158 HD
ENDBRANCH  12  26
BRANCH   1  33
HETATM   33  N1  UNL     1      65.692  13.065  55.261  1.00  0.00    -0.226 N
ATOM     34  H1  UNL     1      65.967  12.424  56.005  1.00  0.00     0.177 HD
BRANCH  33  35
HETATM   35  C4  UNL     1      66.715  13.847  54.594  1.00  0.00     0.142 C
BRANCH  35  36
HETATM   36  C2  UNL     1      67.135  14.945  55.566  1.00  0.00    -0.004 C
HETATM   37  C1  UNL     1      68.627  15.065  55.640  1.00  0.00     0.011 C
HETATM   38  C3  UNL     1      66.487  16.230  55.106  1.00  0.00     0.011 C
ENDBRANCH  35  36
ENDBRANCH  33  35
ENDBRANCH   1  33
TORSDOF 6
ENDMDL