MODEL 4
REMARK VINA RESULT: -6.610635451      4.742      7.533
REMARK  10 active torsions:
REMARK  status: ('A' for Active; 'I' for Inactive)
REMARK    1  A    between atoms: C2_2  and  O1_4
REMARK    2  A    between atoms: C2_2  and  C4_6
REMARK    3  A    between atoms: C5_7  and  C6_8
REMARK    4  A    between atoms: N1_10  and  C8_11
REMARK    5  A    between atoms: C8_11  and  C9_12
REMARK    6  A    between atoms: C9_12  and  O2_13
REMARK    7  A    between atoms: C9_12  and  C10_15
REMARK    8  A    between atoms: C10_15  and  N2_16
REMARK    9  A    between atoms: C11_17  and  N3_18
REMARK   10  A    between atoms: C13_24  and  N5_25
ROOT
HETATM    1  N2  UNL     1      62.673  13.258  53.696  1.00  0.00    -0.164 N
HETATM    2  C11 UNL     1      63.384  12.332  53.043  1.00  0.00     0.680 A
HETATM    3  N4  UNL     1      64.635  12.390  53.534  1.00  0.00    -0.184 N
ATOM      4  H4  UNL     1      65.409  11.799  53.228  1.00  0.00     0.184 HD
HETATM    5  C12 UNL     1      64.721  13.340  54.488  1.00  0.00     0.137 A
HETATM    6  C13 UNL     1      65.710  13.833  55.311  1.00  0.00     0.131 A
HETATM    7  N6  UNL     1      65.488  14.822  56.196  1.00  0.00    -0.337 N
ATOM      8  H6  UNL     1      66.238  15.170  56.793  1.00  0.00     0.168 HD
HETATM    9  C14 UNL     1      64.254  15.339  56.269  1.00  0.00     0.183 A
HETATM   10  N7  UNL     1      63.275  14.884  55.487  1.00  0.00    -0.336 N
ATOM     11  H7  UNL     1      62.349  15.301  55.572  1.00  0.00     0.168 HD
HETATM   12  C15 UNL     1      63.457  13.893  54.586  1.00  0.00     0.155 A
ENDROOT
BRANCH   1  13
HETATM   13  C10 UNL     1      61.267  13.542  53.484  1.00  0.00     0.182 C
BRANCH  13  14
HETATM   14  C9  UNL     1      61.051  14.314  52.199  1.00  0.00     0.155 C
BRANCH  14  15
HETATM   15  C8  UNL     1      59.650  14.181  51.686  1.00  0.00     0.162 C
BRANCH  15  16
HETATM   16  N1  UNL     1      59.474  13.150  50.709  1.00  0.00    -0.348 N
HETATM   17  C7  UNL     1      59.466  11.829  50.972  1.00  0.00     0.130 A
HETATM   18  C6  UNL     1      59.273  11.118  49.805  1.00  0.00     0.103 A
HETATM   19  N8  UNL     1      59.164  12.038  48.828  1.00  0.00    -0.344 N
HETATM   20  C16 UNL     1      59.284  13.269  49.364  1.00  0.00     0.183 A
ATOM     21  H8  UNL     1      59.013  11.835  47.840  1.00  0.00     0.167 HD
BRANCH  18  22
HETATM   22  C5  UNL     1      59.206   9.676  49.684  1.00  0.00    -0.044 C
HETATM   23  C4  UNL     1      59.143   8.475  49.603  1.00  0.00    -0.062 C
BRANCH  23  24
HETATM   24  C2  UNL     1      59.073   6.998  49.528  1.00  0.00     0.114 C
HETATM   25  C1  UNL     1      59.462   6.396  50.880  1.00  0.00     0.060 C
HETATM   26  C3  UNL     1      57.652   6.655  49.176  1.00  0.00     0.060 C
BRANCH  24  27
HETATM   27  O1  UNL     1      59.992   6.535  48.600  1.00  0.00    -0.378 OA
ATOM     28  H1  UNL     1      59.521   5.963  48.006  1.00  0.00     0.211 HD
ENDBRANCH  24  27
ENDBRANCH  23  24
ENDBRANCH  18  22
ENDBRANCH  15  16
ENDBRANCH  14  15
BRANCH  14  29
HETATM   29  O2  UNL     1      61.310  15.668  52.401  1.00  0.00    -0.392 OA
ATOM     30  H2  UNL     1      61.369  16.086  51.551  1.00  0.00     0.210 HD
ENDBRANCH  14  29
ENDBRANCH  13  14
ENDBRANCH   1  13
BRANCH   2  31
HETATM   31  N3  UNL     1      63.016  11.506  52.111  1.00  0.00    -0.234 N
ATOM     32  H32 UNL     1      62.734  11.801  51.176  1.00  0.00     0.174 HD
ATOM     33  H31 UNL     1      62.944  10.489  52.130  1.00  0.00     0.174 HD
ENDBRANCH   2  31
BRANCH   6  34
HETATM   34  N5  UNL     1      66.890  13.339  55.239  1.00  0.00    -0.383 N
ATOM     35  H52 UNL     1      67.144  12.601  55.896  1.00  0.00     0.157 HD
ATOM     36  H51 UNL     1      67.539  13.694  54.536  1.00  0.00     0.157 HD
ENDBRANCH   6  34
TORSDOF 10
ENDMDL