MODEL 4
REMARK VINA RESULT: -7.656131930      4.938      7.304
REMARK  6 active torsions:
REMARK  status: ('A' for Active; 'I' for Inactive)
REMARK    1  A    between atoms: C2_2  and  O1_3
REMARK    2  A    between atoms: N1_7  and  C5_8
REMARK    3  A    between atoms: C7_14  and  C8_15
REMARK    4  A    between atoms: C8_15  and  C9_16
REMARK    5  A    between atoms: C9_16  and  N4_17
REMARK    6  A    between atoms: C13_26  and  N7_27
ROOT
HETATM    1  C9  UNL     1      62.540  13.685  55.971  1.00  0.00     0.136 C
ENDROOT
BRANCH   1   2
HETATM    2  C8  UNL     1      61.659  12.617  55.377  1.00  0.00     0.064 C
BRANCH   2   3
HETATM    3  C7  UNL     1      60.272  13.037  55.149  1.00  0.00     0.005 A
HETATM    4  C5  UNL     1      59.688  13.370  53.944  1.00  0.00     0.125 A
HETATM    5  N2  UNL     1      58.383  13.691  54.191  1.00  0.00    -0.285 N
HETATM    6  N3  UNL     1      58.175  13.564  55.484  1.00  0.00    -0.310 N
ATOM      7  H2  UNL     1      57.693  13.978  53.497  1.00  0.00     0.188 HD
HETATM    8  C6  UNL     1      59.308  13.163  56.120  1.00  0.00     0.118 A
ATOM      9  H3  UNL     1      57.284  13.743  55.947  1.00  0.00     0.186 HD
BRANCH   4  10
HETATM   10  N1  UNL     1      60.265  13.385  52.654  1.00  0.00    -0.363 N
HETATM   11  C4  UNL     1      60.650  14.566  51.916  1.00  0.00     0.127 C
HETATM   12  C3  UNL     1      60.146  14.174  50.515  1.00  0.00     0.059 C
HETATM   13  C2  UNL     1      60.642  12.765  50.406  1.00  0.00     0.072 C
HETATM   14  C1  UNL     1      59.819  11.898  49.480  1.00  0.00     0.047 C
HETATM   15  C15 UNL     1      60.593  12.247  51.831  1.00  0.00     0.161 C
BRANCH  13  16
HETATM   16  O1  UNL     1      61.945  12.789  49.910  1.00  0.00    -0.389 OA
ATOM     17  H1  UNL     1      62.533  12.652  50.643  1.00  0.00     0.210 HD
ENDBRANCH  13  16
ENDBRANCH   4  10
ENDBRANCH   2   3
ENDBRANCH   1   2
BRANCH   1  18
HETATM   18  N4  UNL     1      63.723  13.918  55.184  1.00  0.00    -0.327 N
HETATM   19  C10 UNL     1      63.905  13.544  53.899  1.00  0.00     0.185 A
HETATM   20  N5  UNL     1      65.122  13.918  53.475  1.00  0.00    -0.345 N
HETATM   21  C11 UNL     1      65.757  14.542  54.468  1.00  0.00     0.147 A
ATOM     22  H5  UNL     1      65.502  13.752  52.543  1.00  0.00     0.167 HD
HETATM   23  C12 UNL     1      66.988  15.138  54.657  1.00  0.00     0.290 A
HETATM   24  C14 UNL     1      64.863  14.534  55.540  1.00  0.00     0.156 A
HETATM   25  O2  UNL     1      67.785  15.140  53.692  1.00  0.00    -0.265 OA
HETATM   26  N6  UNL     1      67.304  15.692  55.843  1.00  0.00    -0.154 N
HETATM   27  C13 UNL     1      66.428  15.673  56.862  1.00  0.00     0.680 A
ATOM     28  H6  UNL     1      68.217  16.130  55.969  1.00  0.00     0.187 HD
HETATM   29  N8  UNL     1      65.237  15.098  56.682  1.00  0.00    -0.174 N
ATOM     30  H8  UNL     1      64.581  15.091  57.464  1.00  0.00     0.186 HD
BRANCH  27  31
HETATM   31  N7  UNL     1      66.728  16.213  58.019  1.00  0.00    -0.234 N
ATOM     32  H72 UNL     1      67.208  17.113  58.053  1.00  0.00     0.174 HD
ATOM     33  H71 UNL     1      66.490  15.745  58.893  1.00  0.00     0.174 HD
ENDBRANCH  27  31
ENDBRANCH   1  18
TORSDOF 6
ENDMDL