MODEL 4
REMARK VINA RESULT: -6.795160931      1.773      4.444
REMARK  7 active torsions:
REMARK  status: ('A' for Active; 'I' for Inactive)
REMARK    1  A    between atoms: C2_2  and  C3_3
REMARK    2  A    between atoms: N2_6  and  C4_7
REMARK    3  A    between atoms: C6_13  and  N5_14
REMARK    4  A    between atoms: C7_17  and  C8_18
REMARK    5  A    between atoms: C8_18  and  C9_19
REMARK    6  A    between atoms: C9_19  and  O1_20
REMARK    7  A    between atoms: C15_29  and  N7_30
ROOT
HETATM    1  C3  UNL     1      62.063  14.230  52.764  1.00  0.00     0.034 A
HETATM    2  N1  UNL     1      62.045  13.034  53.355  1.00  0.00    -0.296 N
ATOM      3  H1  UNL     1      61.272  12.371  53.288  1.00  0.00     0.187 HD
HETATM    4  N2  UNL     1      63.149  12.819  54.033  1.00  0.00    -0.236 N
HETATM    5  C10 UNL     1      63.934  13.934  53.880  1.00  0.00     0.097 A
HETATM    6  C11 UNL     1      63.284  14.849  53.085  1.00  0.00    -0.003 A
HETATM    7  C12 UNL     1      63.826  16.176  52.695  1.00  0.00     0.049 A
HETATM    8  C13 UNL     1      65.153  16.496  53.248  1.00  0.00     0.065 A
HETATM    9  C14 UNL     1      65.791  15.486  54.095  1.00  0.00     0.057 A
HETATM   10  N6  UNL     1      67.007  15.800  54.595  1.00  0.00    -0.192 N
ATOM     11  H6  UNL     1      67.437  16.699  54.377  1.00  0.00     0.184 HD
HETATM   12  C15 UNL     1      67.644  14.918  55.380  1.00  0.00     0.690 A
HETATM   13  N8  UNL     1      67.073  13.741  55.658  1.00  0.00    -0.132 N
ATOM     14  H8  UNL     1      67.578  13.088  56.257  1.00  0.00     0.205 HD
HETATM   15  N9  UNL     1      65.876  13.377  55.194  1.00  0.00    -0.282 N
ATOM     16  H9  UNL     1      65.461  12.473  55.422  1.00  0.00     0.187 HD
HETATM   17  C16 UNL     1      65.249  14.270  54.409  1.00  0.00     0.101 A
ENDROOT
BRANCH   4  18
HETATM   18  C4  UNL     1      63.568  11.705  54.819  1.00  0.00     0.138 A
HETATM   19  N3  UNL     1      64.329  10.734  54.210  1.00  0.00    -0.337 N
HETATM   20  C5  UNL     1      64.716   9.648  54.882  1.00  0.00     0.183 A
ATOM     21  H3  UNL     1      64.601  10.846  53.233  1.00  0.00     0.168 HD
HETATM   22  N4  UNL     1      64.348   9.524  56.156  1.00  0.00    -0.338 N
HETATM   23  C6  UNL     1      63.609  10.431  56.808  1.00  0.00     0.109 A
ATOM     24  H4  UNL     1      64.645   8.691  56.664  1.00  0.00     0.168 HD
HETATM   25  C7  UNL     1      63.197  11.573  56.121  1.00  0.00     0.033 A
BRANCH  23  26
HETATM   26  N5  UNL     1      63.283  10.266  58.038  1.00  0.00    -0.385 N
ATOM     27  H52 UNL     1      63.992  10.015  58.727  1.00  0.00     0.157 HD
ATOM     28  H51 UNL     1      62.319  10.378  58.351  1.00  0.00     0.157 HD
ENDBRANCH  23  26
BRANCH  25  29
HETATM   29  C8  UNL     1      62.432  12.574  56.882  1.00  0.00     0.072 C
BRANCH  29  30
HETATM   30  C9  UNL     1      60.975  12.429  56.608  1.00  0.00     0.169 C
BRANCH  30  31
HETATM   31  O1  UNL     1      60.458  13.553  55.915  1.00  0.00    -0.401 OA
ATOM     32  H1  UNL     1      60.283  14.278  56.504  1.00  0.00     0.209 HD
ENDBRANCH  30  31
ENDBRANCH  29  30
ENDBRANCH  25  29
ENDBRANCH   4  18
BRANCH   1  33
HETATM   33  C2  UNL     1      61.049  14.889  51.908  1.00  0.00     0.055 C
HETATM   34  C1  UNL     1      59.671  14.297  52.068  1.00  0.00     0.011 C
ENDBRANCH   1  33
BRANCH  12  35
HETATM   35  N7  UNL     1      68.814  15.250  55.850  1.00  0.00    -0.233 N
ATOM     36  H72 UNL     1      69.301  16.094  55.548  1.00  0.00     0.174 HD
ATOM     37  H71 UNL     1      69.246  14.635  56.540  1.00  0.00     0.174 HD
ENDBRANCH  12  35
TORSDOF 7
ENDMDL