MODEL 4
REMARK VINA RESULT: -6.820135763      2.350      4.072
REMARK  6 active torsions:
REMARK  status: ('A' for Active; 'I' for Inactive)
REMARK    1  A    between atoms: S1_2  and  C2_3
REMARK    2  A    between atoms: C4_7  and  N2_8
REMARK    3  A    between atoms: N2_8  and  C5_10
REMARK    4  A    between atoms: C5_10  and  C6_11
REMARK    5  A    between atoms: C9_17  and  N5_18
REMARK    6  A    between atoms: C12_23  and  N7_24
ROOT
HETATM    1  C2  UNL     1      58.882  12.788  51.271  1.00  0.00     0.146 A
HETATM    2  N1  UNL     1      60.191  12.726  51.650  1.00  0.00    -0.332 N
ATOM      3  H1  UNL     1      60.560  13.447  52.270  1.00  0.00     0.168 HD
HETATM    4  C3  UNL     1      61.003  11.752  51.236  1.00  0.00     0.110 A
HETATM    5  C4  UNL     1      62.348  11.692  51.629  1.00  0.00     0.146 A
HETATM    6  N6  UNL     1      63.092  10.679  51.165  1.00  0.00    -0.175 N
ATOM      7  H6  UNL     1      64.070  10.643  51.456  1.00  0.00     0.186 HD
HETATM    8  C12 UNL     1      62.654   9.707  50.348  1.00  0.00     0.678 A
HETATM    9  N8  UNL     1      61.352   9.771  49.973  1.00  0.00    -0.186 N
ATOM     10  H8  UNL     1      60.976   9.054  49.353  1.00  0.00     0.184 HD
HETATM   11  C13 UNL     1      60.546  10.760  50.398  1.00  0.00     0.123 A
HETATM   12  C14 UNL     1      59.213  10.834  50.019  1.00  0.00     0.131 A
HETATM   13  N9  UNL     1      58.792   9.901  49.235  1.00  0.00    -0.383 N
ATOM     14  H91 UNL     1      57.813   9.955  48.955  1.00  0.00     0.157 HD
ATOM     15  H92 UNL     1      59.402   9.151  48.910  1.00  0.00     0.157 HD
HETATM   16  N10 UNL     1      58.400  11.836  50.453  1.00  0.00    -0.321 N
ATOM     17  H10 UNL     1      57.423  11.864  50.157  1.00  0.00     0.169 HD
ENDROOT
BRANCH   5  18
HETATM   18  N2  UNL     1      62.735  12.617  52.401  1.00  0.00    -0.369 N
ATOM     19  H2  UNL     1      62.982  13.505  51.964  1.00  0.00     0.161 HD
BRANCH  18  20
HETATM   20  C5  UNL     1      62.865  12.544  53.850  1.00  0.00     0.165 C
BRANCH  20  21
HETATM   21  C6  UNL     1      64.274  12.712  54.269  1.00  0.00     0.022 A
HETATM   22  C7  UNL     1      65.087  11.601  54.565  1.00  0.00     0.120 A
HETATM   23  N3  UNL     1      66.254  12.097  54.921  1.00  0.00    -0.308 N
HETATM   24  N4  UNL     1      66.249  13.443  54.876  1.00  0.00    -0.281 N
ATOM     25  H3  UNL     1      67.059  11.534  55.197  1.00  0.00     0.186 HD
HETATM   26  C8  UNL     1      67.390  14.280  55.203  1.00  0.00     0.179 C
HETATM   27  C9  UNL     1      65.028  13.843  54.473  1.00  0.00     0.128 A
BRANCH  27  28
HETATM   28  N5  UNL     1      64.609  15.190  54.262  1.00  0.00    -0.374 N
HETATM   29  C10 UNL     1      64.651  15.840  52.944  1.00  0.00     0.150 C
HETATM   30  C11 UNL     1      64.067  16.027  55.308  1.00  0.00     0.150 C
ENDBRANCH  27  28
ENDBRANCH  20  21
ENDBRANCH  18  20
ENDBRANCH   5  18
BRANCH   8  31
HETATM   31  N7  UNL     1      63.422   8.751  49.934  1.00  0.00    -0.234 N
ATOM     32  H72 UNL     1      63.794   8.749  48.984  1.00  0.00     0.174 HD
ATOM     33  H71 UNL     1      63.687   7.965  50.529  1.00  0.00     0.174 HD
ENDBRANCH   8  31
BRANCH   1  34
HETATM   34  S1  UNL     1      57.809  14.099  51.836  1.00  0.00    -0.098 SA
HETATM   35  C1  UNL     1      56.116  13.875  51.223  1.00  0.00     0.099 C
ENDBRANCH   1  34
TORSDOF 6
ENDMDL