MODEL 3
REMARK VINA RESULT: -6.950509740      1.448      1.742
REMARK  8 active torsions:
REMARK  status: ('A' for Active; 'I' for Inactive)
REMARK    1  A    between atoms: C2_2  and  C3_3
REMARK    2  A    between atoms: C4_8  and  C5_9
REMARK    3  A    between atoms: C5_9  and  N3_10
REMARK    4  A    between atoms: C8_16  and  O1_17
REMARK    5  A    between atoms: O1_17  and  C9_18
REMARK    6  A    between atoms: C9_18  and  N5_19
REMARK    7  A    between atoms: C9_18  and  N6_23
REMARK    8  A    between atoms: N8_30  and  C11_32
ROOT
HETATM    1  N3  UNL     1      65.323  14.820  53.039  1.00  0.00    -0.219 N
ATOM      2  H3  UNL     1      64.922  15.585  52.496  1.00  0.00     0.178 HD
HETATM    3  C6  UNL     1      64.630  13.761  53.281  1.00  0.00     0.694 A
HETATM    4  N4  UNL     1      65.157  12.696  54.023  1.00  0.00    -0.174 N
ATOM      5  H4  UNL     1      66.111  12.753  54.382  1.00  0.00     0.186 HD
HETATM    6  C7  UNL     1      64.376  11.539  54.279  1.00  0.00     0.158 A
HETATM    7  C8  UNL     1      64.902  10.538  54.988  1.00  0.00     0.188 C
HETATM    8  N7  UNL     1      63.056  11.461  53.780  1.00  0.00    -0.174 N
ATOM      9  H7  UNL     1      62.503  10.625  53.969  1.00  0.00     0.186 HD
HETATM   10  C10 UNL     1      62.467  12.533  53.011  1.00  0.00     0.695 A
HETATM   11  N8  UNL     1      61.273  12.389  52.597  1.00  0.00    -0.217 N
ATOM     12  H8  UNL     1      60.808  11.514  52.841  1.00  0.00     0.178 HD
HETATM   13  N9  UNL     1      63.290  13.659  52.787  1.00  0.00    -0.022 N
ATOM     14  H9  UNL     1      62.911  14.437  52.246  1.00  0.00     0.203 HD
ENDROOT
BRANCH   1  15
HETATM   15  C5  UNL     1      66.677  14.911  53.544  1.00  0.00     0.204 C
BRANCH  15  16
HETATM   16  C4  UNL     1      66.655  15.633  54.867  1.00  0.00     0.086 A
HETATM   17  N2  UNL     1      65.821  16.601  55.232  1.00  0.00    -0.296 N
HETATM   18  N1  UNL     1      65.920  17.118  56.379  1.00  0.00    -0.297 N
ATOM     19  H2  UNL     1      65.102  16.926  54.585  1.00  0.00     0.187 HD
HETATM   20  C3  UNL     1      66.857  16.692  57.220  1.00  0.00     0.067 A
ATOM     21  H1  UNL     1      65.281  17.861  56.661  1.00  0.00     0.187 HD
HETATM   22  S1  UNL     1      67.618  15.478  56.265  1.00  0.00    -0.059 SA
BRANCH  20  23
HETATM   23  C2  UNL     1      67.158  17.153  58.617  1.00  0.00     0.062 C
HETATM   24  C1  UNL     1      67.726  18.557  58.475  1.00  0.00     0.012 C
ENDBRANCH  20  23
ENDBRANCH  15  16
ENDBRANCH   1  15
BRANCH   7  25
HETATM   25  O1  UNL     1      66.199  10.631  55.469  1.00  0.00    -0.305 OA
BRANCH  25  26
HETATM   26  C9  UNL     1      66.887   9.438  55.770  1.00  0.00     0.523 C
BRANCH  26  27
HETATM   27  N5  UNL     1      66.994   9.362  57.215  1.00  0.00    -0.027 N
ATOM     28  H53 UNL     1      66.749   8.444  57.586  1.00  0.00     0.279 HD
ATOM     29  H52 UNL     1      67.959   9.383  57.545  1.00  0.00     0.279 HD
ATOM     30  H51 UNL     1      66.423  10.114  57.598  1.00  0.00     0.279 HD
ENDBRANCH  26  27
BRANCH  26  31
HETATM   31  N6  UNL     1      66.207   8.297  55.214  1.00  0.00    -0.027 N
ATOM     32  H63 UNL     1      66.489   7.430  55.671  1.00  0.00     0.279 HD
ATOM     33  H62 UNL     1      65.218   8.289  55.464  1.00  0.00     0.279 HD
ATOM     34  H61 UNL     1      66.341   8.251  54.203  1.00  0.00     0.279 HD
ENDBRANCH  26  31
ENDBRANCH  25  26
ENDBRANCH   7  25
BRANCH  11  35
HETATM   35  C11 UNL     1      60.517  13.319  51.828  1.00  0.00     0.036 C
HETATM   36  C12 UNL     1      59.057  12.930  51.808  1.00  0.00     0.038 C
HETATM   37  C13 UNL     1      60.960  13.279  50.348  1.00  0.00     0.038 C
HETATM   38  C14 UNL     1      60.646  14.736  52.292  1.00  0.00     0.038 C
ENDBRANCH  11  35
TORSDOF 8
ENDMDL