MODEL 1
REMARK VINA RESULT: -8.131018694      0.000      0.000
REMARK  5 active torsions:
REMARK  status: ('A' for Active; 'I' for Inactive)
REMARK    1  A    between atoms: C5_11  and  N3_12
REMARK    2  A    between atoms: N3_12  and  C6_14
REMARK    3  A    between atoms: C6_14  and  C7_15
REMARK    4  A    between atoms: C10_20  and  N5_21
REMARK    5  A    between atoms: N7_28  and  C12_29
ROOT
HETATM    1  C7  UNL     1      61.605  13.520  52.422  1.00  0.00     0.100 A
HETATM    2  N4  UNL     1      62.012  13.235  51.169  1.00  0.00    -0.353 N
ATOM      3  H4  UNL     1      63.011  13.162  50.976  1.00  0.00     0.166 HD
HETATM    4  C8  UNL     1      61.130  13.043  50.157  1.00  0.00     0.108 A
HETATM    5  C9  UNL     1      59.775  13.141  50.414  1.00  0.00     0.067 A
HETATM    6  C10 UNL     1      58.822  12.957  49.437  1.00  0.00     0.118 A
HETATM    7  N6  UNL     1      57.519  13.074  49.786  1.00  0.00    -0.294 N
ATOM      8  H6  UNL     1      56.808  12.941  49.067  1.00  0.00     0.172 HD
HETATM    9  C11 UNL     1      57.126  13.355  51.028  1.00  0.00     0.330 A
HETATM   10  O3  UNL     1      55.899  13.442  51.254  1.00  0.00    -0.246 OA
HETATM   11  N7  UNL     1      58.019  13.542  52.011  1.00  0.00    -0.280 N
HETATM   12  C15 UNL     1      59.349  13.430  51.687  1.00  0.00     0.128 A
HETATM   13  N8  UNL     1      60.288  13.610  52.650  1.00  0.00    -0.330 N
ATOM     14  H8  UNL     1      59.975  13.824  53.597  1.00  0.00     0.168 HD
ENDROOT
BRANCH   1  15
HETATM   15  C6  UNL     1      62.540  13.739  53.541  1.00  0.00     0.196 C
BRANCH  15  16
HETATM   16  N3  UNL     1      63.926  13.611  53.210  1.00  0.00    -0.377 N
ATOM     17  H3  UNL     1      64.175  13.027  52.412  1.00  0.00     0.160 HD
BRANCH  16  18
HETATM   18  C5  UNL     1      64.972  14.244  53.922  1.00  0.00     0.120 A
HETATM   19  C2  UNL     1      65.424  15.524  53.633  1.00  0.00     0.042 A
HETATM   20  C1  UNL     1      64.791  16.257  52.530  1.00  0.00     0.071 C
HETATM   21  N1  UNL     1      66.418  16.078  54.347  1.00  0.00    -0.310 N
HETATM   22  C3  UNL     1      67.005  15.421  55.356  1.00  0.00     0.327 A
ATOM     23  H1  UNL     1      66.732  17.020  54.115  1.00  0.00     0.170 HD
HETATM   24  O1  UNL     1      67.926  15.939  56.014  1.00  0.00    -0.247 OA
HETATM   25  N2  UNL     1      66.586  14.174  55.661  1.00  0.00    -0.274 N
HETATM   26  C4  UNL     1      65.581  13.582  54.959  1.00  0.00     0.277 A
ATOM     27  H2  UNL     1      67.028  13.668  56.428  1.00  0.00     0.173 HD
HETATM   28  O2  UNL     1      65.270  12.416  55.329  1.00  0.00    -0.265 OA
ENDBRANCH  16  18
ENDBRANCH  15  16
ENDBRANCH   1  15
BRANCH  11  29
HETATM   29  C12 UNL     1      57.643  13.844  53.354  1.00  0.00     0.096 A
HETATM   30  C13 UNL     1      57.224  12.780  54.329  1.00  0.00     0.028 A
HETATM   31  C14 UNL     1      56.269  13.893  53.859  1.00  0.00     0.028 A
ENDBRANCH  11  29
BRANCH   6  32
HETATM   32  N5  UNL     1      59.163  12.685  48.231  1.00  0.00    -0.385 N
ATOM     33  H52 UNL     1      59.172  11.723  47.890  1.00  0.00     0.157 HD
ATOM     34  H51 UNL     1      59.431  13.427  47.584  1.00  0.00     0.157 HD
ENDBRANCH   6  32
TORSDOF 5
ENDMDL