MODEL 3
REMARK VINA RESULT: -8.253404650      0.667      1.170
REMARK  6 active torsions:
REMARK  status: ('A' for Active; 'I' for Inactive)
REMARK    1  A    between atoms: C2_2  and  N1_4
REMARK    2  A    between atoms: C5_9  and  N3_10
REMARK    3  A    between atoms: N5_16  and  C7_18
REMARK    4  A    between atoms: C7_18  and  O1_19
REMARK    5  A    between atoms: C8_23  and  C9_24
REMARK    6  A    between atoms: C10_29  and  N9_30
ROOT
HETATM    1  N1  UNL     1      61.792  11.534  51.540  1.00  0.00    -0.370 N
ATOM      2  H1  UNL     1      62.062  11.767  52.496  1.00  0.00     0.161 HD
HETATM    3  C4  UNL     1      61.035  12.354  50.988  1.00  0.00     0.148 C
HETATM    4  N2  UNL     1      60.586  12.182  49.694  1.00  0.00    -0.174 N
ATOM      5  H2  UNL     1      61.231  11.733  49.044  1.00  0.00     0.186 HD
HETATM    6  C5  UNL     1      59.373  12.547  49.194  1.00  0.00     0.692 C
HETATM    7  N4  UNL     1      58.318  13.033  49.873  1.00  0.00    -0.023 N
ATOM      8  H4  UNL     1      57.420  12.986  49.391  1.00  0.00     0.203 HD
HETATM    9  C6  UNL     1      58.293  13.577  51.113  1.00  0.00     0.695 C
HETATM   10  N5  UNL     1      57.177  13.771  51.661  1.00  0.00    -0.205 N
ATOM     11  H5  UNL     1      57.215  14.180  52.595  1.00  0.00     0.179 HD
HETATM   12  N6  UNL     1      59.384  13.927  51.859  1.00  0.00    -0.184 N
ATOM     13  H6  UNL     1      59.230  14.668  52.542  1.00  0.00     0.184 HD
HETATM   14  C8  UNL     1      60.647  13.422  51.814  1.00  0.00     0.139 C
ENDROOT
BRANCH  14  15
HETATM   15  C9  UNL     1      61.662  13.962  52.688  1.00  0.00     0.167 A
HETATM   16  N7  UNL     1      61.597  13.636  54.028  1.00  0.00    -0.269 N
HETATM   17  N8  UNL     1      62.604  14.177  54.621  1.00  0.00    -0.130 N
ATOM     18  H7  UNL     1      60.877  13.067  54.472  1.00  0.00     0.189 HD
HETATM   19  C10 UNL     1      63.340  14.858  53.701  1.00  0.00     0.696 A
ATOM     20  H8  UNL     1      62.816  14.106  55.616  1.00  0.00     0.205 HD
HETATM   21  N10 UNL     1      62.725  14.707  52.510  1.00  0.00    -0.172 N
ATOM     22  H10 UNL     1      63.035  15.104  51.623  1.00  0.00     0.186 HD
BRANCH  19  23
HETATM   23  N9  UNL     1      64.515  15.526  54.069  1.00  0.00    -0.216 N
HETATM   24  C11 UNL     1      64.775  15.933  55.415  1.00  0.00     0.141 C
HETATM   25  C12 UNL     1      66.273  16.278  55.555  1.00  0.00     0.020 C
HETATM   26  C13 UNL     1      67.130  15.243  54.904  1.00  0.00     0.003 C
HETATM   27  C14 UNL     1      66.740  14.991  53.484  1.00  0.00     0.020 C
HETATM   28  C15 UNL     1      65.519  15.832  53.086  1.00  0.00     0.141 C
ENDBRANCH  19  23
ENDBRANCH  14  15
BRANCH   1  29
HETATM   29  C2  UNL     1      62.332  10.332  51.039  1.00  0.00     0.075 C
HETATM   30  C1  UNL     1      63.446  10.500  50.037  1.00  0.00     0.031 C
HETATM   31  C3  UNL     1      62.781   9.318  52.066  1.00  0.00     0.031 C
ENDBRANCH   1  29
BRANCH   6  32
HETATM   32  N3  UNL     1      59.263  12.396  47.912  1.00  0.00    -0.234 N
ATOM     33  H32 UNL     1      59.424  11.468  47.519  1.00  0.00     0.174 HD
ATOM     34  H31 UNL     1      59.018  13.250  47.412  1.00  0.00     0.174 HD
ENDBRANCH   6  32
BRANCH  10  35
HETATM   35  C7  UNL     1      55.871  13.502  51.168  1.00  0.00     0.305 C
BRANCH  35  36
HETATM   36  O1  UNL     1      55.060  14.591  51.585  1.00  0.00    -0.382 OA
ATOM     37  H1  UNL     1      54.433  14.232  52.202  1.00  0.00     0.211 HD
ENDBRANCH  35  36
ENDBRANCH  10  35
TORSDOF 6
ENDMDL