MODEL 5
REMARK VINA RESULT: -7.332054199      2.077      6.051
REMARK  4 active torsions:
REMARK  status: ('A' for Active; 'I' for Inactive)
REMARK    1  A    between atoms: N1_1  and  C1_4
REMARK    2  A    between atoms: C4_9  and  C5_10
REMARK       I    between atoms: C5_10  and  N3_12
REMARK    3  A    between atoms: N3_12  and  N4_13
REMARK    4  A    between atoms: N5_19  and  O2_20
ROOT
HETATM    1  C1  UNL     1     -19.752 -30.284  16.225  1.00  0.00     0.693 A
HETATM    2  N2  UNL     1     -21.103 -30.328  16.149  1.00  0.00    -0.188 N
ATOM      3  H2  UNL     1     -21.644 -29.961  16.932  1.00  0.00     0.184 HD
HETATM    4  C2  UNL     1     -21.770 -30.832  15.094  1.00  0.00     0.081 A
HETATM    5  C3  UNL     1     -23.148 -30.872  15.026  1.00  0.00     0.051 A
HETATM    6  C4  UNL     1     -23.817 -31.391  13.940  1.00  0.00     0.050 A
HETATM    7  C6  UNL     1     -23.108 -31.895  12.869  1.00  0.00     0.021 A
HETATM    8  C7  UNL     1     -21.724 -31.856  12.931  1.00  0.00     0.037 A
HETATM    9  C8  UNL     1     -21.059 -31.333  14.026  1.00  0.00     0.109 A
HETATM   10  N5  UNL     1     -19.712 -31.284  14.108  1.00  0.00    -0.147 N
HETATM   11  N6  UNL     1     -19.077 -30.776  15.173  1.00  0.00    -0.105 N
ATOM     12  H6  UNL     1     -18.058 -30.763  15.185  1.00  0.00     0.208 HD
ENDROOT
BRANCH   6  13
HETATM   13  C5  UNL     1     -25.324 -31.376  13.928  1.00  0.00     0.345 C
HETATM   14  O1  UNL     1     -25.789 -30.629  14.836  1.00  0.00    -0.249 OA
HETATM   15  N3  UNL     1     -25.932 -32.141  12.980  1.00  0.00    -0.288 NA
BRANCH  15  16
HETATM   16  N4  UNL     1     -26.521 -32.881  12.062  1.00  0.00    -0.276 N
ATOM     17  H42 UNL     1     -26.088 -32.284  12.766  1.00  0.00     0.191 HD
ATOM     18  H41 UNL     1     -26.976 -33.454  11.351  1.00  0.00     0.191 HD
ENDBRANCH  15  16
ENDBRANCH   6  13
BRANCH   1  19
HETATM   19  N1  UNL     1     -19.137 -29.793  17.262  1.00  0.00    -0.233 N
ATOM     20  H12 UNL     1     -18.574 -30.380  17.877  1.00  0.00     0.174 HD
ATOM     21  H11 UNL     1     -19.192 -28.804  17.504  1.00  0.00     0.174 HD
ENDBRANCH   1  19
BRANCH  10  22
HETATM   22  O2  UNL     1     -19.000 -31.780  13.052  1.00  0.00    -0.267 OA
ATOM     23  H2  UNL     1     -18.195 -31.332  12.820  1.00  0.00     0.247 HD
ENDBRANCH  10  22
TORSDOF 4
ENDMDL