MODEL 2
REMARK VINA RESULT: -7.629517859      0.807      2.495
REMARK  2 active torsions:
REMARK  status: ('A' for Active; 'I' for Inactive)
REMARK    1  A    between atoms: N1_1  and  N2_4
REMARK       I    between atoms: N2_4  and  C1_6
REMARK    2  A    between atoms: C1_6  and  C2_8
ROOT
HETATM    1  C2  UNL     1     -23.390 -30.985  14.294  1.00  0.00     0.177 A
HETATM    2  N3  UNL     1     -22.481 -30.336  13.568  1.00  0.00    -0.331 N
ATOM      3  H3  UNL     1     -22.639 -29.927  12.646  1.00  0.00     0.168 HD
HETATM    4  C3  UNL     1     -21.326 -30.306  14.246  1.00  0.00     0.134 A
HETATM    5  C4  UNL     1     -21.530 -30.965  15.438  1.00  0.00     0.123 A
HETATM    6  N4  UNL     1     -22.808 -31.371  15.440  1.00  0.00    -0.332 N
ATOM      7  H4  UNL     1     -23.264 -31.889  16.191  1.00  0.00     0.168 HD
HETATM    8  C5  UNL     1     -20.453 -31.116  16.428  1.00  0.00     0.268 A
HETATM    9  O2  UNL     1     -20.708 -31.728  17.494  1.00  0.00    -0.280 OA
HETATM   10  C6  UNL     1     -19.143 -30.564  16.153  1.00  0.00     0.300 A
HETATM   11  O3  UNL     1     -18.198 -30.681  16.992  1.00  0.00    -0.264 OA
HETATM   12  N5  UNL     1     -18.920 -29.882  14.924  1.00  0.00    -0.285 N
ATOM     13  H5  UNL     1     -18.005 -29.486  14.711  1.00  0.00     0.172 HD
HETATM   14  C7  UNL     1     -19.988 -29.760  14.000  1.00  0.00     0.277 A
HETATM   15  O4  UNL     1     -19.787 -29.157  12.918  1.00  0.00    -0.266 OA
ENDROOT
BRANCH   1  16
HETATM   16  C1  UNL     1     -24.791 -31.269  13.972  1.00  0.00     0.303 C
HETATM   17  N2  UNL     1     -25.117 -32.198  12.964  1.00  0.00    -0.270 N
ATOM     18  H2  UNL     1     -24.370 -32.673  12.459  1.00  0.00     0.189 HD
HETATM   19  O1  UNL     1     -25.726 -30.706  14.571  1.00  0.00    -0.263 OA
BRANCH  17  20
HETATM   20  N1  UNL     1     -26.429 -32.475  12.652  1.00  0.00    -0.342 N
ATOM     21  H12 UNL     1     -26.648 -33.377  12.230  1.00  0.00     0.176 HD
ATOM     22  H11 UNL     1     -27.168 -31.797  12.837  1.00  0.00     0.176 HD
ENDBRANCH  17  20
ENDBRANCH   1  16
TORSDOF 2
ENDMDL