MODEL 4
REMARK VINA RESULT: -6.661541083      3.089      5.709
REMARK  1 active torsions:
REMARK  status: ('A' for Active; 'I' for Inactive)
REMARK       I    between atoms: C1_2  and  N2_4
REMARK    1  A    between atoms: N2_4  and  C2_6
ROOT
HETATM    1  C2  UNL     1     -18.964 -30.227  15.759  1.00  0.00     0.142 A
HETATM    2  N3  UNL     1     -18.756 -29.712  14.539  1.00  0.00    -0.292 N
ATOM      3  H3  UNL     1     -17.783 -29.511  14.305  1.00  0.00     0.172 HD
HETATM    4  C3  UNL     1     -19.667 -29.421  13.568  1.00  0.00     0.328 A
HETATM    5  O2  UNL     1     -19.239 -29.024  12.469  1.00  0.00    -0.247 OA
HETATM    6  N4  UNL     1     -21.007 -29.514  13.663  1.00  0.00    -0.273 N
ATOM      7  H4  UNL     1     -21.505 -29.146  12.852  1.00  0.00     0.173 HD
HETATM    8  C4  UNL     1     -21.808 -29.994  14.611  1.00  0.00     0.278 A
HETATM    9  O3  UNL     1     -23.066 -29.982  14.410  1.00  0.00    -0.265 OA
HETATM   10  C5  UNL     1     -21.420 -30.521  15.831  1.00  0.00     0.133 A
HETATM   11  N5  UNL     1     -22.226 -31.046  16.772  1.00  0.00    -0.346 N
ATOM     12  H5  UNL     1     -23.240 -31.117  16.693  1.00  0.00     0.167 HD
HETATM   13  C6  UNL     1     -21.511 -31.462  17.828  1.00  0.00     0.181 A
HETATM   14  N6  UNL     1     -20.199 -31.208  17.582  1.00  0.00    -0.347 N
ATOM     15  H6  UNL     1     -19.414 -31.412  18.199  1.00  0.00     0.167 HD
HETATM   16  C7  UNL     1     -20.134 -30.631  16.357  1.00  0.00     0.110 A
ENDROOT
BRANCH   1  17
HETATM   17  N2  UNL     1     -17.902 -30.361  16.472  1.00  0.00    -0.295 N
HETATM   18  C1  UNL     1     -16.734 -29.590  16.214  1.00  0.00     0.334 C
HETATM   19  N1  UNL     1     -15.741 -30.095  15.352  1.00  0.00    -0.040 NA
HETATM   20  O1  UNL     1     -16.607 -28.452  16.767  1.00  0.00    -0.251 OA
ATOM     21  H2  UNL     1     -17.896 -31.034  17.239  1.00  0.00     0.171 HD
ENDBRANCH   1  17
TORSDOF 1
ENDMDL