MODEL 5
REMARK VINA RESULT: -6.744334303      2.786      5.340
REMARK  2 active torsions:
REMARK  status: ('A' for Active; 'I' for Inactive)
REMARK    1  A    between atoms: C3_9  and  N3_10
REMARK    2  A    between atoms: N3_10  and  C4_12
ROOT
HETATM    1  O1  UNL     1     -17.216 -29.385  16.633  1.00  0.00    -0.246 OA
HETATM    2  C1  UNL     1     -17.838 -30.024  15.726  1.00  0.00     0.331 C
HETATM    3  N1  UNL     1     -17.928 -31.363  15.884  1.00  0.00    -0.260 N
ATOM      4  H1  UNL     1     -17.507 -31.727  16.738  1.00  0.00     0.175 HD
HETATM    5  C2  UNL     1     -18.495 -32.299  15.078  1.00  0.00     0.329 C
HETATM    6  O2  UNL     1     -18.291 -33.493  15.442  1.00  0.00    -0.246 OA
HETATM    7  N2  UNL     1     -19.233 -32.146  13.965  1.00  0.00    -0.290 N
ATOM      8  H2  UNL     1     -19.503 -32.997  13.470  1.00  0.00     0.172 HD
HETATM    9  C3  UNL     1     -19.655 -30.967  13.433  1.00  0.00     0.180 C
HETATM   10  C7  UNL     1     -19.045 -29.733  13.636  1.00  0.00     0.293 C
HETATM   11  O3  UNL     1     -19.179 -28.933  12.695  1.00  0.00    -0.264 OA
HETATM   12  N6  UNL     1     -18.343 -29.312  14.707  1.00  0.00    -0.272 N
ATOM     13  H6  UNL     1     -18.171 -28.307  14.748  1.00  0.00     0.174 HD
ENDROOT
BRANCH   9  14
HETATM   14  N3  UNL     1     -20.695 -31.054  12.698  1.00  0.00    -0.323 N
ATOM     15  H3  UNL     1     -20.544 -30.966  11.693  1.00  0.00     0.169 HD
BRANCH  14  16
HETATM   16  C4  UNL     1     -22.024 -31.256  13.111  1.00  0.00     0.123 A
HETATM   17  C5  UNL     1     -22.758 -32.430  12.893  1.00  0.00     0.137 A
HETATM   18  N4  UNL     1     -23.983 -32.263  13.415  1.00  0.00    -0.358 N
HETATM   19  C6  UNL     1     -24.058 -31.036  13.953  1.00  0.00     0.182 A
ATOM     20  H4  UNL     1     -24.733 -32.954  13.404  1.00  0.00     0.166 HD
HETATM   21  N5  UNL     1     -22.865 -30.422  13.767  1.00  0.00    -0.337 N
ATOM     22  H5  UNL     1     -22.636 -29.476  14.075  1.00  0.00     0.168 HD
ENDBRANCH  14  16
ENDBRANCH   9  14
TORSDOF 2
ENDMDL