MODEL 1
REMARK VINA RESULT: -7.115475158      0.000      0.000
REMARK  1 active torsions:
REMARK  status: ('A' for Active; 'I' for Inactive)
REMARK    1  A    between atoms: C3_4  and  N2_5
ROOT
HETATM    1  N1  UNL     1     -22.461 -30.319  16.700  1.00  0.00    -0.191 NA
HETATM    2  C1  UNL     1     -22.371 -30.822  15.662  1.00  0.00     0.109 C
HETATM    3  C2  UNL     1     -22.248 -31.466  14.367  1.00  0.00     0.157 A
HETATM    4  C3  UNL     1     -21.037 -31.600  13.715  1.00  0.00     0.154 A
HETATM    5  N5  UNL     1     -20.969 -32.204  12.514  1.00  0.00    -0.292 N
ATOM      6  H5  UNL     1     -20.074 -32.300  12.035  1.00  0.00     0.172 HD
HETATM    7  C7  UNL     1     -22.106 -32.683  11.946  1.00  0.00     0.328 A
HETATM    8  O1  UNL     1     -22.011 -33.242  10.830  1.00  0.00    -0.247 OA
HETATM    9  N6  UNL     1     -23.303 -32.580  12.534  1.00  0.00    -0.274 N
ATOM     10  H6  UNL     1     -24.142 -32.948  12.086  1.00  0.00     0.173 HD
HETATM   11  C8  UNL     1     -23.370 -31.973  13.737  1.00  0.00     0.274 A
HETATM   12  O2  UNL     1     -24.470 -31.860  14.309  1.00  0.00    -0.266 OA
ENDROOT
BRANCH   4  13
HETATM   13  N2  UNL     1     -19.858 -31.117  14.297  1.00  0.00    -0.165 N
HETATM   14  C4  UNL     1     -18.965 -31.962  15.087  1.00  0.00     0.169 C
HETATM   15  C5  UNL     1     -17.930 -31.049  15.684  1.00  0.00     0.159 C
HETATM   16  N3  UNL     1     -18.313 -29.697  15.347  1.00  0.00    -0.225 N
HETATM   17  C6  UNL     1     -19.266 -29.831  14.288  1.00  0.00     0.675 C
ATOM     18  H3  UNL     1     -17.977 -28.834  15.773  1.00  0.00     0.177 HD
HETATM   19  N4  UNL     1     -19.530 -28.889  13.468  1.00  0.00    -0.235 N
ATOM     20  H42 UNL     1     -20.209 -28.985  12.712  1.00  0.00     0.174 HD
ATOM     21  H41 UNL     1     -19.103 -27.963  13.461  1.00  0.00     0.174 HD
ENDBRANCH   4  13
TORSDOF 1
ENDMDL