MODEL 2
REMARK VINA RESULT: -6.181479963      1.653      2.561
REMARK  4 active torsions:
REMARK  status: ('A' for Active; 'I' for Inactive)
REMARK    1  A    between atoms: N1_1  and  C1_4
REMARK    2  A    between atoms: C2_7  and  N3_8
REMARK    3  A    between atoms: N4_11  and  O1_12
REMARK    4  A    between atoms: C4_17  and  N6_18
ROOT
HETATM    1  C1  UNL     1     -18.694 -30.203  17.468  1.00  0.00     0.147 A
HETATM    2  N2  UNL     1     -17.563 -29.528  17.196  1.00  0.00    -0.173 N
ATOM      3  H2  UNL     1     -17.008 -29.154  17.966  1.00  0.00     0.186 HD
HETATM    4  C2  UNL     1     -17.148 -29.335  15.930  1.00  0.00     0.705 A
HETATM    5  N4  UNL     1     -17.826 -29.797  14.864  1.00  0.00    -0.033 N
HETATM    6  C3  UNL     1     -18.956 -30.475  15.032  1.00  0.00     0.198 A
HETATM    7  N5  UNL     1     -19.708 -30.978  14.025  1.00  0.00    -0.170 N
ATOM      8  H5  UNL     1     -19.414 -30.843  13.057  1.00  0.00     0.186 HD
HETATM    9  C4  UNL     1     -20.834 -31.650  14.290  1.00  0.00     0.696 A
HETATM   10  N7  UNL     1     -21.237 -31.836  15.559  1.00  0.00    -0.131 N
ATOM     11  H7  UNL     1     -22.100 -32.352  15.731  1.00  0.00     0.205 HD
HETATM   12  N8  UNL     1     -20.555 -31.373  16.593  1.00  0.00    -0.280 N
ATOM     13  H8  UNL     1     -20.896 -31.536  17.540  1.00  0.00     0.188 HD
HETATM   14  C7  UNL     1     -19.422 -30.695  16.403  1.00  0.00     0.140 A
ENDROOT
BRANCH   1  15
HETATM   15  N1  UNL     1     -19.053 -30.364  18.686  1.00  0.00    -0.383 N
ATOM     16  H12 UNL     1     -18.551 -29.945  19.469  1.00  0.00     0.157 HD
ATOM     17  H11 UNL     1     -19.872 -30.933  18.896  1.00  0.00     0.157 HD
ENDBRANCH   1  15
BRANCH   4  18
HETATM   18  N3  UNL     1     -16.056 -28.682  15.723  1.00  0.00    -0.232 N
ATOM     19  H32 UNL     1     -15.222 -28.956  16.243  1.00  0.00     0.174 HD
ATOM     20  H31 UNL     1     -16.056 -27.916  15.049  1.00  0.00     0.174 HD
ENDBRANCH   4  18
BRANCH   5  21
HETATM   21  O1  UNL     1     -17.359 -29.573  13.574  1.00  0.00    -0.268 OA
ATOM     22  H1  UNL     1     -17.809 -28.971  12.993  1.00  0.00     0.246 HD
ENDBRANCH   5  21
BRANCH   9  23
HETATM   23  N6  UNL     1     -21.614 -32.173  13.228  1.00  0.00    -0.213 N
HETATM   24  C5  UNL     1     -22.889 -32.596  12.634  1.00  0.00     0.161 A
HETATM   25  C6  UNL     1     -21.712 -32.709  11.854  1.00  0.00     0.161 A
ENDBRANCH   9  23
TORSDOF 4
ENDMDL