MODEL 1
REMARK VINA RESULT: -6.319904980      0.000      0.000
REMARK  4 active torsions:
REMARK  status: ('A' for Active; 'I' for Inactive)
REMARK    1  A    between atoms: C1_2  and  C2_4
REMARK       I    between atoms: C2_4  and  N2_6
REMARK    2  A    between atoms: N2_6  and  C3_8
REMARK    3  A    between atoms: C3_8  and  N3_10
REMARK    4  A    between atoms: N3_10  and  C4_12
ROOT
HETATM    1  C3  UNL     1     -22.110 -32.525  13.052  1.00  0.00     0.181 C
HETATM    2  S1  UNL     1     -21.643 -32.946  11.528  1.00  0.00    -0.040 SA
ENDROOT
BRANCH   1   3
HETATM    3  N2  UNL     1     -23.482 -32.412  13.300  1.00  0.00    -0.296 N
HETATM    4  C2  UNL     1     -24.202 -31.288  13.744  1.00  0.00     0.312 C
HETATM    5  O2  UNL     1     -23.621 -30.211  13.971  1.00  0.00    -0.262 OA
ATOM      6  H2  UNL     1     -24.032 -33.256  13.137  1.00  0.00     0.171 HD
BRANCH   4   7
HETATM    7  C1  UNL     1     -25.639 -31.321  13.959  1.00  0.00     0.322 C
HETATM    8  N1  UNL     1     -26.487 -32.160  13.203  1.00  0.00    -0.053 NA
HETATM    9  O1  UNL     1     -26.148 -30.587  14.836  1.00  0.00    -0.266 OA
ENDBRANCH   4   7
ENDBRANCH   1   3
BRANCH   1  10
HETATM   10  N3  UNL     1     -21.089 -32.311  13.984  1.00  0.00    -0.305 N
ATOM     11  H3  UNL     1     -20.944 -32.977  14.743  1.00  0.00     0.171 HD
BRANCH  10  12
HETATM   12  C4  UNL     1     -20.234 -31.138  13.869  1.00  0.00     0.177 A
HETATM   13  N4  UNL     1     -19.027 -31.067  14.279  1.00  0.00    -0.361 N
HETATM   14  C5  UNL     1     -18.439 -29.775  14.025  1.00  0.00     0.142 A
ATOM     15  H4  UNL     1     -18.534 -31.836  14.733  1.00  0.00     0.162 HD
HETATM   16  C6  UNL     1     -19.503 -28.997  13.301  1.00  0.00     0.142 A
HETATM   17  N5  UNL     1     -20.617 -29.907  13.289  1.00  0.00    -0.361 N
ATOM     18  H5  UNL     1     -21.543 -29.696  12.917  1.00  0.00     0.162 HD
ENDBRANCH  10  12
ENDBRANCH   1  10
TORSDOF 4
ENDMDL