MODEL 5
REMARK VINA RESULT: -6.360567103      2.697      5.323
REMARK  5 active torsions:
REMARK  status: ('A' for Active; 'I' for Inactive)
REMARK    1  A    between atoms: N1_1  and  C1_4
REMARK    2  A    between atoms: N3_8  and  O1_9
REMARK    3  A    between atoms: C3_11  and  S1_12
REMARK    4  A    between atoms: S1_12  and  N4_13
REMARK    5  A    between atoms: N5_19  and  O3_20
ROOT
HETATM    1  C1  UNL     1     -20.586 -30.417  15.797  1.00  0.00     0.694 A
HETATM    2  N2  UNL     1     -21.664 -31.136  15.457  1.00  0.00    -0.171 N
ATOM      3  H2  UNL     1     -22.420 -31.261  16.130  1.00  0.00     0.186 HD
HETATM    4  C2  UNL     1     -21.763 -31.701  14.229  1.00  0.00     0.180 A
HETATM    5  N3  UNL     1     -22.667 -32.448  13.595  1.00  0.00    -0.195 N
HETATM    6  C3  UNL     1     -22.265 -32.752  12.350  1.00  0.00     0.154 A
HETATM    7  C4  UNL     1     -21.032 -32.174  12.150  1.00  0.00     0.081 A
HETATM    8  C5  UNL     1     -20.673 -31.504  13.299  1.00  0.00     0.131 A
HETATM    9  N5  UNL     1     -19.626 -30.782  13.689  1.00  0.00    -0.145 N
HETATM   10  N6  UNL     1     -19.590 -30.254  14.909  1.00  0.00    -0.105 N
ATOM     11  H6  UNL     1     -18.775 -29.705  15.182  1.00  0.00     0.208 HD
ENDROOT
BRANCH   6  12
HETATM   12  S1  UNL     1     -23.230 -33.716  11.274  1.00  0.00     0.163 S
HETATM   13  O2  UNL     1     -22.766 -33.644   9.702  1.00  0.00    -0.229 OA
BRANCH  12  14
HETATM   14  N4  UNL     1     -24.895 -33.540  11.556  1.00  0.00    -0.344 NA
ATOM     15  H42 UNL     1     -25.182 -33.575  12.535  1.00  0.00     0.166 HD
ATOM     16  H41 UNL     1     -25.460 -34.115  10.932  1.00  0.00     0.166 HD
ENDBRANCH  12  14
ENDBRANCH   6  12
BRANCH   5  17
HETATM   17  O1  UNL     1     -23.859 -32.829  14.212  1.00  0.00    -0.280 OA
ATOM     18  H1  UNL     1     -23.895 -33.031  15.139  1.00  0.00     0.245 HD
ENDBRANCH   5  17
BRANCH   9  19
HETATM   19  O3  UNL     1     -18.597 -30.599  12.806  1.00  0.00    -0.267 OA
ATOM     20  H3  UNL     1     -17.770 -30.271  13.138  1.00  0.00     0.247 HD
ENDBRANCH   9  19
BRANCH   1  21
HETATM   21  N1  UNL     1     -20.471 -29.864  16.976  1.00  0.00    -0.233 N
ATOM     22  H12 UNL     1     -19.838 -30.288  17.655  1.00  0.00     0.174 HD
ATOM     23  H11 UNL     1     -20.995 -29.027  17.230  1.00  0.00     0.174 HD
ENDBRANCH   1  21
TORSDOF 5
ENDMDL