MODEL 2
REMARK VINA RESULT: -6.764490140      2.545      5.324
REMARK  4 active torsions:
REMARK  status: ('A' for Active; 'I' for Inactive)
REMARK    1  A    between atoms: N2_7  and  N3_8
REMARK    2  A    between atoms: N3_8  and  C4_10
REMARK    3  A    between atoms: C4_10  and  N4_12
REMARK    4  A    between atoms: N4_12  and  C5_14
ROOT
HETATM    1  C4  UNL     1     -22.524 -32.078  14.118  1.00  0.00     0.205 C
HETATM    2  S1  UNL     1     -23.737 -31.011  13.925  1.00  0.00    -0.039 SA
ENDROOT
BRANCH   1   3
HETATM    3  N3  UNL     1     -21.400 -31.713  14.893  1.00  0.00    -0.269 N
ATOM      4  H3  UNL     1     -21.419 -31.957  15.883  1.00  0.00     0.189 HD
BRANCH   3   5
HETATM    5  N2  UNL     1     -20.284 -31.060  14.431  1.00  0.00    -0.239 N
HETATM    6  C1  UNL     1     -19.330 -30.405  15.295  1.00  0.00     0.337 C
HETATM    7  O1  UNL     1     -19.187 -30.659  16.536  1.00  0.00    -0.245 OA
HETATM    8  N1  UNL     1     -18.601 -29.455  14.532  1.00  0.00    -0.340 N
HETATM    9  C2  UNL     1     -19.239 -29.408  13.232  1.00  0.00     0.146 C
ATOM     10  H1  UNL     1     -17.792 -28.915  14.838  1.00  0.00     0.164 HD
HETATM   11  C3  UNL     1     -19.753 -30.835  13.100  1.00  0.00     0.173 C
ENDBRANCH   3   5
ENDBRANCH   1   3
BRANCH   1  12
HETATM   12  N4  UNL     1     -22.612 -33.353  13.509  1.00  0.00    -0.163 N
ATOM     13  H4  UNL     1     -22.590 -34.179  14.108  1.00  0.00     0.187 HD
BRANCH  12  14
HETATM   14  C5  UNL     1     -22.718 -33.521  12.235  1.00  0.00     0.710 A
HETATM   15  N5  UNL     1     -23.623 -34.281  11.589  1.00  0.00    -0.117 N
HETATM   16  N6  UNL     1     -23.407 -34.198  10.279  1.00  0.00     0.006 NA
ATOM     17  H5  UNL     1     -24.356 -34.833  12.034  1.00  0.00     0.202 HD
HETATM   18  N7  UNL     1     -22.377 -33.396  10.068  1.00  0.00     0.006 NA
HETATM   19  N8  UNL     1     -21.964 -32.990  11.258  1.00  0.00    -0.117 N
ATOM     20  H8  UNL     1     -21.179 -32.358  11.413  1.00  0.00     0.202 HD
ENDBRANCH  12  14
ENDBRANCH   1  12
TORSDOF 4
ENDMDL