MODEL 4
REMARK VINA RESULT: -5.537805374      2.408      6.287
REMARK  3 active torsions:
REMARK  status: ('A' for Active; 'I' for Inactive)
REMARK    1  A    between atoms: C3_6  and  N3_7
REMARK    2  A    between atoms: N3_7  and  C4_9
REMARK    3  A    between atoms: N6_16  and  O1_17
ROOT
HETATM    1  N1  UNL     1      -2.363  10.355   7.364  1.00  0.00    -0.078 NA
HETATM    2  C1  UNL     1      -3.212   9.484   8.105  1.00  0.00     0.178 A
HETATM    3  C2  UNL     1      -3.826   9.776   9.295  1.00  0.00     0.154 A
HETATM    4  N2  UNL     1      -4.531   8.670   9.641  1.00  0.00    -0.196 N
ATOM      5  H2  UNL     1      -5.099   8.578  10.483  1.00  0.00     0.183 HD
HETATM    6  C3  UNL     1      -4.373   7.716   8.714  1.00  0.00     0.712 A
HETATM    7  N6  UNL     1      -3.562   8.227   7.777  1.00  0.00    -0.037 N
ENDROOT
BRANCH   6   8
HETATM    8  N3  UNL     1      -4.919   6.415   8.668  1.00  0.00    -0.159 N
ATOM      9  H3  UNL     1      -4.463   5.706   8.095  1.00  0.00     0.187 HD
BRANCH   8  10
HETATM   10  C4  UNL     1      -6.097   6.065   9.405  1.00  0.00     0.190 C
HETATM   11  N4  UNL     1      -6.084   5.191  10.355  1.00  0.00    -0.360 N
HETATM   12  C5  UNL     1      -7.412   5.034  10.927  1.00  0.00     0.142 C
ATOM     13  H4  UNL     1      -5.256   4.681  10.662  1.00  0.00     0.162 HD
HETATM   14  C6  UNL     1      -8.318   5.641   9.848  1.00  0.00     0.142 C
HETATM   15  N5  UNL     1      -7.405   6.583   9.234  1.00  0.00    -0.360 N
ATOM     16  H5  UNL     1      -7.655   7.454   8.767  1.00  0.00     0.162 HD
ENDBRANCH   8  10
ENDBRANCH   6   8
BRANCH   7  17
HETATM   17  O1  UNL     1      -3.114   7.597   6.617  1.00  0.00    -0.268 OA
ATOM     18  H1  UNL     1      -2.838   6.687   6.598  1.00  0.00     0.246 HD
ENDBRANCH   7  17
TORSDOF 3
ENDMDL