MODEL 1
REMARK VINA RESULT: -5.675214447      0.000      0.000
REMARK  2 active torsions:
REMARK  status: ('A' for Active; 'I' for Inactive)
REMARK    1  A    between atoms: N1_1  and  C1_4
REMARK    2  A    between atoms: N4_13  and  C5_14
ROOT
HETATM    1  C1  UNL     1      -4.181   7.630   7.477  1.00  0.00     0.680 A
HETATM    2  N2  UNL     1      -4.226   7.027   8.679  1.00  0.00    -0.154 N
ATOM      3  H2  UNL     1      -3.376   6.598   9.045  1.00  0.00     0.187 HD
HETATM    4  C2  UNL     1      -5.346   6.970   9.412  1.00  0.00     0.290 A
HETATM    5  O1  UNL     1      -5.421   6.419  10.531  1.00  0.00    -0.265 OA
HETATM    6  C3  UNL     1      -6.485   7.551   8.907  1.00  0.00     0.148 A
HETATM    7  N3  UNL     1      -7.743   7.668   9.377  1.00  0.00    -0.344 N
ATOM      8  H3  UNL     1      -8.065   7.301  10.273  1.00  0.00     0.167 HD
HETATM    9  C4  UNL     1      -8.511   8.332   8.507  1.00  0.00     0.193 A
HETATM   10  N4  UNL     1      -7.709   8.647   7.447  1.00  0.00    -0.269 N
HETATM   11  C6  UNL     1      -6.466   8.184   7.660  1.00  0.00     0.163 A
HETATM   12  N5  UNL     1      -5.296   8.196   6.989  1.00  0.00    -0.174 N
ATOM     13  H5  UNL     1      -5.258   8.651   6.077  1.00  0.00     0.186 HD
ENDROOT
BRANCH   1  14
HETATM   14  N1  UNL     1      -3.047   7.638   6.832  1.00  0.00    -0.234 N
ATOM     15  H12 UNL     1      -2.428   6.827   6.797  1.00  0.00     0.174 HD
ATOM     16  H11 UNL     1      -2.773   8.492   6.348  1.00  0.00     0.174 HD
ENDBRANCH   1  14
BRANCH  10  17
HETATM   17  C5  UNL     1      -8.126   9.360   6.284  1.00  0.00     0.362 C
HETATM   18  O2  UNL     1      -8.289   8.802   5.177  1.00  0.00    -0.283 OA
ENDBRANCH  10  17
TORSDOF 2
ENDMDL