MODEL 5
REMARK VINA RESULT: -4.999388889      3.035      3.696
REMARK  1 active torsions:
REMARK  status: ('A' for Active; 'I' for Inactive)
REMARK    1  A    between atoms: N3_6  and  C3_7
ROOT
HETATM    1  C3  UNL     1      -7.233   7.843   8.704  1.00  0.00     0.116 A
HETATM    2  C4  UNL     1      -6.299   7.117   9.404  1.00  0.00     0.103 A
HETATM    3  C5  UNL     1      -6.699   6.087  10.226  1.00  0.00     0.178 A
HETATM    4  O1  UNL     1      -5.878   5.414  10.872  1.00  0.00    -0.288 OA
HETATM    5  C6  UNL     1      -8.047   5.811  10.326  1.00  0.00     0.100 A
HETATM    6  C7  UNL     1      -8.926   6.579   9.597  1.00  0.00     0.121 A
HETATM    7  N4  UNL     1     -10.329   6.249   9.723  1.00  0.00    -0.083 NA
HETATM    8  N5  UNL     1      -8.536   7.584   8.794  1.00  0.00    -0.331 N
ATOM      9  H5  UNL     1      -9.217   8.131   8.270  1.00  0.00     0.168 HD
ENDROOT
BRANCH   1  10
HETATM   10  N3  UNL     1      -6.829   8.910   7.842  1.00  0.00    -0.290 N
HETATM   11  C1  UNL     1      -7.175   9.205   6.486  1.00  0.00     0.194 A
HETATM   12  N1  UNL     1      -8.029   8.563   5.524  1.00  0.00    -0.063 NA
HETATM   13  N2  UNL     1      -6.436  10.239   6.485  1.00  0.00    -0.348 N
HETATM   14  C2  UNL     1      -6.004  10.074   7.835  1.00  0.00     0.259 A
ATOM     15  H2  UNL     1      -6.226  10.938   5.772  1.00  0.00     0.163 HD
ENDBRANCH   1  10
TORSDOF 1
ENDMDL