MODEL 1
REMARK VINA RESULT: -5.261036379      0.000      0.000
REMARK  3 active torsions:
REMARK  status: ('A' for Active; 'I' for Inactive)
REMARK    1  A    between atoms: N1_1  and  N2_4
REMARK    2  A    between atoms: N2_4  and  C1_6
REMARK    3  A    between atoms: C4_11  and  N4_12
ROOT
HETATM    1  C1  UNL     1      -4.847   6.977   9.004  1.00  0.00     0.136 A
HETATM    2  C2  UNL     1      -5.252   8.174   9.549  1.00  0.00     0.068 A
HETATM    3  C3  UNL     1      -6.417   8.249  10.286  1.00  0.00     0.110 A
HETATM    4  N3  UNL     1      -7.115   7.095  10.434  1.00  0.00    -0.202 N
ATOM      5  H3  UNL     1      -7.982   7.111  10.972  1.00  0.00     0.183 HD
HETATM    6  C4  UNL     1      -6.710   5.934   9.899  1.00  0.00     0.683 A
HETATM    7  N6  UNL     1      -5.575   5.865   9.181  1.00  0.00    -0.175 N
ATOM      8  H6  UNL     1      -5.272   4.979   8.776  1.00  0.00     0.186 HD
ENDROOT
BRANCH   6   9
HETATM    9  N4  UNL     1      -7.523   4.760  10.111  1.00  0.00    -0.192 N
HETATM   10  C5  UNL     1      -7.191   3.612  10.916  1.00  0.00     0.170 C
HETATM   11  C6  UNL     1      -7.946   2.478  10.259  1.00  0.00     0.254 C
HETATM   12  N5  UNL     1      -8.951   3.066   9.421  1.00  0.00    -0.057 N
HETATM   13  C7  UNL     1      -8.837   4.508   9.551  1.00  0.00     0.374 C
ATOM     14  H52 UNL     1      -8.898   2.748   8.453  1.00  0.00     0.279 HD
ATOM     15  H51 UNL     1      -9.889   2.720   9.623  1.00  0.00     0.279 HD
ENDBRANCH   6   9
BRANCH   1  16
HETATM   16  N2  UNL     1      -3.759   6.900   8.314  1.00  0.00    -0.292 N
ATOM     17  H2  UNL     1      -2.997   6.316   8.657  1.00  0.00     0.188 HD
BRANCH  16  18
HETATM   18  N1  UNL     1      -3.592   7.581   7.128  1.00  0.00    -0.344 N
ATOM     19  H12 UNL     1      -4.421   7.764   6.562  1.00  0.00     0.176 HD
ATOM     20  H11 UNL     1      -2.678   7.901   6.809  1.00  0.00     0.176 HD
ENDBRANCH  16  18
ENDBRANCH   1  16
TORSDOF 3
ENDMDL