MODEL 2
REMARK VINA RESULT: -5.110103066      2.466      2.877
REMARK  1 active torsions:
REMARK  status: ('A' for Active; 'I' for Inactive)
REMARK    1  A    between atoms: C2_3  and  N2_4
ROOT
HETATM    1  N1  UNL     1      -4.800   7.226  10.068  1.00  0.00    -0.092 NA
HETATM    2  C1  UNL     1      -4.320   8.406   9.408  1.00  0.00     0.164 A
HETATM    3  C2  UNL     1      -4.593   8.651   8.083  1.00  0.00     0.207 A
HETATM    4  N3  UNL     1      -4.133   9.764   7.491  1.00  0.00    -0.288 N
ATOM      5  H3  UNL     1      -4.331   9.955   6.508  1.00  0.00     0.172 HD
HETATM    6  C3  UNL     1      -3.407  10.617   8.225  1.00  0.00     0.328 A
HETATM    7  O3  UNL     1      -2.986  11.664   7.626  1.00  0.00    -0.247 OA
HETATM    8  N4  UNL     1      -3.132  10.394   9.512  1.00  0.00    -0.274 N
ATOM      9  H4  UNL     1      -2.574  11.074  10.028  1.00  0.00     0.173 HD
HETATM   10  C4  UNL     1      -3.573   9.297  10.144  1.00  0.00     0.277 A
HETATM   11  O4  UNL     1      -3.304   9.094  11.376  1.00  0.00    -0.266 OA
ENDROOT
BRANCH   3  12
HETATM   12  N2  UNL     1      -5.372   7.705   7.354  1.00  0.00    -0.096 N
HETATM   13  O1  UNL     1      -6.596   7.924   7.147  1.00  0.00    -0.530 OA
HETATM   14  O2  UNL     1      -4.748   6.578   6.899  1.00  0.00    -0.530 OA
ENDBRANCH   3  12
TORSDOF 1
ENDMDL