MODEL 3
REMARK VINA RESULT: -5.653537703      3.196      6.697
REMARK  1 active torsions:
REMARK  status: ('A' for Active; 'I' for Inactive)
REMARK    1  A    between atoms: C4_7  and  C5_8
ROOT
HETATM    1  O1  UNL     1      -6.962   3.349  11.167  1.00  0.00    -0.268 OA
HETATM    2  C1  UNL     1      -6.943   4.560  10.860  1.00  0.00     0.248 A
HETATM    3  C2  UNL     1      -7.907   5.377  11.447  1.00  0.00     0.091 A
HETATM    4  C3  UNL     1      -7.883   6.703  11.108  1.00  0.00     0.095 A
HETATM    5  N1  UNL     1      -6.949   7.173  10.238  1.00  0.00    -0.349 N
ATOM      6  H1  UNL     1      -6.954   8.165  10.003  1.00  0.00     0.167 HD
HETATM    7  C4  UNL     1      -6.031   6.390   9.682  1.00  0.00     0.154 A
HETATM    8  N5  UNL     1      -6.042   5.085  10.004  1.00  0.00    -0.306 N
ATOM      9  H5  UNL     1      -5.344   4.470   9.587  1.00  0.00     0.170 HD
ENDROOT
BRANCH   7  10
HETATM   10  C5  UNL     1      -5.041   6.923   8.752  1.00  0.00     0.169 A
HETATM   11  N2  UNL     1      -4.206   7.971   8.984  1.00  0.00    -0.289 N
HETATM   12  C6  UNL     1      -3.449   8.154   7.891  1.00  0.00     0.340 A
ATOM     13  H2  UNL     1      -4.163   8.523   9.841  1.00  0.00     0.172 HD
HETATM   14  O2  UNL     1      -2.563   9.026   7.731  1.00  0.00    -0.245 OA
HETATM   15  N3  UNL     1      -3.783   7.241   6.964  1.00  0.00    -0.250 N
HETATM   16  N4  UNL     1      -4.743   6.516   7.510  1.00  0.00    -0.278 N
ATOM     17  H3  UNL     1      -3.382   7.132   6.033  1.00  0.00     0.192 HD
ATOM     18  H4  UNL     1      -5.203   5.736   7.041  1.00  0.00     0.189 HD
ENDBRANCH   7  10
TORSDOF 1
ENDMDL