MODEL 2
REMARK VINA RESULT: -5.578705017      1.038      1.352
REMARK  2 active torsions:
REMARK  status: ('A' for Active; 'I' for Inactive)
REMARK    1  A    between atoms: C3_6  and  N2_7
REMARK    2  A    between atoms: N2_7  and  N3_9
ROOT
HETATM    1  N2  UNL     1      -2.655  10.454   8.004  1.00  0.00    -0.271 N
ATOM      2  H2  UNL     1      -2.738  11.211   8.683  1.00  0.00     0.190 HD
ENDROOT
BRANCH   1   3
HETATM    3  C3  UNL     1      -3.311   9.211   8.229  1.00  0.00     0.197 A
HETATM    4  N1  UNL     1      -3.512   8.343   7.297  1.00  0.00    -0.352 N
HETATM    5  C2  UNL     1      -4.196   7.175   7.793  1.00  0.00     0.225 A
ATOM      6  H1  UNL     1      -3.223   8.468   6.327  1.00  0.00     0.163 HD
HETATM    7  C1  UNL     1      -4.400   7.454   9.231  1.00  0.00     0.242 A
HETATM    8  O1  UNL     1      -4.967   6.709  10.101  1.00  0.00    -0.271 OA
HETATM    9  N5  UNL     1      -3.833   8.736   9.463  1.00  0.00    -0.296 N
ATOM     10  H5  UNL     1      -3.805   9.228  10.356  1.00  0.00     0.172 HD
ENDBRANCH   1   3
BRANCH   1  11
HETATM   11  N3  UNL     1      -1.900  10.624   6.851  1.00  0.00    -0.304 N
HETATM   12  C4  UNL     1      -1.199  11.678   6.689  1.00  0.00     0.031 C
HETATM   13  C5  UNL     1      -1.083  12.812   7.640  1.00  0.00     0.083 C
HETATM   14  C7  UNL     1      -0.334  12.039   5.534  1.00  0.00     0.286 C
HETATM   15  C6  UNL     1      -0.083  13.742   6.981  1.00  0.00     0.238 C
HETATM   16  N4  UNL     1       0.718  12.809   6.208  1.00  0.00    -0.070 N
ATOM     17  H42 UNL     1       1.416  13.230   5.595  1.00  0.00     0.277 HD
ATOM     18  H41 UNL     1       1.391  12.259   6.743  1.00  0.00     0.277 HD
ATOM     19  H3  UNL     1      -1.906   9.903   6.130  1.00  0.00     0.186 HD
ENDBRANCH   1  11
TORSDOF 2
ENDMDL