MODEL 5
REMARK VINA RESULT: -5.428224031      1.734      2.213
REMARK  3 active torsions:
REMARK  status: ('A' for Active; 'I' for Inactive)
REMARK    1  A    between atoms: N1_1  and  N2_4
REMARK       I    between atoms: N2_4  and  C1_6
REMARK       I    between atoms: C1_6  and  N3_8
REMARK    2  A    between atoms: C3_10  and  C4_11
REMARK    3  A    between atoms: C6_15  and  O3_16
ROOT
HETATM    1  N2  UNL     1      -3.273   9.838   7.424  1.00  0.00    -0.258 N
ATOM      2  H2  UNL     1      -4.059  10.421   7.136  1.00  0.00     0.191 HD
HETATM    3  C1  UNL     1      -3.542   8.638   8.096  1.00  0.00     0.346 C
HETATM    4  O1  UNL     1      -2.524   7.946   8.434  1.00  0.00    -0.245 OA
HETATM    5  N3  UNL     1      -4.812   8.116   8.437  1.00  0.00    -0.253 N
HETATM    6  C2  UNL     1      -5.035   6.935   9.097  1.00  0.00     0.120 A
HETATM    7  C3  UNL     1      -6.384   6.740   9.260  1.00  0.00     0.049 A
HETATM    8  C5  UNL     1      -6.973   7.833   8.682  1.00  0.00     0.074 A
HETATM    9  C6  UNL     1      -5.988   8.688   8.171  1.00  0.00     0.151 A
ENDROOT
BRANCH   9  10
HETATM   10  O3  UNL     1      -6.300   9.887   7.524  1.00  0.00    -0.346 OA
ATOM     11  H3  UNL     1      -5.997  10.775   7.673  1.00  0.00     0.219 HD
ENDBRANCH   9  10
BRANCH   1  12
HETATM   12  N1  UNL     1      -1.976  10.274   7.130  1.00  0.00    -0.341 N
ATOM     13  H12 UNL     1      -1.445   9.739   6.443  1.00  0.00     0.177 HD
ATOM     14  H11 UNL     1      -1.550  11.089   7.570  1.00  0.00     0.177 HD
ENDBRANCH   1  12
BRANCH   7  15
HETATM   15  C4  UNL     1      -7.078   5.625   9.903  1.00  0.00     0.266 C
HETATM   16  N4  UNL     1      -6.452   4.843  10.899  1.00  0.00    -0.057 NA
HETATM   17  O2  UNL     1      -8.258   5.352   9.565  1.00  0.00    -0.271 OA
ENDBRANCH   7  15
TORSDOF 3
ENDMDL