MODEL 1
REMARK VINA RESULT: -5.442722033      0.000      0.000
REMARK  3 active torsions:
REMARK  status: ('A' for Active; 'I' for Inactive)
REMARK    1  A    between atoms: C2_5  and  N3_6
REMARK    2  A    between atoms: C2_5  and  C3_11
REMARK    3  A    between atoms: N3_6  and  N4_8
ROOT
HETATM    1  N1  UNL     1      -6.434   4.924  10.705  1.00  0.00    -0.172 NA
HETATM    2  C1  UNL     1      -5.978   5.927  10.349  1.00  0.00     0.183 C
HETATM    3  N2  UNL     1      -5.416   7.129   9.937  1.00  0.00    -0.276 N
ATOM      4  H2  UNL     1      -5.613   7.964  10.488  1.00  0.00     0.179 HD
HETATM    5  C2  UNL     1      -4.662   7.251   8.902  1.00  0.00     0.157 C
ENDROOT
BRANCH   5   6
HETATM    6  N3  UNL     1      -4.383   6.092   8.129  1.00  0.00    -0.290 N
ATOM      7  H3  UNL     1      -3.865   5.303   8.514  1.00  0.00     0.188 HD
BRANCH   6   8
HETATM    8  N4  UNL     1      -4.857   6.088   6.805  1.00  0.00    -0.344 N
ATOM      9  H42 UNL     1      -4.247   6.356   6.032  1.00  0.00     0.176 HD
ATOM     10  H41 UNL     1      -5.827   5.806   6.667  1.00  0.00     0.176 HD
ENDBRANCH   6   8
ENDBRANCH   5   6
BRANCH   5  11
HETATM   11  C3  UNL     1      -4.082   8.505   8.483  1.00  0.00     0.094 A
HETATM   12  C4  UNL     1      -2.867   8.505   7.836  1.00  0.00     0.124 A
HETATM   13  N5  UNL     1      -2.377   9.704   7.470  1.00  0.00    -0.330 N
HETATM   14  C5  UNL     1      -3.007  10.861   7.706  1.00  0.00     0.260 A
ATOM     15  H5  UNL     1      -1.478   9.733   6.988  1.00  0.00     0.168 HD
HETATM   16  O1  UNL     1      -2.490  11.954   7.335  1.00  0.00    -0.267 OA
HETATM   17  C6  UNL     1      -4.235  10.846   8.361  1.00  0.00     0.163 A
HETATM   18  N6  UNL     1      -4.730   9.671   8.727  1.00  0.00    -0.357 N
ATOM     19  H6  UNL     1      -5.629   9.643   9.209  1.00  0.00     0.165 HD
ENDBRANCH   5  11
TORSDOF 3
ENDMDL