MODEL 1
REMARK VINA RESULT: -4.850343394      0.000      0.000
REMARK  3 active torsions:
REMARK  status: ('A' for Active; 'I' for Inactive)
REMARK    1  A    between atoms: C2_3  and  C3_4
REMARK    2  A    between atoms: C2_3  and  C7_13
REMARK    3  A    between atoms: C3_4  and  C4_5
ROOT
HETATM    1  N1  UNL     1      -9.423   7.661   8.954  1.00  0.00    -0.191 NA
HETATM    2  C1  UNL     1      -8.520   8.261   8.481  1.00  0.00     0.104 C
HETATM    3  C2  UNL     1      -7.410   8.976   7.923  1.00  0.00     0.111 C
ENDROOT
BRANCH   3   4
HETATM    4  C3  UNL     1      -6.385   9.251   8.707  1.00  0.00     0.061 C
BRANCH   4   5
HETATM    5  C4  UNL     1      -5.059   8.668   8.428  1.00  0.00     0.076 A
HETATM    6  N2  UNL     1      -4.100   9.139   7.612  1.00  0.00    -0.350 N
HETATM    7  C5  UNL     1      -3.033   8.334   7.681  1.00  0.00     0.182 A
ATOM      8  H2  UNL     1      -4.174   9.975   7.034  1.00  0.00     0.166 HD
HETATM    9  N3  UNL     1      -3.270   7.317   8.544  1.00  0.00    -0.339 N
HETATM   10  C6  UNL     1      -4.508   7.517   9.005  1.00  0.00     0.144 A
ATOM     11  H3  UNL     1      -2.635   6.557   8.791  1.00  0.00     0.167 HD
HETATM   12  N4  UNL     1      -5.204   6.702   9.966  1.00  0.00    -0.080 NA
ENDBRANCH   4   5
ENDBRANCH   3   4
BRANCH   3  13
HETATM   13  C7  UNL     1      -7.389   9.390   6.513  1.00  0.00     0.275 C
HETATM   14  N5  UNL     1      -7.977   8.594   5.497  1.00  0.00    -0.057 NA
HETATM   15  O1  UNL     1      -6.820  10.496   6.243  1.00  0.00    -0.270 OA
ENDBRANCH   3  13
TORSDOF 3
ENDMDL