MODEL 4
REMARK VINA RESULT: -5.985889108      4.562      7.041
REMARK  10 active torsions:
REMARK  status: ('A' for Active; 'I' for Inactive)
REMARK    1  A    between atoms: C3_3  and  N1_4
REMARK    2  A    between atoms: N1_4  and  N2_5
REMARK    3  A    between atoms: C4_8  and  C5_9
REMARK    4  A    between atoms: C6_10  and  C7_11
REMARK    5  A    between atoms: C8_12  and  C9_13
REMARK    6  A    between atoms: C9_13  and  C11_15
REMARK    7  A    between atoms: C11_15  and  N3_16
REMARK       I    between atoms: N3_16  and  C12_17
REMARK    8  A    between atoms: C12_17  and  C13_19
REMARK    9  A    between atoms: C13_19  and  C14_20
REMARK   10  A    between atoms: C20_31  and  N6_32
REMARK       I    between atoms: N6_32  and  C21_34
ROOT
HETATM    1  C5  UNL     1      90.786  96.129 -44.888  1.00  0.00    -0.015 C
HETATM    2  C6  UNL     1      91.458  95.382 -45.743  1.00  0.00    -0.004 C
ENDROOT
BRANCH   1   3
HETATM    3  C4  UNL     1      90.757  97.604 -44.951  1.00  0.00     0.076 C
HETATM    4  C3  UNL     1      90.217  98.217 -43.726  1.00  0.00     0.123 C
HETATM    5  C2  UNL     1      88.846  98.659 -43.581  1.00  0.00    -0.005 C
HETATM    6  C1  UNL     1      88.450  99.323 -42.478  1.00  0.00     0.024 C
HETATM    7  C20 UNL     1      87.859  98.389 -44.641  1.00  0.00     0.123 C
HETATM    8  C18 UNL     1      88.485  97.647 -45.772  1.00  0.00     0.010 C
HETATM    9  C17 UNL     1      89.880  98.108 -46.101  1.00  0.00     0.022 C
HETATM   10  C19 UNL     1      87.663  97.654 -47.025  1.00  0.00     0.012 C
BRANCH   4  11
HETATM   11  N1  UNL     1      91.003  98.365 -42.744  1.00  0.00    -0.336 NA
BRANCH  11  12
HETATM   12  N2  UNL     1      91.970  98.441 -41.968  1.00  0.00    -0.280 N
ATOM     13  H22 UNL     1      92.001  97.427 -41.866  1.00  0.00     0.191 HD
ATOM     14  H21 UNL     1      92.742  98.729 -41.366  1.00  0.00     0.191 HD
ENDBRANCH  11  12
ENDBRANCH   4  11
BRANCH   7  15
HETATM   15  N6  UNL     1      87.152  99.572 -45.053  1.00  0.00    -0.352 N
HETATM   16  C21 UNL     1      85.787  99.801 -44.750  1.00  0.00     0.214 C
HETATM   17  C22 UNL     1      85.081 101.021 -45.181  1.00  0.00     0.117 C
HETATM   18  O3  UNL     1      85.183  98.901 -44.081  1.00  0.00    -0.274 OA
ATOM     19  H6  UNL     1      87.657 100.279 -45.587  1.00  0.00     0.163 HD
ENDBRANCH   7  15
ENDBRANCH   1   3
BRANCH   2  20
HETATM   20  C7  UNL     1      91.472  93.942 -45.661  1.00  0.00    -0.004 C
HETATM   21  C8  UNL     1      91.426  93.224 -46.761  1.00  0.00    -0.016 C
BRANCH  21  22
HETATM   22  C9  UNL     1      91.434  91.744 -46.792  1.00  0.00     0.056 C
HETATM   23  C10 UNL     1      92.531  91.291 -45.832  1.00  0.00     0.021 C
BRANCH  22  24
HETATM   24  C11 UNL     1      91.779  91.211 -48.150  1.00  0.00     0.167 C
BRANCH  24  25
HETATM   25  N3  UNL     1      91.037  91.167 -49.073  1.00  0.00    -0.387 NA
HETATM   26  C12 UNL     1      90.237  91.022 -50.106  1.00  0.00     0.296 C
HETATM   27  O1  UNL     1      90.510  91.598 -51.226  1.00  0.00    -0.257 OA
BRANCH  26  28
HETATM   28  C13 UNL     1      88.994  90.198 -50.042  1.00  0.00     0.177 C
BRANCH  28  29
HETATM   29  C14 UNL     1      89.258  88.772 -49.834  1.00  0.00     0.039 A
HETATM   30  C15 UNL     1      88.362  87.767 -50.151  1.00  0.00     0.118 A
HETATM   31  N4  UNL     1      88.916  86.577 -49.836  1.00  0.00    -0.317 N
HETATM   32  C16 UNL     1      90.128  86.795 -49.332  1.00  0.00     0.324 A
ATOM     33  H4  UNL     1      88.479  85.665 -49.963  1.00  0.00     0.170 HD
HETATM   34  O2  UNL     1      90.914  85.894 -48.936  1.00  0.00    -0.247 OA
HETATM   35  N5  UNL     1      90.332  88.129 -49.333  1.00  0.00    -0.311 N
ATOM     36  H5  UNL     1      91.180  88.587 -49.000  1.00  0.00     0.170 HD
ENDBRANCH  28  29
ENDBRANCH  26  28
ENDBRANCH  24  25
ENDBRANCH  22  24
ENDBRANCH  21  22
ENDBRANCH   2  20
TORSDOF 10
ENDMDL