MODEL 2
REMARK VINA RESULT: -5.681941040     10.644     13.840
REMARK  8 active torsions:
REMARK  status: ('A' for Active; 'I' for Inactive)
REMARK    1  A    between atoms: C2_2  and  C3_3
REMARK    2  A    between atoms: C3_3  and  C5_5
REMARK    3  A    between atoms: C3_3  and  N1_7
REMARK       I    between atoms: N1_7  and  C7_9
REMARK    4  A    between atoms: C7_9  and  C8_11
REMARK    5  A    between atoms: C8_11  and  N4_30
REMARK       I    between atoms: N2_12  and  C9_14
REMARK    6  A    between atoms: C9_14  and  C10_16
REMARK    7  A    between atoms: C10_16  and  N3_17
REMARK    8  A    between atoms: N4_30  and  N5_32
ROOT
HETATM    1  C8  UNL     1      91.190  97.478 -42.814  1.00  0.00     0.193 C
HETATM    2  N2  UNL     1      90.106  97.812 -43.355  1.00  0.00    -0.305 N
ATOM      3  H2  UNL     1      89.455  97.062 -43.589  1.00  0.00     0.170 HD
HETATM    4  C9  UNL     1      89.700  99.145 -43.672  1.00  0.00     0.264 C
HETATM    5  O2  UNL     1      90.465  99.994 -43.167  1.00  0.00    -0.270 OA
ENDROOT
BRANCH   1   6
HETATM    6  C7  UNL     1      91.463  96.070 -42.554  1.00  0.00     0.287 C
HETATM    7  N1  UNL     1      91.536  95.076 -43.546  1.00  0.00    -0.342 N
ATOM      8  H1  UNL     1      91.381  95.387 -44.505  1.00  0.00     0.164 HD
HETATM    9  O1  UNL     1      91.652  95.710 -41.340  1.00  0.00    -0.264 OA
BRANCH   7  10
HETATM   10  C3  UNL     1      91.801  93.688 -43.372  1.00  0.00     0.046 C
HETATM   11  C4  UNL     1      90.820  93.149 -42.320  1.00  0.00     0.043 C
BRANCH  10  12
HETATM   12  C2  UNL     1      91.566  92.900 -44.609  1.00  0.00    -0.007 C
HETATM   13  C1  UNL     1      91.531  93.344 -45.836  1.00  0.00     0.009 C
ENDBRANCH  10  12
BRANCH  10  14
HETATM   14  C5  UNL     1      93.224  93.384 -42.913  1.00  0.00     0.030 C
HETATM   15  C6  UNL     1      93.239  92.693 -41.584  1.00  0.00     0.008 C
ENDBRANCH  10  14
ENDBRANCH   7  10
ENDBRANCH   1   6
BRANCH   1  16
HETATM   16  N4  UNL     1      92.204  98.397 -42.419  1.00  0.00    -0.267 N
ATOM     17  H4  UNL     1      92.854  98.780 -43.105  1.00  0.00     0.190 HD
BRANCH  16  18
HETATM   18  N5  UNL     1      92.288  98.759 -41.083  1.00  0.00    -0.248 N
HETATM   19  N6  UNL     1      92.298  99.971 -40.680  1.00  0.00    -0.331 N
ATOM     20  H62 UNL     1      92.241 100.699 -41.393  1.00  0.00     0.178 HD
ATOM     21  H61 UNL     1      92.360 100.238 -39.698  1.00  0.00     0.178 HD
ATOM     22  H5  UNL     1      92.344  98.018 -40.384  1.00  0.00     0.207 HD
ENDBRANCH  16  18
ENDBRANCH   1  16
BRANCH   4  23
HETATM   23  C10 UNL     1      88.497  99.410 -44.516  1.00  0.00     0.226 C
HETATM   24  C17 UNL     1      87.470  98.419 -44.154  1.00  0.00     0.018 C
HETATM   25  C18 UNL     1      86.043  98.592 -44.273  1.00  0.00    -0.028 C
HETATM   26  C19 UNL     1      85.347  99.876 -44.166  1.00  0.00     0.027 C
HETATM   27  C20 UNL     1      85.818 100.876 -43.188  1.00  0.00     0.004 C
HETATM   28  C21 UNL     1      87.293 100.766 -42.872  1.00  0.00     0.004 C
HETATM   29  C22 UNL     1      88.112 100.826 -44.133  1.00  0.00     0.054 C
BRANCH  23  30
HETATM   30  N3  UNL     1      88.927  99.345 -45.911  1.00  0.00    -0.050 N
HETATM   31  C11 UNL     1      88.684  97.953 -46.337  1.00  0.00     0.274 C
HETATM   32  C12 UNL     1      90.295  99.607 -46.091  1.00  0.00     0.239 C
HETATM   33  C13 UNL     1      90.791 100.366 -47.260  1.00  0.00     0.028 C
HETATM   34  C14 UNL     1      89.826 101.058 -48.139  1.00  0.00     0.003 C
HETATM   35  C15 UNL     1      88.588 100.184 -48.163  1.00  0.00     0.028 C
HETATM   36  C16 UNL     1      88.016 100.117 -46.748  1.00  0.00     0.239 C
ENDBRANCH  23  30
ENDBRANCH   4  23
TORSDOF 8
ENDMDL