MODEL 2
REMARK VINA RESULT: -6.642410545      5.085      7.472
REMARK  7 active torsions:
REMARK  status: ('A' for Active; 'I' for Inactive)
REMARK    1  A    between atoms: N1_2  and  C2_3
REMARK    2  A    between atoms: C2_3  and  C3_4
REMARK       I    between atoms: C3_4  and  N2_6
REMARK    3  A    between atoms: N2_6  and  C4_8
REMARK    4  A    between atoms: C4_8  and  C5_9
REMARK    5  A    between atoms: C5_9  and  C6_10
REMARK       I    between atoms: C6_10  and  N3_12
REMARK    6  A    between atoms: N3_12  and  C7_14
REMARK    7  A    between atoms: C7_14  and  C8_15
ROOT
HETATM    1  C3  UNL     1      91.801  98.251 -43.840  1.00  0.00     0.244 C
HETATM    2  O1  UNL     1      92.658  98.568 -44.688  1.00  0.00    -0.272 OA
HETATM    3  N2  UNL     1      91.000  97.098 -44.079  1.00  0.00    -0.359 N
ATOM      4  H2  UNL     1      90.291  96.836 -43.394  1.00  0.00     0.162 HD
ENDROOT
BRANCH   3   5
HETATM    5  C4  UNL     1      91.165  96.295 -45.257  1.00  0.00     0.132 C
BRANCH   5   6
HETATM    6  C5  UNL     1      89.878  96.158 -46.003  1.00  0.00     0.122 C
BRANCH   6   7
HETATM    7  C6  UNL     1      89.281  97.538 -46.251  1.00  0.00     0.222 C
HETATM    8  O2  UNL     1      90.014  98.319 -46.850  1.00  0.00    -0.273 OA
HETATM    9  N3  UNL     1      88.002  97.804 -45.802  1.00  0.00    -0.340 N
ATOM     10  H3  UNL     1      87.542  97.018 -45.343  1.00  0.00     0.167 HD
BRANCH   9  11
HETATM   11  C7  UNL     1      87.232  98.965 -45.870  1.00  0.00     0.073 C
BRANCH  11  12
HETATM   12  C8  UNL     1      85.774  98.988 -45.600  1.00  0.00    -0.007 C
HETATM   13  C9  UNL     1      85.293 100.391 -45.221  1.00  0.00     0.019 C
HETATM   14  C10 UNL     1      83.845 100.288 -44.834  1.00  0.00    -0.013 C
HETATM   15  C11 UNL     1      83.734  99.419 -43.596  1.00  0.00     0.009 C
HETATM   16  C15 UNL     1      82.975  99.766 -45.932  1.00  0.00     0.009 C
HETATM   17  C12 UNL     1      84.170  98.043 -43.980  1.00  0.00    -0.013 C
HETATM   18  C13 UNL     1      83.402  97.460 -45.146  1.00  0.00     0.009 C
HETATM   19  C17 UNL     1      85.604  98.074 -44.354  1.00  0.00     0.019 C
HETATM   20  C14 UNL     1      83.469  98.383 -46.304  1.00  0.00    -0.013 C
HETATM   21  C16 UNL     1      84.938  98.534 -46.736  1.00  0.00     0.019 C
ENDBRANCH  11  12
ENDBRANCH   9  11
ENDBRANCH   6   7
ENDBRANCH   5   6
ENDBRANCH   3   5
BRANCH   1  22
HETATM   22  C2  UNL     1      91.599  99.037 -42.604  1.00  0.00     0.351 C
BRANCH  22  23
HETATM   23  N1  UNL     1      91.176 100.408 -42.809  1.00  0.00     0.018 N
HETATM   24  C1  UNL     1      90.101 100.583 -43.772  1.00  0.00     0.286 C
HETATM   25  C18 UNL     1      92.318 101.226 -42.996  1.00  0.00     0.280 C
HETATM   26  N4  UNL     1      93.077 101.514 -44.028  1.00  0.00    -0.365 N
HETATM   27  N5  UNL     1      92.276 101.589 -41.645  1.00  0.00    -0.318 N
ATOM     28  H42 UNL     1      93.108 101.249 -45.012  1.00  0.00     0.159 HD
ATOM     29  H41 UNL     1      93.899 102.103 -44.163  1.00  0.00     0.159 HD
HETATM   30  C19 UNL     1      92.780 102.174 -40.443  1.00  0.00     0.128 C
HETATM   31  C23 UNL     1      90.948 101.016 -41.542  1.00  0.00     0.303 C
HETATM   32  C20 UNL     1      91.678 102.716 -39.566  1.00  0.00     0.020 C
HETATM   33  C21 UNL     1      90.374 102.964 -40.210  1.00  0.00     0.006 C
HETATM   34  C22 UNL     1      90.047 102.226 -41.459  1.00  0.00     0.056 C
ENDBRANCH  22  23
ENDBRANCH   1  22
TORSDOF 7
ENDMDL