MODEL 2
REMARK VINA RESULT: -5.520778952      2.768      5.767
REMARK  10 active torsions:
REMARK  status: ('A' for Active; 'I' for Inactive)
REMARK    1  A    between atoms: C3_3  and  C4_4
REMARK    2  A    between atoms: C4_4  and  N1_5
REMARK    3  A    between atoms: N1_5  and  C5_6
REMARK    4  A    between atoms: C5_6  and  C6_7
REMARK    5  A    between atoms: C7_8  and  C8_9
REMARK    6  A    between atoms: C8_9  and  C9_10
REMARK    7  A    between atoms: C9_10  and  N2_11
REMARK    8  A    between atoms: N5_18  and  S1_19
REMARK    9  A    between atoms: S1_19  and  N6_22
REMARK   10  A    between atoms: N6_22  and  C13_24
ROOT
HETATM    1  C1  UNL     1      91.795  93.761 -44.706  1.00  0.00     0.112 C
HETATM    2  C2  UNL     1      91.097  94.936 -45.233  1.00  0.00    -0.109 C
HETATM    3  C3  UNL     1      90.498  95.901 -45.667  1.00  0.00    -0.079 C
ENDROOT
BRANCH   3   4
HETATM    4  C4  UNL     1      89.767  97.044 -46.205  1.00  0.00     0.332 C
BRANCH   4   5
HETATM    5  N1  UNL     1      89.739  98.114 -45.264  1.00  0.00    -0.037 N
HETATM    6  C11 UNL     1      89.880  97.617 -43.940  1.00  0.00     0.286 C
HETATM    7  C12 UNL     1      89.797  98.640 -42.859  1.00  0.00     0.110 C
HETATM    8  N5  UNL     1      90.259  99.926 -43.161  1.00  0.00    -0.249 N
HETATM    9  C17 UNL     1      90.514 100.273 -44.497  1.00  0.00     0.121 C
HETATM   10  C18 UNL     1      90.678  99.173 -45.494  1.00  0.00     0.157 C
HETATM   11  C19 UNL     1      90.479  99.816 -46.877  1.00  0.00     0.052 C
HETATM   12  C20 UNL     1      92.120  98.746 -45.480  1.00  0.00     0.052 C
BRANCH   5  13
HETATM   13  C5  UNL     1      88.408  98.708 -45.438  1.00  0.00     0.267 C
BRANCH  13  14
HETATM   14  C6  UNL     1      87.405  97.766 -45.956  1.00  0.00    -0.003 C
HETATM   15  C7  UNL     1      86.327  97.325 -45.337  1.00  0.00    -0.027 C
BRANCH  15  16
HETATM   16  C8  UNL     1      85.871  97.665 -43.988  1.00  0.00     0.046 C
BRANCH  16  17
HETATM   17  C9  UNL     1      84.401  98.029 -44.081  1.00  0.00     0.125 C
BRANCH  17  18
HETATM   18  N2  UNL     1      83.987  98.929 -43.045  1.00  0.00    -0.367 N
HETATM   19  C10 UNL     1      83.920 100.196 -43.243  1.00  0.00     0.196 C
HETATM   20  N3  UNL     1      84.267 100.716 -44.526  1.00  0.00    -0.067 NA
HETATM   21  N4  UNL     1      83.517 101.121 -42.256  1.00  0.00    -0.067 NA
ATOM     22  H2  UNL     1      83.739  98.554 -42.129  1.00  0.00     0.161 HD
ENDBRANCH  17  18
ENDBRANCH  16  17
ENDBRANCH  15  16
ENDBRANCH  13  14
ENDBRANCH   5  13
BRANCH   8  23
HETATM   23  S1  UNL     1      91.426 100.547 -42.068  1.00  0.00     0.324 S
HETATM   24  O1  UNL     1      92.435 101.391 -42.806  1.00  0.00    -0.182 OA
HETATM   25  O2  UNL     1      92.195  99.366 -41.515  1.00  0.00    -0.182 OA
BRANCH  23  26
HETATM   26  N6  UNL     1      90.745 101.419 -40.766  1.00  0.00    -0.293 N
ATOM     27  H6  UNL     1      89.787 101.283 -40.443  1.00  0.00     0.174 HD
BRANCH  26  28
HETATM   28  C13 UNL     1      91.650 102.363 -40.169  1.00  0.00     0.031 C
HETATM   29  C14 UNL     1      90.975 102.876 -38.897  1.00  0.00     0.038 C
HETATM   30  C15 UNL     1      92.955 101.743 -39.763  1.00  0.00     0.038 C
HETATM   31  C16 UNL     1      91.859 103.571 -41.053  1.00  0.00     0.038 C
ENDBRANCH  26  28
ENDBRANCH  23  26
ENDBRANCH   8  23
ENDBRANCH   4   5
ENDBRANCH   3   4
TORSDOF 10
ENDMDL