MODEL 3
REMARK VINA RESULT: -5.492169051      2.935      6.673
REMARK  8 active torsions:
REMARK  status: ('A' for Active; 'I' for Inactive)
REMARK    1  A    between atoms: C2_2  and  C3_3
REMARK    2  A    between atoms: C3_3  and  N1_4
REMARK       I    between atoms: N1_4  and  C4_6
REMARK       I    between atoms: C4_6  and  N2_8
REMARK    3  A    between atoms: N2_8  and  C5_10
REMARK    4  A    between atoms: C7_14  and  C8_15
REMARK    5  A    between atoms: C8_15  and  C9_16
REMARK    6  A    between atoms: C16_25  and  C18_27
REMARK    7  A    between atoms: C18_27  and  N5_28
REMARK    8  A    between atoms: N5_28  and  C21_31
ROOT
HETATM    1  C5  UNL     1      91.037  98.712 -44.524  1.00  0.00     0.186 C
HETATM    2  C6  UNL     1      92.185  99.651 -44.813  1.00  0.00     0.244 C
HETATM    3  O2  UNL     1      93.312  99.115 -44.914  1.00  0.00    -0.271 OA
HETATM    4  N3  UNL     1      91.997 101.047 -44.962  1.00  0.00    -0.338 N
HETATM    5  C7  UNL     1      92.528 102.370 -44.997  1.00  0.00     0.090 C
HETATM    6  C12 UNL     1      91.157 102.862 -44.535  1.00  0.00     0.053 C
HETATM    7  C13 UNL     1      90.661 101.627 -45.207  1.00  0.00     0.120 C
HETATM    8  C14 UNL     1      89.750 100.808 -44.338  1.00  0.00     0.074 A
HETATM    9  N4  UNL     1      88.748 101.479 -43.671  1.00  0.00    -0.401 N
ATOM     10  H4  UNL     1      88.510 102.154 -42.945  1.00  0.00     0.154 HD
HETATM   11  C15 UNL     1      88.278 100.614 -44.657  1.00  0.00     0.118 A
HETATM   12  C16 UNL     1      88.485  99.134 -44.297  1.00  0.00     0.011 C
HETATM   13  C17 UNL     1      88.608  98.901 -42.818  1.00  0.00     0.020 C
HETATM   14  C23 UNL     1      89.823  99.433 -44.888  1.00  0.00     0.061 C
ENDROOT
BRANCH   1  15
HETATM   15  N2  UNL     1      91.225  97.591 -45.426  1.00  0.00    -0.329 N
HETATM   16  C4  UNL     1      91.241  96.251 -45.022  1.00  0.00     0.317 C
HETATM   17  N1  UNL     1      91.427  95.179 -45.931  1.00  0.00    -0.340 N
HETATM   18  O1  UNL     1      91.082  95.995 -43.803  1.00  0.00    -0.247 OA
ATOM     19  H1  UNL     1      91.551  95.408 -46.917  1.00  0.00     0.164 HD
ATOM     20  H2  UNL     1      91.355  97.792 -46.418  1.00  0.00     0.165 HD
BRANCH  17  21
HETATM   21  C3  UNL     1      91.451  93.789 -45.557  1.00  0.00     0.150 C
BRANCH  21  22
HETATM   22  C2  UNL     1      91.396  92.920 -46.789  1.00  0.00    -0.018 C
HETATM   23  C1  UNL     1      91.758  91.653 -46.737  1.00  0.00     0.008 C
ENDBRANCH  21  22
ENDBRANCH  17  21
ENDBRANCH   1  15
BRANCH  12  24
HETATM   24  C18 UNL     1      87.770  98.135 -45.105  1.00  0.00     0.248 C
BRANCH  24  25
HETATM   25  N5  UNL     1      86.398  98.239 -45.325  1.00  0.00    -0.074 N
HETATM   26  C19 UNL     1      86.134  98.860 -46.639  1.00  0.00     0.272 C
HETATM   27  C20 UNL     1      85.854  96.876 -45.512  1.00  0.00     0.272 C
BRANCH  25  28
HETATM   28  C21 UNL     1      85.575  98.889 -44.381  1.00  0.00     0.232 C
HETATM   29  C22 UNL     1      84.339  98.052 -44.007  1.00  0.00     0.034 C
ENDBRANCH  25  28
ENDBRANCH  24  25
ENDBRANCH  12  24
BRANCH   5  30
HETATM   30  C8  UNL     1      92.836 102.795 -46.399  1.00  0.00     0.029 C
BRANCH  30  31
HETATM   31  C9  UNL     1      92.970 104.324 -46.377  1.00  0.00    -0.021 C
HETATM   32  C10 UNL     1      94.415 104.642 -46.140  1.00  0.00     0.009 C
HETATM   33  C11 UNL     1      92.456 104.832 -47.699  1.00  0.00     0.009 C
ENDBRANCH  30  31
ENDBRANCH   5  30
TORSDOF 8
ENDMDL