MODEL 1
REMARK VINA RESULT: -5.849862352      0.000      0.000
REMARK  8 active torsions:
REMARK  status: ('A' for Active; 'I' for Inactive)
REMARK    1  A    between atoms: C2_2  and  C3_4
REMARK    2  A    between atoms: C3_4  and  N1_5
REMARK    3  A    between atoms: C3_4  and  C5_10
REMARK       I    between atoms: N1_5  and  C4_7
REMARK    4  A    between atoms: C16_22  and  C18_24
REMARK    5  A    between atoms: C18_24  and  C19_25
REMARK    6  A    between atoms: C19_25  and  N4_26
REMARK    7  A    between atoms: C19_25  and  C20_30
REMARK    8  A    between atoms: N5_34  and  N6_36
ROOT
HETATM    1  C5  UNL     1      85.098  88.431 -38.505  1.00  0.00     0.072 C
HETATM    2  C6  UNL     1      85.862  89.326 -39.524  1.00  0.00     0.048 C
HETATM    3  C7  UNL     1      86.751  88.223 -40.098  1.00  0.00    -0.067 C
HETATM    4  C8  UNL     1      87.948  88.375 -39.588  1.00  0.00    -0.018 C
HETATM    5  C9  UNL     1      89.216  87.634 -39.748  1.00  0.00     0.072 C
HETATM    6  C10 UNL     1      89.043  86.318 -40.364  1.00  0.00     0.068 C
HETATM    7  N3  UNL     1      88.212  85.959 -41.220  1.00  0.00    -0.361 N
HETATM    8  C11 UNL     1      87.413  85.256 -42.172  1.00  0.00     0.091 A
HETATM    9  C12 UNL     1      87.129  86.608 -41.848  1.00  0.00     0.143 A
HETATM   10  C13 UNL     1      86.131  87.215 -41.018  1.00  0.00     0.034 C
HETATM   11  C14 UNL     1      85.404  88.196 -42.029  1.00  0.00     0.028 C
HETATM   12  C15 UNL     1      85.104  86.562 -40.193  1.00  0.00    -0.013 C
HETATM   13  C16 UNL     1      84.416  85.313 -40.404  1.00  0.00    -0.054 C
HETATM   14  C17 UNL     1      83.715  85.052 -41.678  1.00  0.00     0.048 C
HETATM   15  C23 UNL     1      84.308  87.630 -39.478  1.00  0.00     0.040 C
HETATM   16  N5  UNL     1      83.104  87.887 -39.715  1.00  0.00    -0.310 N
ATOM     17  H5  UNL     1      82.688  87.255 -40.398  1.00  0.00     0.186 HD
ENDROOT
BRANCH  13  18
HETATM   18  C18 UNL     1      84.862  84.144 -39.576  1.00  0.00     0.013 C
BRANCH  18  19
HETATM   19  C19 UNL     1      84.660  84.091 -38.136  1.00  0.00     0.210 C
BRANCH  19  20
HETATM   20  N4  UNL     1      83.241  84.587 -37.935  1.00  0.00    -0.071 N
ATOM     21  H43 UNL     1      83.001  85.401 -38.500  1.00  0.00     0.275 HD
ATOM     22  H42 UNL     1      82.526  83.969 -38.318  1.00  0.00     0.275 HD
ATOM     23  H41 UNL     1      83.165  84.741 -36.929  1.00  0.00     0.275 HD
ENDBRANCH  19  20
BRANCH  19  24
HETATM   24  C20 UNL     1      85.428  84.996 -37.230  1.00  0.00     0.011 C
HETATM   25  C21 UNL     1      86.931  84.829 -37.627  1.00  0.00     0.012 C
HETATM   26  C22 UNL     1      85.387  84.528 -35.783  1.00  0.00     0.012 C
ENDBRANCH  19  24
ENDBRANCH  18  19
ENDBRANCH  13  18
BRANCH   1  27
HETATM   27  C3  UNL     1      84.478  89.161 -37.430  1.00  0.00     0.165 C
BRANCH  27  28
HETATM   28  C2  UNL     1      83.998  88.324 -36.306  1.00  0.00     0.146 C
HETATM   29  C1  UNL     1      84.464  88.424 -34.913  1.00  0.00     0.093 C
HETATM   30  O1  UNL     1      83.126  87.458 -36.514  1.00  0.00    -0.296 OA
ENDBRANCH  27  28
BRANCH  27  31
HETATM   31  N1  UNL     1      85.371  90.153 -36.808  1.00  0.00    -0.333 N
HETATM   32  C4  UNL     1      84.952  91.482 -36.692  1.00  0.00     0.329 C
HETATM   33  N2  UNL     1      85.814  92.467 -36.085  1.00  0.00    -0.040 NA
HETATM   34  O2  UNL     1      83.818  91.808 -37.120  1.00  0.00    -0.251 OA
ATOM     35  H1  UNL     1      86.289  89.873 -36.465  1.00  0.00     0.164 HD
ENDBRANCH  27  31
ENDBRANCH   1  27
BRANCH  16  36
HETATM   36  N6  UNL     1      82.226  88.832 -39.255  1.00  0.00    -0.345 N
ATOM     37  H62 UNL     1      82.435  89.104 -38.294  1.00  0.00     0.176 HD
ATOM     38  H61 UNL     1      81.424  89.311 -39.664  1.00  0.00     0.176 HD
ENDBRANCH  16  36
TORSDOF 8
ENDMDL