MODEL 4
REMARK VINA RESULT: -6.280521762     10.717     13.726
REMARK  11 active torsions:
REMARK  status: ('A' for Active; 'I' for Inactive)
REMARK    1  A    between atoms: C2_2  and  C3_3
REMARK       I    between atoms: C3_3  and  N1_5
REMARK    2  A    between atoms: N1_5  and  C4_7
REMARK    3  A    between atoms: C4_7  and  C5_8
REMARK    4  A    between atoms: C10_13  and  C15_23
REMARK    5  A    between atoms: C12_15  and  C13_16
REMARK       I    between atoms: C13_16  and  N2_18
REMARK    6  A    between atoms: C15_23  and  C16_24
REMARK    7  A    between atoms: C16_24  and  C17_25
REMARK    8  A    between atoms: C18_26  and  C19_27
REMARK    9  A    between atoms: C19_27  and  C20_28
REMARK   10  A    between atoms: C20_28  and  C21_29
REMARK   11  A    between atoms: C21_29  and  C22_30
ROOT
HETATM    1  C5  UNL     1      86.473  87.778 -39.433  1.00  0.00     0.009 C
HETATM    2  C6  UNL     1      85.222  88.208 -38.805  1.00  0.00     0.021 C
HETATM    3  C7  UNL     1      84.769  89.507 -39.452  1.00  0.00    -0.003 C
HETATM    4  C8  UNL     1      85.818  89.893 -40.441  1.00  0.00     0.001 C
HETATM    5  C9  UNL     1      86.528  88.609 -40.740  1.00  0.00     0.010 C
HETATM    6  C10 UNL     1      85.678  87.872 -41.717  1.00  0.00     0.002 C
HETATM    7  C11 UNL     1      85.351  86.534 -41.112  1.00  0.00     0.021 C
HETATM    8  C12 UNL     1      86.379  86.374 -40.039  1.00  0.00     0.092 C
HETATM    9  C15 UNL     1      84.421  88.659 -41.879  1.00  0.00    -0.017 A
HETATM   10  C23 UNL     1      83.824  89.293 -40.623  1.00  0.00     0.005 A
HETATM   11  C24 UNL     1      84.745  90.024 -41.486  1.00  0.00     0.006 A
ENDROOT
BRANCH   9  12
HETATM   12  C16 UNL     1      83.421  88.272 -42.900  1.00  0.00     0.104 C
BRANCH  12  13
HETATM   13  C17 UNL     1      83.826  88.806 -44.198  1.00  0.00    -0.106 C
HETATM   14  C18 UNL     1      84.153  89.252 -45.261  1.00  0.00    -0.107 C
BRANCH  14  15
HETATM   15  C19 UNL     1      84.550  89.800 -46.560  1.00  0.00     0.094 C
BRANCH  15  16
HETATM   16  C20 UNL     1      84.158  91.258 -46.572  1.00  0.00     0.019 C
BRANCH  16  17
HETATM   17  C21 UNL     1      84.189  91.756 -47.985  1.00  0.00     0.070 C
BRANCH  17  18
HETATM   18  C22 UNL     1      84.080  93.241 -48.013  1.00  0.00     0.231 C
HETATM   19  O3  UNL     1      83.807  93.830 -47.004  1.00  0.00    -0.307 OA
ENDBRANCH  17  18
ENDBRANCH  16  17
ENDBRANCH  15  16
ENDBRANCH  14  15
ENDBRANCH  12  13
ENDBRANCH   9  12
BRANCH   1  20
HETATM   20  C4  UNL     1      87.752  87.858 -38.721  1.00  0.00     0.074 C
BRANCH  20  21
HETATM   21  N1  UNL     1      89.002  87.831 -39.352  1.00  0.00    -0.340 N
HETATM   22  C3  UNL     1      89.840  86.771 -39.725  1.00  0.00     0.220 C
HETATM   23  O1  UNL     1      89.569  85.576 -39.549  1.00  0.00    -0.273 OA
ATOM     24  H1  UNL     1      89.371  88.753 -39.585  1.00  0.00     0.167 HD
BRANCH  22  25
HETATM   25  C2  UNL     1      91.170  87.034 -40.388  1.00  0.00     0.098 C
HETATM   26  C1  UNL     1      91.092  88.341 -41.111  1.00  0.00     0.014 C
ENDBRANCH  22  25
ENDBRANCH  20  21
ENDBRANCH   1  20
BRANCH   8  27
HETATM   27  C13 UNL     1      86.127  85.317 -39.074  1.00  0.00     0.229 C
HETATM   28  O2  UNL     1      85.244  84.437 -39.378  1.00  0.00    -0.273 OA
HETATM   29  N2  UNL     1      86.740  85.129 -37.821  1.00  0.00    -0.303 N
HETATM   30  C14 UNL     1      86.108  84.888 -36.726  1.00  0.00     0.203 C
ATOM     31  H2  UNL     1      87.757  85.189 -37.777  1.00  0.00     0.171 HD
HETATM   32  N3  UNL     1      86.865  84.723 -35.540  1.00  0.00    -0.066 NA
HETATM   33  N4  UNL     1      84.700  84.779 -36.633  1.00  0.00    -0.066 NA
ENDBRANCH   8  27
TORSDOF 11
ENDMDL