MODEL 5
REMARK VINA RESULT: -5.584404912      2.677      4.281
REMARK  8 active torsions:
REMARK  status: ('A' for Active; 'I' for Inactive)
REMARK    1  A    between atoms: C2_2  and  C3_3
REMARK    2  A    between atoms: C6_6  and  C7_7
REMARK    3  A    between atoms: C7_7  and  C8_8
REMARK       I    between atoms: C8_8  and  N1_10
REMARK    4  A    between atoms: N1_10  and  C9_11
REMARK    5  A    between atoms: N1_10  and  C11_13
REMARK    6  A    between atoms: C11_13  and  C12_14
REMARK    7  A    between atoms: C17_22  and  C18_23
REMARK    8  A    between atoms: C19_24  and  C20_25
REMARK       I    between atoms: C20_25  and  N3_27
ROOT
HETATM    1  C3  UNL     1      91.348  96.062 -42.889  1.00  0.00    -0.013 A
HETATM    2  C4  UNL     1      91.411  94.783 -43.345  1.00  0.00    -0.028 A
HETATM    3  C5  UNL     1      91.462  93.633 -42.414  1.00  0.00     0.051 C
HETATM    4  C6  UNL     1      91.441  94.529 -44.741  1.00  0.00     0.028 A
HETATM    5  N2  UNL     1      91.410  95.558 -45.607  1.00  0.00    -0.326 N
ATOM      6  H2  UNL     1      91.432  95.357 -46.607  1.00  0.00     0.169 HD
HETATM    7  C15 UNL     1      91.350  96.835 -45.209  1.00  0.00     0.256 A
HETATM    8  O2  UNL     1      91.327  97.786 -46.072  1.00  0.00    -0.267 OA
HETATM    9  C16 UNL     1      91.319  97.097 -43.862  1.00  0.00     0.044 A
HETATM   10  C17 UNL     1      91.275  98.441 -43.371  1.00  0.00     0.032 C
ENDROOT
BRANCH   1  11
HETATM   11  C2  UNL     1      91.275  96.432 -41.495  1.00  0.00     0.003 C
HETATM   12  C1  UNL     1      92.215  96.518 -40.598  1.00  0.00     0.012 C
ENDBRANCH   1  11
BRANCH  10  13
HETATM   13  C18 UNL     1      90.285  99.228 -43.088  1.00  0.00     0.008 A
HETATM   14  C19 UNL     1      90.432 100.419 -42.369  1.00  0.00     0.059 A
HETATM   15  C22 UNL     1      89.213 101.037 -42.262  1.00  0.00     0.106 A
HETATM   16  N4  UNL     1      88.323 100.267 -42.891  1.00  0.00    -0.365 N
HETATM   17  C23 UNL     1      88.974  99.160 -43.396  1.00  0.00     0.033 A
ATOM     18  H4  UNL     1      87.327 100.465 -42.983  1.00  0.00     0.165 HD
HETATM   19  C24 UNL     1      88.312  98.257 -44.058  1.00  0.00     0.044 C
BRANCH  14  20
HETATM   20  C20 UNL     1      91.629 100.941 -41.786  1.00  0.00     0.253 C
HETATM   21  O3  UNL     1      92.508 101.454 -42.521  1.00  0.00    -0.268 OA
HETATM   22  N3  UNL     1      91.851 100.898 -40.397  1.00  0.00    -0.361 N
HETATM   23  C21 UNL     1      92.983 101.377 -39.671  1.00  0.00     0.149 C
ATOM     24  H3  UNL     1      91.111 100.471 -39.840  1.00  0.00     0.162 HD
ENDBRANCH  14  20
ENDBRANCH  10  13
BRANCH   4  25
HETATM   25  C7  UNL     1      91.525  93.152 -45.227  1.00  0.00     0.160 C
BRANCH  25  26
HETATM   26  C8  UNL     1      91.234  93.100 -46.684  1.00  0.00     0.225 C
HETATM   27  O1  UNL     1      90.655  94.082 -47.223  1.00  0.00    -0.273 OA
HETATM   28  N1  UNL     1      91.574  91.996 -47.509  1.00  0.00    -0.352 N
BRANCH  28  29
HETATM   29  C9  UNL     1      92.293  90.939 -46.863  1.00  0.00     0.121 C
HETATM   30  C10 UNL     1      93.327  90.235 -47.684  1.00  0.00     0.026 C
ENDBRANCH  28  29
BRANCH  28  31
HETATM   31  C11 UNL     1      91.223  92.012 -48.881  1.00  0.00     0.129 C
BRANCH  31  32
HETATM   32  C12 UNL     1      90.092  91.233 -49.396  1.00  0.00    -0.005 C
HETATM   33  C13 UNL     1      89.467  91.699 -50.690  1.00  0.00     0.011 C
HETATM   34  C14 UNL     1      90.321  89.719 -49.447  1.00  0.00     0.011 C
ENDBRANCH  31  32
ENDBRANCH  28  31
ENDBRANCH  25  26
ENDBRANCH   4  25
TORSDOF 8
ENDMDL