MODEL 4
REMARK VINA RESULT: -5.481486342      2.204      4.828
REMARK  9 active torsions:
REMARK  status: ('A' for Active; 'I' for Inactive)
REMARK    1  A    between atoms: C2_2  and  C3_3
REMARK    2  A    between atoms: C4_6  and  C5_7
REMARK    3  A    between atoms: C5_7  and  C6_8
REMARK    4  A    between atoms: C13_16  and  C14_17
REMARK    5  A    between atoms: C15_18  and  C16_19
REMARK    6  A    between atoms: C16_19  and  C17_20
REMARK    7  A    between atoms: C16_19  and  N4_23
REMARK    8  A    between atoms: N4_23  and  C18_24
REMARK    9  A    between atoms: N4_23  and  C21_27
ROOT
HETATM    1  C6  UNL     1      88.781  97.673 -45.394  1.00  0.00    -0.019 A
HETATM    2  C7  UNL     1      87.678  96.975 -45.815  1.00  0.00     0.037 A
HETATM    3  C8  UNL     1      86.411  97.304 -45.382  1.00  0.00     0.008 A
HETATM    4  C9  UNL     1      85.202  96.567 -45.829  1.00  0.00     0.068 C
HETATM    5  N2  UNL     1      86.311  98.325 -44.541  1.00  0.00    -0.358 N
HETATM    6  C10 UNL     1      84.972  98.672 -44.075  1.00  0.00     0.156 C
HETATM    7  C11 UNL     1      87.391  99.047 -44.098  1.00  0.00     0.018 A
HETATM    8  C12 UNL     1      87.143 100.169 -43.169  1.00  0.00     0.069 C
HETATM    9  C13 UNL     1      88.669  98.764 -44.495  1.00  0.00    -0.003 A
ENDROOT
BRANCH   9  10
HETATM   10  C14 UNL     1      89.884  99.406 -44.153  1.00  0.00     0.017 C
HETATM   11  C15 UNL     1      90.511  99.547 -43.048  1.00  0.00     0.036 C
BRANCH  11  12
HETATM   12  C16 UNL     1      91.836 100.306 -42.935  1.00  0.00     0.100 C
BRANCH  12  13
HETATM   13  C17 UNL     1      92.581 100.227 -44.180  1.00  0.00     0.281 C
HETATM   14  N3  UNL     1      92.561 101.334 -45.126  1.00  0.00    -0.056 NA
HETATM   15  O1  UNL     1      93.285  99.274 -44.580  1.00  0.00    -0.269 OA
ENDBRANCH  12  13
BRANCH  12  16
HETATM   16  N4  UNL     1      91.811 101.401 -42.108  1.00  0.00    -0.347 N
BRANCH  16  17
HETATM   17  C18 UNL     1      90.648 102.236 -42.285  1.00  0.00     0.082 C
HETATM   18  C19 UNL     1      89.980 102.648 -41.003  1.00  0.00     0.032 C
HETATM   19  C20 UNL     1      90.995 103.473 -43.049  1.00  0.00     0.032 C
ENDBRANCH  16  17
BRANCH  16  20
HETATM   20  C21 UNL     1      92.823 101.930 -41.343  1.00  0.00    -0.018 C
HETATM   21  C22 UNL     1      94.097 102.370 -42.036  1.00  0.00     0.063 C
HETATM   22  C23 UNL     1      93.197 101.317 -40.023  1.00  0.00     0.063 C
ENDBRANCH  16  20
ENDBRANCH  12  16
ENDBRANCH  11  12
ENDBRANCH   9  10
BRANCH   1  23
HETATM   23  C5  UNL     1      90.077  97.260 -45.899  1.00  0.00     0.061 C
BRANCH  23  24
HETATM   24  C4  UNL     1      90.517  96.050 -45.702  1.00  0.00     0.109 A
HETATM   25  N1  UNL     1      90.977  95.582 -44.531  1.00  0.00    -0.338 N
HETATM   26  C3  UNL     1      91.365  94.287 -44.672  1.00  0.00     0.098 A
ATOM     27  H1  UNL     1      91.028  96.118 -43.665  1.00  0.00     0.167 HD
HETATM   28  C24 UNL     1      91.134  93.946 -45.979  1.00  0.00     0.273 A
HETATM   29  N5  UNL     1      90.625  95.021 -46.575  1.00  0.00    -0.308 N
HETATM   30  O2  UNL     1      91.356  92.841 -46.520  1.00  0.00    -0.266 OA
ATOM     31  H5  UNL     1      90.353  95.064 -47.557  1.00  0.00     0.170 HD
BRANCH  26  32
HETATM   32  C2  UNL     1      91.857  93.557 -43.712  1.00  0.00     0.004 C
HETATM   33  C1  UNL     1      91.595  93.836 -42.291  1.00  0.00     0.038 C
ENDBRANCH  26  32
ENDBRANCH  23  24
ENDBRANCH   1  23
TORSDOF 9
ENDMDL