MODEL 2
REMARK VINA RESULT: -6.054313904      1.489      1.730
REMARK  7 active torsions:
REMARK  status: ('A' for Active; 'I' for Inactive)
REMARK    1  A    between atoms: C2_2  and  C4_4
REMARK    2  A    between atoms: C4_4  and  C16_24
REMARK       I    between atoms: N1_5  and  C5_7
REMARK    3  A    between atoms: C5_7  and  C6_9
REMARK    4  A    between atoms: C6_9  and  C7_10
REMARK    5  A    between atoms: C6_9  and  N2_13
REMARK    6  A    between atoms: C12_16  and  C13_17
REMARK       I    between atoms: C16_24  and  N5_26
REMARK    7  A    between atoms: N5_26  and  N6_28
ROOT
HETATM    1  C4  UNL     1      90.557 100.801 -42.266  1.00  0.00     0.085 C
HETATM    2  N1  UNL     1      90.436  99.498 -42.202  1.00  0.00    -0.320 N
ATOM      3  H1  UNL     1      90.814  99.029 -41.379  1.00  0.00     0.169 HD
HETATM    4  C5  UNL     1      89.824  98.698 -43.182  1.00  0.00     0.269 C
HETATM    5  O1  UNL     1      88.559  98.788 -43.332  1.00  0.00    -0.266 OA
ENDROOT
BRANCH   1   6
HETATM    6  C2  UNL     1      90.017 101.501 -43.450  1.00  0.00     0.033 C
HETATM    7  C1  UNL     1      90.941 102.491 -44.087  1.00  0.00     0.016 C
HETATM    8  C3  UNL     1      88.694 102.184 -43.138  1.00  0.00     0.016 C
ENDBRANCH   1   6
BRANCH   1   9
HETATM    9  C16 UNL     1      91.223 101.449 -41.136  1.00  0.00     0.288 C
HETATM   10  O2  UNL     1      92.175 100.821 -40.634  1.00  0.00    -0.265 OA
HETATM   11  N5  UNL     1      90.837 102.698 -40.628  1.00  0.00    -0.178 N
ATOM     12  H5  UNL     1      90.044 103.110 -41.120  1.00  0.00     0.197 HD
BRANCH  11  13
HETATM   13  N6  UNL     1      91.307 103.473 -39.608  1.00  0.00     0.037 N
HETATM   14  C17 UNL     1      92.719 103.836 -39.955  1.00  0.00     0.304 C
HETATM   15  C18 UNL     1      90.528 104.722 -39.601  1.00  0.00     0.294 C
HETATM   16  C19 UNL     1      89.758 104.585 -38.307  1.00  0.00     0.269 C
HETATM   17  N7  UNL     1      90.803 104.083 -37.436  1.00  0.00    -0.047 N
HETATM   18  C20 UNL     1      91.712 105.148 -37.170  1.00  0.00     0.274 C
HETATM   19  C21 UNL     1      90.273 103.560 -36.193  1.00  0.00     0.274 C
HETATM   20  C22 UNL     1      91.365 103.016 -38.275  1.00  0.00     0.499 C
ENDBRANCH  11  13
ENDBRANCH   1   9
BRANCH   4  21
HETATM   21  C6  UNL     1      90.575  97.768 -44.035  1.00  0.00     0.087 C
BRANCH  21  22
HETATM   22  C7  UNL     1      91.448  98.411 -45.053  1.00  0.00     0.034 C
HETATM   23  C8  UNL     1      92.656  99.124 -44.584  1.00  0.00     0.016 C
HETATM   24  C9  UNL     1      90.673  99.359 -45.986  1.00  0.00     0.016 C
ENDBRANCH  21  22
BRANCH  21  25
HETATM   25  N2  UNL     1      91.022  96.558 -43.412  1.00  0.00    -0.331 N
HETATM   26  C10 UNL     1      91.265  96.371 -42.110  1.00  0.00     0.097 A
HETATM   27  C11 UNL     1      91.683  95.147 -41.577  1.00  0.00     0.032 A
HETATM   28  C12 UNL     1      91.870  94.059 -42.370  1.00  0.00     0.007 A
HETATM   29  C14 UNL     1      91.624  94.231 -43.720  1.00  0.00     0.032 A
HETATM   30  C15 UNL     1      91.221  95.437 -44.185  1.00  0.00     0.097 A
BRANCH  28  31
HETATM   31  C13 UNL     1      92.294  92.740 -41.936  1.00  0.00     0.120 C
HETATM   32  N3  UNL     1      91.599  91.678 -42.094  1.00  0.00    -0.387 N
ATOM     33  H32 UNL     1      90.696  91.801 -42.552  1.00  0.00     0.157 HD
ATOM     34  H31 UNL     1      91.897  90.751 -41.790  1.00  0.00     0.157 HD
HETATM   35  N4  UNL     1      93.566  92.566 -41.291  1.00  0.00    -0.082 NA
ENDBRANCH  28  31
ENDBRANCH  21  25
ENDBRANCH   4  21
TORSDOF 7
ENDMDL