MODEL 2
REMARK VINA RESULT: -7.462380007      0.099      1.101
REMARK  8 active torsions:
REMARK  status: ('A' for Active; 'I' for Inactive)
REMARK    1  A    between atoms: C1_2  and  C2_4
REMARK    2  A    between atoms: C2_4  and  C3_5
REMARK    3  A    between atoms: C3_5  and  C4_6
REMARK    4  A    between atoms: C4_6  and  C20_27
REMARK       I    between atoms: N1_7  and  C5_9
REMARK    5  A    between atoms: C5_9  and  C6_11
REMARK    6  A    between atoms: C9_14  and  C10_15
REMARK    7  A    between atoms: C11_16  and  C12_17
REMARK    8  A    between atoms: C15_20  and  O4_21
ROOT
HETATM    1  C6  UNL     1     -29.023  45.200  13.137  1.00  0.00     0.032 A
HETATM    2  C7  UNL     1     -27.894  45.851  13.580  1.00  0.00     0.018 A
HETATM    3  C8  UNL     1     -26.641  45.616  13.055  1.00  0.00     0.022 A
HETATM    4  C9  UNL     1     -26.507  44.683  12.033  1.00  0.00     0.018 A
HETATM    5  C18 UNL     1     -27.652  44.046  11.607  1.00  0.00     0.022 A
HETATM    6  C19 UNL     1     -28.892  44.279  12.129  1.00  0.00     0.018 A
ENDROOT
BRANCH   1   7
HETATM    7  C5  UNL     1     -30.338  45.476  13.730  1.00  0.00     0.256 C
HETATM    8  N1  UNL     1     -30.550  45.830  15.074  1.00  0.00    -0.321 N
HETATM    9  C4  UNL     1     -30.746  44.947  16.040  1.00  0.00     0.089 C
ATOM     10  H1  UNL     1     -30.552  46.820  15.318  1.00  0.00     0.169 HD
HETATM   11  O3  UNL     1     -31.337  45.389  12.978  1.00  0.00    -0.267 OA
BRANCH   9  12
HETATM   12  C3  UNL     1     -30.733  43.550  15.633  1.00  0.00     0.075 C
BRANCH  12  13
HETATM   13  C2  UNL     1     -29.554  42.725  15.962  1.00  0.00     0.119 C
BRANCH  13  14
HETATM   14  C1  UNL     1     -29.439  42.133  17.290  1.00  0.00     0.172 C
HETATM   15  O1  UNL     1     -30.093  41.112  17.606  1.00  0.00    -0.648 OA
HETATM   16  O2  UNL     1     -28.593  42.681  18.274  1.00  0.00    -0.648 OA
ENDBRANCH  13  14
ENDBRANCH  12  13
ENDBRANCH   9  12
BRANCH   9  17
HETATM   17  C20 UNL     1     -30.966  45.474  17.344  1.00  0.00     0.222 C
HETATM   18  O5  UNL     1     -32.076  45.628  17.867  1.00  0.00    -0.643 OA
HETATM   19  O6  UNL     1     -29.846  45.856  18.114  1.00  0.00    -0.643 OA
ENDBRANCH   9  17
ENDBRANCH   1   7
BRANCH   4  20
HETATM   20  C10 UNL     1     -25.202  44.438  11.495  1.00  0.00    -0.061 C
HETATM   21  C11 UNL     1     -24.105  44.220  11.045  1.00  0.00    -0.061 C
BRANCH  21  22
HETATM   22  C12 UNL     1     -22.799  43.939  10.522  1.00  0.00     0.018 A
HETATM   23  C13 UNL     1     -22.094  42.787  10.810  1.00  0.00     0.023 A
HETATM   24  C14 UNL     1     -20.838  42.537  10.295  1.00  0.00     0.038 A
HETATM   25  C15 UNL     1     -20.240  43.454   9.460  1.00  0.00     0.065 A
HETATM   26  C16 UNL     1     -20.939  44.611   9.167  1.00  0.00     0.038 A
HETATM   27  C17 UNL     1     -22.199  44.854   9.687  1.00  0.00     0.023 A
BRANCH  25  28
HETATM   28  O4  UNL     1     -18.978  43.178   8.959  1.00  0.00    -0.361 OA
ATOM     29  H4  UNL     1     -18.708  43.588   8.145  1.00  0.00     0.217 HD
ENDBRANCH  25  28
ENDBRANCH  21  22
ENDBRANCH   4  20
TORSDOF 8
ENDMDL