MODEL 4
REMARK VINA RESULT: -7.732393797      1.451      2.171
REMARK  5 active torsions:
REMARK  status: ('A' for Active; 'I' for Inactive)
REMARK    1  A    between atoms: N1_2  and  S1_4
REMARK    2  A    between atoms: S1_4  and  C3_7
REMARK    3  A    between atoms: C6_10  and  N2_11
REMARK       I    between atoms: N2_11  and  C7_13
REMARK       I    between atoms: C7_13  and  N3_15
REMARK       I    between atoms: N3_15  and  C8_17
REMARK       I    between atoms: C8_17  and  N4_19
REMARK    4  A    between atoms: N4_19  and  C9_21
REMARK    5  A    between atoms: C9_21  and  C10_22
ROOT
HETATM    1  N2  UNL     1     -26.973  47.750  10.135  1.00  0.00    -0.309 N
ATOM      2  H2  UNL     1     -27.783  47.940  10.726  1.00  0.00     0.170 HD
HETATM    3  C7  UNL     1     -26.121  46.562  10.466  1.00  0.00     0.328 C
HETATM    4  O3  UNL     1     -25.247  46.402   9.655  1.00  0.00    -0.247 OA
HETATM    5  N3  UNL     1     -26.535  45.933  11.629  1.00  0.00    -0.261 N
ATOM      6  H3  UNL     1     -27.316  46.133  12.254  1.00  0.00     0.175 HD
HETATM    7  C8  UNL     1     -25.346  44.732  11.697  1.00  0.00     0.324 C
HETATM    8  O4  UNL     1     -25.576  44.051  12.709  1.00  0.00    -0.247 OA
HETATM    9  N4  UNL     1     -24.372  44.549  10.856  1.00  0.00    -0.339 N
ATOM     10  H4  UNL     1     -24.236  45.146  10.040  1.00  0.00     0.164 HD
ENDROOT
BRANCH   1  11
HETATM   11  C6  UNL     1     -26.725  48.609   9.071  1.00  0.00     0.036 A
HETATM   12  C5  UNL     1     -27.281  48.294   7.839  1.00  0.00     0.031 A
HETATM   13  C4  UNL     1     -27.149  49.119   6.748  1.00  0.00     0.027 A
HETATM   14  C3  UNL     1     -26.454  50.306   6.826  1.00  0.00     0.079 A
HETATM   15  C17 UNL     1     -25.896  50.633   8.039  1.00  0.00     0.027 A
HETATM   16  C16 UNL     1     -26.034  49.790   9.148  1.00  0.00     0.031 A
BRANCH  14  17
HETATM   17  S1  UNL     1     -26.279  51.354   5.443  1.00  0.00     0.260 S
HETATM   18  O1  UNL     1     -25.851  50.509   4.263  1.00  0.00    -0.200 OA
HETATM   19  O2  UNL     1     -25.129  52.305   5.722  1.00  0.00    -0.200 OA
BRANCH  17  20
HETATM   20  N1  UNL     1     -27.723  52.175   5.108  1.00  0.00    -0.315 N
HETATM   21  C1  UNL     1     -28.469  51.705   3.994  1.00  0.00     0.162 C
HETATM   22  C2  UNL     1     -28.470  52.620   6.236  1.00  0.00     0.162 C
ENDBRANCH  17  20
ENDBRANCH  14  17
ENDBRANCH   1  11
BRANCH   9  23
HETATM   23  C9  UNL     1     -23.435  43.364  11.179  1.00  0.00     0.162 C
BRANCH  23  24
HETATM   24  C10 UNL     1     -22.240  43.580  10.351  1.00  0.00    -0.040 A
HETATM   25  C11 UNL     1     -22.153  44.668   9.499  1.00  0.00     0.009 A
HETATM   26  C12 UNL     1     -21.043  44.893   8.720  1.00  0.00     0.001 A
HETATM   27  C13 UNL     1     -19.997  44.006   8.797  1.00  0.00     0.000 A
HETATM   28  C14 UNL     1     -20.016  42.907   9.619  1.00  0.00     0.001 A
HETATM   29  C15 UNL     1     -21.144  42.716  10.383  1.00  0.00     0.009 A
ENDBRANCH  23  24
ENDBRANCH   9  23
TORSDOF 5
ENDMDL