MODEL 2
REMARK VINA RESULT: -5.989542470      2.722      3.625
REMARK  9 active torsions:
REMARK  status: ('A' for Active; 'I' for Inactive)
REMARK    1  A    between atoms: C2_2  and  O1_3
REMARK    2  A    between atoms: C2_2  and  N1_5
REMARK    3  A    between atoms: N1_5  and  C3_6
REMARK    4  A    between atoms: N1_5  and  C16_28
REMARK    5  A    between atoms: C3_6  and  C5_8
REMARK       I    between atoms: C5_8  and  N2_10
REMARK    6  A    between atoms: N2_10  and  N3_12
REMARK       I    between atoms: N3_12  and  C6_14
REMARK       I    between atoms: C6_14  and  N4_16
REMARK    7  A    between atoms: N4_16  and  C7_18
REMARK    8  A    between atoms: C10_21  and  C11_22
REMARK    9  A    between atoms: C11_22  and  N5_23
ROOT
HETATM    1  N3  UNL     1     -28.793  43.994  13.002  1.00  0.00    -0.249 N
ATOM      2  H3  UNL     1     -28.560  43.799  13.976  1.00  0.00     0.192 HD
HETATM    3  C6  UNL     1     -27.741  44.146  12.019  1.00  0.00     0.339 C
HETATM    4  O3  UNL     1     -28.073  44.385  10.834  1.00  0.00    -0.245 OA
HETATM    5  N4  UNL     1     -26.406  44.024  12.430  1.00  0.00    -0.308 N
ATOM      6  H4  UNL     1     -26.262  43.832  13.421  1.00  0.00     0.170 HD
ENDROOT
BRANCH   1   7
HETATM    7  N2  UNL     1     -30.117  44.116  12.614  1.00  0.00    -0.264 N
HETATM    8  C5  UNL     1     -30.976  43.034  12.301  1.00  0.00     0.258 C
HETATM    9  O2  UNL     1     -30.511  41.882  12.377  1.00  0.00    -0.269 OA
ATOM     10  H2  UNL     1     -30.503  45.057  12.548  1.00  0.00     0.190 HD
BRANCH   8  11
HETATM   11  C3  UNL     1     -32.376  43.288  11.900  1.00  0.00     0.176 C
HETATM   12  C4  UNL     1     -32.724  42.602  10.613  1.00  0.00     0.042 C
BRANCH  11  13
HETATM   13  N1  UNL     1     -33.340  43.123  12.962  1.00  0.00    -0.344 N
BRANCH  13  14
HETATM   14  C2  UNL     1     -33.916  41.840  13.129  1.00  0.00     0.110 C
HETATM   15  C1  UNL     1     -35.245  41.380  12.729  1.00  0.00     0.097 C
BRANCH  14  16
HETATM   16  O1  UNL     1     -33.136  40.977  13.723  1.00  0.00    -0.350 OA
ATOM     17  H1  UNL     1     -32.202  41.051  13.565  1.00  0.00     0.219 HD
ENDBRANCH  14  16
ENDBRANCH  13  14
BRANCH  13  18
HETATM   18  C16 UNL     1     -33.741  44.166  13.857  1.00  0.00     0.024 C
HETATM   19  C17 UNL     1     -32.959  44.148  15.148  1.00  0.00     0.037 C
HETATM   20  C18 UNL     1     -33.477  45.529  13.188  1.00  0.00     0.037 C
HETATM   21  C19 UNL     1     -35.196  44.195  14.230  1.00  0.00     0.037 C
ENDBRANCH  13  18
ENDBRANCH  11  13
ENDBRANCH   8  11
ENDBRANCH   1   7
BRANCH   5  22
HETATM   22  C7  UNL     1     -25.242  44.132  11.654  1.00  0.00     0.036 A
HETATM   23  C8  UNL     1     -25.091  45.014  10.638  1.00  0.00     0.030 A
HETATM   24  C9  UNL     1     -23.885  45.084   9.907  1.00  0.00     0.011 A
HETATM   25  C10 UNL     1     -22.837  44.274  10.195  1.00  0.00    -0.030 A
HETATM   26  C14 UNL     1     -22.977  43.368  11.230  1.00  0.00     0.011 A
HETATM   27  C15 UNL     1     -24.148  43.294  11.946  1.00  0.00     0.030 A
BRANCH  25  28
HETATM   28  C11 UNL     1     -21.551  44.301   9.467  1.00  0.00     0.309 C
BRANCH  28  29
HETATM   29  N5  UNL     1     -21.142  45.611   9.037  1.00  0.00     0.084 N
HETATM   30  C12 UNL     1     -20.126  46.052   9.999  1.00  0.00     0.309 C
HETATM   31  C13 UNL     1     -20.423  45.500   7.768  1.00  0.00     0.309 C
ENDBRANCH  28  29
ENDBRANCH  25  28
ENDBRANCH   5  22
TORSDOF 9
ENDMDL