MODEL 3
REMARK VINA RESULT: -5.848974810      4.257      6.632
REMARK  9 active torsions:
REMARK  status: ('A' for Active; 'I' for Inactive)
REMARK    1  A    between atoms: C2_2  and  N1_5
REMARK    2  A    between atoms: N1_5  and  S1_7
REMARK    3  A    between atoms: S1_7  and  N2_9
REMARK    4  A    between atoms: S1_7  and  C8_18
REMARK    5  A    between atoms: N2_9  and  C5_11
REMARK    6  A    between atoms: C5_11  and  C6_12
REMARK    7  A    between atoms: C6_12  and  N3_13
REMARK    8  A    between atoms: N3_13  and  C7_15
REMARK    9  A    between atoms: C11_21  and  C12_22
ROOT
HETATM    1  S1  UNL     1     -26.003  46.121  11.160  1.00  0.00     0.135 S
HETATM    2  O1  UNL     1     -25.414  46.179  12.573  1.00  0.00    -0.223 OA
ENDROOT
BRANCH   1   3
HETATM    3  N1  UNL     1     -26.385  47.556  10.803  1.00  0.00    -0.323 N
ATOM      4  H1  UNL     1     -26.735  48.119  11.577  1.00  0.00     0.171 HD
BRANCH   3   5
HETATM    5  C2  UNL     1     -26.325  48.207   9.569  1.00  0.00     0.028 C
HETATM    6  C1  UNL     1     -27.507  47.861   8.655  1.00  0.00     0.038 C
HETATM    7  C3  UNL     1     -26.477  49.702   9.877  1.00  0.00     0.038 C
HETATM    8  C4  UNL     1     -25.070  48.059   8.782  1.00  0.00     0.038 C
ENDBRANCH   3   5
ENDBRANCH   1   3
BRANCH   1   9
HETATM    9  N2  UNL     1     -24.849  45.375  10.186  1.00  0.00    -0.331 N
ATOM     10  H2  UNL     1     -24.844  45.517   9.177  1.00  0.00     0.170 HD
BRANCH   9  11
HETATM   11  C5  UNL     1     -23.879  44.541  10.813  1.00  0.00     0.150 C
BRANCH  11  12
HETATM   12  C6  UNL     1     -22.758  44.312   9.802  1.00  0.00     0.142 C
BRANCH  12  13
HETATM   13  N3  UNL     1     -21.443  44.459  10.327  1.00  0.00    -0.368 N
ATOM     14  H3  UNL     1     -21.110  43.873  11.092  1.00  0.00     0.161 HD
BRANCH  13  15
HETATM   15  C7  UNL     1     -20.608  45.458   9.743  1.00  0.00     0.181 C
HETATM   16  N4  UNL     1     -19.700  46.223  10.548  1.00  0.00    -0.070 NA
HETATM   17  S2  UNL     1     -20.637  45.746   8.158  1.00  0.00    -0.044 SA
ENDBRANCH  13  15
ENDBRANCH  12  13
ENDBRANCH  11  12
ENDBRANCH   9  11
ENDBRANCH   1   9
BRANCH   1  18
HETATM   18  C8  UNL     1     -27.486  45.152  11.200  1.00  0.00     0.058 A
HETATM   19  C9  UNL     1     -28.138  44.874  12.368  1.00  0.00     0.024 A
HETATM   20  C10 UNL     1     -29.291  44.120  12.435  1.00  0.00     0.009 A
HETATM   21  C11 UNL     1     -29.798  43.625  11.242  1.00  0.00    -0.051 A
HETATM   22  C16 UNL     1     -29.186  43.877  10.037  1.00  0.00     0.009 A
HETATM   23  C17 UNL     1     -28.015  44.650  10.028  1.00  0.00     0.024 A
BRANCH  21  24
HETATM   24  C12 UNL     1     -30.980  42.761  11.359  1.00  0.00    -0.024 C
HETATM   25  C13 UNL     1     -32.143  43.374  12.093  1.00  0.00     0.019 C
HETATM   26  C14 UNL     1     -31.453  42.222  10.024  1.00  0.00     0.019 C
HETATM   27  C15 UNL     1     -30.558  41.522  12.171  1.00  0.00     0.019 C
ENDBRANCH  21  24
ENDBRANCH   1  18
TORSDOF 9
ENDMDL