MODEL 2
REMARK VINA RESULT: -7.077994129      0.143      1.377
REMARK  6 active torsions:
REMARK  status: ('A' for Active; 'I' for Inactive)
REMARK    1  A    between atoms: C2_2  and  N1_5
REMARK    2  A    between atoms: N1_5  and  S1_7
REMARK    3  A    between atoms: S1_7  and  C5_10
REMARK    4  A    between atoms: C8_13  and  N2_14
REMARK    5  A    between atoms: N2_14  and  S2_16
REMARK    6  A    between atoms: S2_16  and  C9_19
ROOT
HETATM    1  C5  UNL     1     -24.478  44.417  11.252  1.00  0.00     0.079 A
HETATM    2  C6  UNL     1     -25.164  43.986  12.354  1.00  0.00     0.027 A
HETATM    3  C7  UNL     1     -26.416  44.516  12.668  1.00  0.00     0.031 A
HETATM    4  C8  UNL     1     -26.977  45.506  11.841  1.00  0.00     0.042 A
HETATM    5  C15 UNL     1     -26.289  45.928  10.754  1.00  0.00     0.031 A
HETATM    6  C16 UNL     1     -25.039  45.380  10.463  1.00  0.00     0.027 A
ENDROOT
BRANCH   4   7
HETATM    7  N2  UNL     1     -28.254  45.996  12.165  1.00  0.00    -0.281 N
ATOM      8  H2  UNL     1     -28.335  46.939  12.544  1.00  0.00     0.179 HD
BRANCH   7   9
HETATM    9  S2  UNL     1     -29.669  45.079  11.949  1.00  0.00     0.263 S
HETATM   10  O3  UNL     1     -29.842  44.220  13.190  1.00  0.00    -0.200 OA
HETATM   11  O4  UNL     1     -30.865  46.038  11.952  1.00  0.00    -0.200 OA
BRANCH   9  12
HETATM   12  C9  UNL     1     -29.651  44.130  10.521  1.00  0.00     0.079 A
HETATM   13  C10 UNL     1     -29.838  42.759  10.595  1.00  0.00     0.025 A
HETATM   14  C11 UNL     1     -29.822  42.040   9.426  1.00  0.00     0.002 A
HETATM   15  C12 UNL     1     -29.628  42.639   8.195  1.00  0.00     0.000 A
HETATM   16  C13 UNL     1     -29.447  44.004   8.166  1.00  0.00     0.002 A
HETATM   17  C14 UNL     1     -29.456  44.754   9.304  1.00  0.00     0.025 A
ENDBRANCH   9  12
ENDBRANCH   7   9
ENDBRANCH   4   7
BRANCH   1  18
HETATM   18  S1  UNL     1     -22.926  43.765  10.855  1.00  0.00     0.259 S
HETATM   19  O1  UNL     1     -22.538  42.855  11.978  1.00  0.00    -0.201 OA
HETATM   20  O2  UNL     1     -23.144  42.869   9.638  1.00  0.00    -0.201 OA
BRANCH  18  21
HETATM   21  N1  UNL     1     -21.848  44.963  10.477  1.00  0.00    -0.307 N
ATOM     22  H1  UNL     1     -22.024  45.901  10.836  1.00  0.00     0.173 HD
BRANCH  21  23
HETATM   23  C2  UNL     1     -20.717  44.759   9.696  1.00  0.00     0.029 C
HETATM   24  C1  UNL     1     -21.061  45.119   8.239  1.00  0.00     0.038 C
HETATM   25  C3  UNL     1     -20.022  43.454   9.730  1.00  0.00     0.038 C
HETATM   26  C4  UNL     1     -19.697  45.844  10.105  1.00  0.00     0.038 C
ENDBRANCH  21  23
ENDBRANCH  18  21
ENDBRANCH   1  18
TORSDOF 6
ENDMDL