MODEL 5
REMARK VINA RESULT: -7.153758067      0.264      1.309
REMARK  6 active torsions:
REMARK  status: ('A' for Active; 'I' for Inactive)
REMARK    1  A    between atoms: C2_2  and  N1_3
REMARK    2  A    between atoms: N1_3  and  C3_4
REMARK    3  A    between atoms: N1_3  and  C14_26
REMARK    4  A    between atoms: C3_4  and  O1_5
REMARK    5  A    between atoms: C3_4  and  C4_7
REMARK    6  A    between atoms: C7_10  and  N2_11
REMARK       I    between atoms: N2_11  and  C8_12
REMARK       I    between atoms: N2_11  and  C10_15
REMARK       I    between atoms: C10_15  and  N3_17
REMARK       I    between atoms: N3_17  and  C11_19
ROOT
HETATM    1  C4  UNL     1     -29.303  44.802  13.349  1.00  0.00     0.015 A
HETATM    2  C5  UNL     1     -28.308  45.637  13.745  1.00  0.00     0.018 A
HETATM    3  C6  UNL     1     -27.133  45.723  13.001  1.00  0.00     0.031 A
HETATM    4  C7  UNL     1     -26.930  44.991  11.865  1.00  0.00     0.047 A
HETATM    5  C12 UNL     1     -27.943  44.159  11.485  1.00  0.00     0.031 A
HETATM    6  C13 UNL     1     -29.110  44.053  12.197  1.00  0.00     0.018 A
ENDROOT
BRANCH   4   7
HETATM    7  N2  UNL     1     -25.687  45.104  11.104  1.00  0.00    -0.234 N
HETATM    8  C8  UNL     1     -25.643  46.082  10.083  1.00  0.00     0.228 C
HETATM    9  C9  UNL     1     -26.843  46.945   9.789  1.00  0.00     0.118 C
HETATM   10  O2  UNL     1     -24.615  46.263   9.390  1.00  0.00    -0.273 OA
HETATM   11  C10 UNL     1     -24.633  44.229  11.417  1.00  0.00     0.336 C
HETATM   12  O3  UNL     1     -24.837  43.381  12.363  1.00  0.00    -0.246 OA
HETATM   13  N3  UNL     1     -23.373  44.168  10.813  1.00  0.00    -0.282 N
HETATM   14  C11 UNL     1     -22.374  43.217  11.218  1.00  0.00     0.189 C
ATOM     15  H3  UNL     1     -23.155  44.821  10.060  1.00  0.00     0.173 HD
HETATM   16  N4  UNL     1     -21.243  43.176  10.658  1.00  0.00    -0.373 N
HETATM   17  N5  UNL     1     -22.651  42.292  12.263  1.00  0.00    -0.064 NA
ATOM     18  H42 UNL     1     -21.045  43.840   9.909  1.00  0.00     0.158 HD
ATOM     19  H41 UNL     1     -20.534  42.502  10.945  1.00  0.00     0.158 HD
ENDBRANCH   4   7
BRANCH   1  20
HETATM   20  C3  UNL     1     -30.554  44.619  14.070  1.00  0.00     0.153 C
BRANCH  20  21
HETATM   21  N1  UNL     1     -30.909  44.829  15.390  1.00  0.00    -0.328 N
BRANCH  21  22
HETATM   22  C2  UNL     1     -31.786  45.737  16.038  1.00  0.00     0.127 C
HETATM   23  C1  UNL     1     -31.416  47.196  15.849  1.00  0.00     0.027 C
ENDBRANCH  21  22
BRANCH  21  24
HETATM   24  C14 UNL     1     -30.227  43.928  16.341  1.00  0.00     0.036 A
HETATM   25  C15 UNL     1     -29.832  44.319  17.572  1.00  0.00     0.029 A
HETATM   26  C16 UNL     1     -29.174  43.411  18.408  1.00  0.00     0.002 A
HETATM   27  C17 UNL     1     -28.925  42.115  17.988  1.00  0.00     0.000 A
HETATM   28  C18 UNL     1     -29.335  41.726  16.726  1.00  0.00     0.002 A
HETATM   29  C19 UNL     1     -29.988  42.647  15.907  1.00  0.00     0.029 A
ENDBRANCH  21  24
ENDBRANCH  20  21
BRANCH  20  30
HETATM   30  O1  UNL     1     -31.541  44.167  13.333  1.00  0.00    -0.345 OA
ATOM     31  H1  UNL     1     -31.588  44.577  12.478  1.00  0.00     0.219 HD
ENDBRANCH  20  30
ENDBRANCH   1  20
TORSDOF 6
ENDMDL