MODEL 3
REMARK VINA RESULT: -6.479279187      1.216      2.164
REMARK  5 active torsions:
REMARK  status: ('A' for Active; 'I' for Inactive)
REMARK    1  A    between atoms: S1_2  and  C2_3
REMARK    2  A    between atoms: C7_8  and  C8_9
REMARK       I    between atoms: C8_9  and  N1_11
REMARK    3  A    between atoms: N1_11  and  C9_13
REMARK    4  A    between atoms: C12_16  and  S2_17
REMARK    5  A    between atoms: S2_17  and  N2_20
ROOT
HETATM    1  C9  UNL     1     -25.016  44.892  10.380  1.00  0.00     0.035 A
HETATM    2  C10 UNL     1     -24.318  45.494   9.319  1.00  0.00     0.031 A
HETATM    3  C11 UNL     1     -22.967  45.320   9.133  1.00  0.00     0.027 A
HETATM    4  C12 UNL     1     -22.220  44.538   9.985  1.00  0.00     0.080 A
HETATM    5  C14 UNL     1     -22.892  43.946  11.025  1.00  0.00     0.027 A
HETATM    6  C15 UNL     1     -24.271  44.119  11.221  1.00  0.00     0.031 A
ENDROOT
BRANCH   1   7
HETATM    7  N1  UNL     1     -26.408  45.118  10.523  1.00  0.00    -0.323 N
HETATM    8  C8  UNL     1     -27.030  46.297  10.939  1.00  0.00     0.257 C
HETATM    9  O1  UNL     1     -26.468  47.339  11.256  1.00  0.00    -0.267 OA
ATOM     10  H1  UNL     1     -27.021  44.335  10.299  1.00  0.00     0.169 HD
BRANCH   8  11
HETATM   11  C7  UNL     1     -28.515  46.281  11.005  1.00  0.00     0.049 A
HETATM   12  C2  UNL     1     -29.181  45.799  12.080  1.00  0.00     0.015 A
HETATM   13  C3  UNL     1     -30.576  45.815  12.082  1.00  0.00     0.019 A
HETATM   14  C4  UNL     1     -31.299  46.306  11.021  1.00  0.00     0.001 A
HETATM   15  C5  UNL     1     -30.605  46.791   9.936  1.00  0.00     0.001 A
HETATM   16  C6  UNL     1     -29.225  46.782   9.919  1.00  0.00     0.018 A
BRANCH  12  17
HETATM   17  S1  UNL     1     -28.260  45.160  13.469  1.00  0.00    -0.133 SA
HETATM   18  C1  UNL     1     -29.444  44.318  14.585  1.00  0.00     0.095 C
ENDBRANCH  12  17
ENDBRANCH   8  11
ENDBRANCH   1   7
BRANCH   4  19
HETATM   19  S2  UNL     1     -20.502  44.322   9.742  1.00  0.00     0.264 S
HETATM   20  O2  UNL     1     -20.169  44.225   8.295  1.00  0.00    -0.200 OA
HETATM   21  O3  UNL     1     -20.039  43.062  10.453  1.00  0.00    -0.200 OA
BRANCH  19  22
HETATM   22  N2  UNL     1     -19.703  45.648  10.498  1.00  0.00    -0.256 N
HETATM   23  C13 UNL     1     -19.695  46.823   9.959  1.00  0.00     0.210 C
HETATM   24  N3  UNL     1     -20.362  47.008   8.721  1.00  0.00    -0.066 NA
HETATM   25  N4  UNL     1     -19.049  47.922  10.559  1.00  0.00    -0.066 NA
ATOM     26  H2  UNL     1     -19.227  45.504  11.388  1.00  0.00     0.181 HD
ENDBRANCH  19  22
ENDBRANCH   4  19
TORSDOF 5
ENDMDL