MODEL 3
REMARK VINA RESULT: -6.970911069      2.965      5.698
REMARK  7 active torsions:
REMARK  status: ('A' for Active; 'I' for Inactive)
REMARK    1  A    between atoms: C2_2  and  N1_4
REMARK    2  A    between atoms: N1_4  and  C4_5
REMARK    3  A    between atoms: N1_4  and  S1_14
REMARK    4  A    between atoms: C4_5  and  O1_6
REMARK    5  A    between atoms: C4_5  and  C5_8
REMARK    6  A    between atoms: S1_14  and  C11_17
REMARK    7  A    between atoms: C14_20  and  N2_21
REMARK       I    between atoms: N2_21  and  C15_23
ROOT
HETATM    1  S1  UNL     1     -28.589  47.061   9.967  1.00  0.00     0.267 S
HETATM    2  O2  UNL     1     -29.801  46.994   9.134  1.00  0.00    -0.200 OA
HETATM    3  O3  UNL     1     -28.828  47.896  11.187  1.00  0.00    -0.200 OA
ENDROOT
BRANCH   1   4
HETATM    4  N1  UNL     1     -28.079  45.443  10.544  1.00  0.00    -0.246 N
BRANCH   4   5
HETATM    5  C2  UNL     1     -29.025  44.422  10.182  1.00  0.00     0.096 C
HETATM    6  C1  UNL     1     -29.204  43.338  11.219  1.00  0.00     0.033 C
HETATM    7  C3  UNL     1     -28.909  43.925   8.763  1.00  0.00     0.033 C
ENDBRANCH   4   5
BRANCH   4   8
HETATM    8  C4  UNL     1     -26.886  45.429  11.225  1.00  0.00     0.162 C
BRANCH   8   9
HETATM    9  O1  UNL     1     -26.968  46.092  12.384  1.00  0.00    -0.345 OA
ATOM     10  H1  UNL     1     -27.285  46.980  12.262  1.00  0.00     0.219 HD
ENDBRANCH   8   9
BRANCH   8  11
HETATM   11  C5  UNL     1     -25.565  44.886  11.016  1.00  0.00     0.015 A
HETATM   12  C6  UNL     1     -25.057  43.931  11.929  1.00  0.00     0.016 A
HETATM   13  C7  UNL     1     -23.827  43.351  11.833  1.00  0.00     0.001 A
HETATM   14  C8  UNL     1     -23.000  43.691  10.799  1.00  0.00     0.000 A
HETATM   15  C9  UNL     1     -23.433  44.610   9.881  1.00  0.00     0.001 A
HETATM   16  C10 UNL     1     -24.706  45.191  10.006  1.00  0.00     0.016 A
ENDBRANCH   8  11
ENDBRANCH   4   8
ENDBRANCH   1   4
BRANCH   1  17
HETATM   17  C11 UNL     1     -27.272  47.816   9.084  1.00  0.00     0.080 A
HETATM   18  C12 UNL     1     -26.257  48.507   9.694  1.00  0.00     0.027 A
HETATM   19  C13 UNL     1     -25.250  49.077   8.962  1.00  0.00     0.031 A
HETATM   20  C14 UNL     1     -25.193  48.998   7.583  1.00  0.00     0.034 A
HETATM   21  C16 UNL     1     -26.209  48.305   6.964  1.00  0.00     0.031 A
HETATM   22  C17 UNL     1     -27.228  47.726   7.694  1.00  0.00     0.027 A
BRANCH  20  23
HETATM   23  N2  UNL     1     -24.131  49.607   6.878  1.00  0.00    -0.331 N
HETATM   24  C15 UNL     1     -24.285  49.918   5.515  1.00  0.00     0.186 C
HETATM   25  N3  UNL     1     -24.801  51.052   5.157  1.00  0.00    -0.373 N
HETATM   26  N4  UNL     1     -23.895  49.031   4.474  1.00  0.00    -0.064 NA
ATOM     27  H32 UNL     1     -25.081  51.688   5.904  1.00  0.00     0.158 HD
ATOM     28  H31 UNL     1     -24.913  51.277   4.169  1.00  0.00     0.158 HD
ATOM     29  H2  UNL     1     -23.256  49.821   7.356  1.00  0.00     0.168 HD
ENDBRANCH  20  23
ENDBRANCH   1  17
TORSDOF 7
ENDMDL