MODEL 3
REMARK VINA RESULT: -7.213655285      1.044      1.670
REMARK  7 active torsions:
REMARK  status: ('A' for Active; 'I' for Inactive)
REMARK    1  A    between atoms: C2_2  and  C4_4
REMARK       I    between atoms: C4_4  and  N1_6
REMARK    2  A    between atoms: N1_6  and  C5_8
REMARK    3  A    between atoms: C5_8  and  C7_10
REMARK    4  A    between atoms: C5_8  and  C15_24
REMARK       I    between atoms: C7_10  and  N2_12
REMARK    5  A    between atoms: N2_12  and  N3_14
REMARK    6  A    between atoms: N3_14  and  C8_16
REMARK    7  A    between atoms: C8_16  and  C9_18
ROOT
HETATM    1  C5  UNL     1     -26.186  45.687  11.350  1.00  0.00     0.139 C
HETATM    2  C6  UNL     1     -25.697  46.150  12.784  1.00  0.00     0.054 C
ENDROOT
BRANCH   1   3
HETATM    3  N1  UNL     1     -25.101  44.943  10.788  1.00  0.00    -0.339 N
HETATM    4  C4  UNL     1     -24.481  43.804  11.367  1.00  0.00     0.222 C
HETATM    5  O1  UNL     1     -24.912  43.395  12.468  1.00  0.00    -0.273 OA
ATOM      6  H1  UNL     1     -24.740  45.260   9.888  1.00  0.00     0.164 HD
BRANCH   4   7
HETATM    7  C2  UNL     1     -23.359  43.088  10.728  1.00  0.00     0.070 C
HETATM    8  C1  UNL     1     -22.780  43.966   9.647  1.00  0.00     0.019 C
HETATM    9  C3  UNL     1     -22.292  42.697  11.732  1.00  0.00     0.019 C
ENDBRANCH   4   7
ENDBRANCH   1   3
BRANCH   1  10
HETATM   10  C7  UNL     1     -27.324  44.804  11.653  1.00  0.00     0.269 C
HETATM   11  O2  UNL     1     -27.922  44.292  10.635  1.00  0.00    -0.269 OA
HETATM   12  N2  UNL     1     -27.793  44.490  12.927  1.00  0.00    -0.266 N
ATOM     13  H2  UNL     1     -27.351  44.879  13.760  1.00  0.00     0.190 HD
BRANCH  12  14
HETATM   14  N3  UNL     1     -28.907  43.610  13.028  1.00  0.00    -0.287 N
ATOM     15  H3  UNL     1     -28.955  42.765  12.458  1.00  0.00     0.188 HD
BRANCH  14  16
HETATM   16  C8  UNL     1     -29.943  43.929  13.932  1.00  0.00     0.125 C
HETATM   17  S1  UNL     1     -31.371  44.547  13.390  1.00  0.00    -0.058 SA
BRANCH  16  18
HETATM   18  C9  UNL     1     -29.773  43.717  15.361  1.00  0.00     0.003 A
HETATM   19  C10 UNL     1     -29.979  44.716  16.284  1.00  0.00     0.014 A
HETATM   20  C11 UNL     1     -29.810  44.486  17.631  1.00  0.00     0.001 A
HETATM   21  C12 UNL     1     -29.430  43.248  18.103  1.00  0.00     0.000 A
HETATM   22  C13 UNL     1     -29.220  42.243  17.196  1.00  0.00     0.001 A
HETATM   23  C14 UNL     1     -29.395  42.490  15.841  1.00  0.00     0.014 A
ENDBRANCH  16  18
ENDBRANCH  14  16
ENDBRANCH  12  14
ENDBRANCH   1  10
BRANCH   1  24
HETATM   24  C15 UNL     1     -26.577  46.915  10.700  1.00  0.00    -0.021 A
HETATM   25  C16 UNL     1     -27.785  47.562  10.976  1.00  0.00     0.010 A
HETATM   26  C17 UNL     1     -28.135  48.687  10.267  1.00  0.00     0.001 A
HETATM   27  C18 UNL     1     -27.312  49.200   9.276  1.00  0.00     0.000 A
HETATM   28  C19 UNL     1     -26.120  48.560   9.004  1.00  0.00     0.001 A
HETATM   29  C20 UNL     1     -25.759  47.436   9.706  1.00  0.00     0.010 A
ENDBRANCH   1  24
TORSDOF 7
ENDMDL