MODEL 1
REMARK VINA RESULT: -7.468860304      0.000      0.000
REMARK  5 active torsions:
REMARK  status: ('A' for Active; 'I' for Inactive)
REMARK    1  A    between atoms: C2_3  and  C3_4
REMARK    2  A    between atoms: C2_3  and  N2_11
REMARK    3  A    between atoms: C3_4  and  C4_5
REMARK       I    between atoms: N2_11  and  C10_13
REMARK    4  A    between atoms: C10_13  and  C11_15
REMARK    5  A    between atoms: N4_19  and  C13_20
REMARK       I    between atoms: N5_27  and  C20_29
ROOT
HETATM    1  N1  UNL     1     -25.770  46.413  13.437  1.00  0.00    -0.195 NA
HETATM    2  C1  UNL     1     -25.807  45.497  12.746  1.00  0.00     0.085 C
HETATM    3  C2  UNL     1     -25.851  44.327  11.829  1.00  0.00     0.196 C
ENDROOT
BRANCH   3   4
HETATM    4  C3  UNL     1     -24.669  43.461  12.085  1.00  0.00     0.078 C
BRANCH   4   5
HETATM    5  C4  UNL     1     -23.568  43.653  11.124  1.00  0.00    -0.055 A
HETATM    6  C5  UNL     1     -23.618  44.641  10.166  1.00  0.00     0.007 A
HETATM    7  C6  UNL     1     -22.592  44.824   9.263  1.00  0.00     0.001 A
HETATM    8  C7  UNL     1     -21.481  44.013   9.299  1.00  0.00     0.000 A
HETATM    9  C8  UNL     1     -21.412  43.019  10.250  1.00  0.00     0.001 A
HETATM   10  C9  UNL     1     -22.458  42.851  11.153  1.00  0.00     0.007 A
ENDBRANCH   4   5
ENDBRANCH   3   4
BRANCH   3  11
HETATM   11  N2  UNL     1     -27.124  43.666  11.888  1.00  0.00    -0.339 N
HETATM   12  C10 UNL     1     -28.183  43.971  10.977  1.00  0.00     0.258 C
HETATM   13  O1  UNL     1     -27.943  44.864  10.107  1.00  0.00    -0.267 OA
ATOM     14  H2  UNL     1     -27.279  42.956  12.604  1.00  0.00     0.164 HD
BRANCH  12  15
HETATM   15  C11 UNL     1     -29.449  43.268  11.082  1.00  0.00     0.094 A
HETATM   16  C12 UNL     1     -29.807  42.174  10.283  1.00  0.00     0.128 A
HETATM   17  N3  UNL     1     -31.032  41.800  10.664  1.00  0.00    -0.302 N
HETATM   18  N4  UNL     1     -31.507  42.544  11.635  1.00  0.00    -0.239 N
ATOM     19  H3  UNL     1     -31.541  41.022  10.247  1.00  0.00     0.186 HD
HETATM   20  C19 UNL     1     -30.529  43.472  11.909  1.00  0.00     0.148 A
HETATM   21  N5  UNL     1     -30.673  44.349  12.800  1.00  0.00    -0.295 N
HETATM   22  C20 UNL     1     -29.926  45.383  13.302  1.00  0.00     0.334 C
ATOM     23  H5  UNL     1     -31.577  44.271  13.268  1.00  0.00     0.172 HD
HETATM   24  N6  UNL     1     -29.328  45.318  14.591  1.00  0.00    -0.040 NA
HETATM   25  O2  UNL     1     -29.740  46.443  12.628  1.00  0.00    -0.251 OA
BRANCH  18  26
HETATM   26  C13 UNL     1     -32.773  42.426  12.290  1.00  0.00     0.058 A
HETATM   27  C14 UNL     1     -33.918  42.857  11.640  1.00  0.00     0.031 A
HETATM   28  C15 UNL     1     -35.158  42.759  12.243  1.00  0.00     0.002 A
HETATM   29  C16 UNL     1     -35.299  42.231  13.509  1.00  0.00     0.000 A
HETATM   30  C17 UNL     1     -34.166  41.801  14.161  1.00  0.00     0.002 A
HETATM   31  C18 UNL     1     -32.937  41.900  13.558  1.00  0.00     0.031 A
ENDBRANCH  18  26
ENDBRANCH  12  15
ENDBRANCH   3  11
TORSDOF 5
ENDMDL