MODEL 4
REMARK VINA RESULT: -8.197116078      2.085      2.916
REMARK  8 active torsions:
REMARK  status: ('A' for Active; 'I' for Inactive)
REMARK    1  A    between atoms: C2_2  and  C3_3
REMARK    2  A    between atoms: C2_2  and  N1_13
REMARK    3  A    between atoms: C3_3  and  O1_4
REMARK    4  A    between atoms: O1_4  and  C4_5
REMARK    5  A    between atoms: C7_8  and  O2_9
REMARK    6  A    between atoms: N1_13  and  C10_15
REMARK    7  A    between atoms: C10_15  and  C11_20
REMARK    8  A    between atoms: N2_16  and  O3_18
ROOT
HETATM    1  N1  UNL     1      23.246  53.098  18.607  1.00  0.00    -0.372 N
ATOM      2  H1  UNL     1      23.277  53.871  19.271  1.00  0.00     0.161 HD
ENDROOT
BRANCH   1   3
HETATM    3  C2  UNL     1      23.478  53.372  17.179  1.00  0.00     0.102 C
HETATM    4  C1  UNL     1      24.647  52.506  16.751  1.00  0.00     0.034 C
BRANCH   3   5
HETATM    5  C3  UNL     1      23.818  54.841  17.103  1.00  0.00     0.193 C
BRANCH   5   6
HETATM    6  O1  UNL     1      23.036  55.499  16.233  1.00  0.00    -0.384 OA
BRANCH   6   7
HETATM    7  C4  UNL     1      23.580  56.187  15.201  1.00  0.00     0.121 C
HETATM    8  C5  UNL     1      23.623  55.352  13.913  1.00  0.00     0.034 C
HETATM    9  C6  UNL     1      24.257  56.176  12.834  1.00  0.00     0.034 C
HETATM   10  C7  UNL     1      23.334  57.360  12.580  1.00  0.00     0.118 C
HETATM   11  C8  UNL     1      23.505  58.259  13.786  1.00  0.00     0.034 C
HETATM   12  C9  UNL     1      22.890  57.491  14.970  1.00  0.00     0.034 C
BRANCH  10  13
HETATM   13  O2  UNL     1      23.618  58.003  11.389  1.00  0.00    -0.396 OA
ATOM     14  H2  UNL     1      24.174  57.483  10.821  1.00  0.00     0.210 HD
ENDBRANCH  10  13
ENDBRANCH   6   7
ENDBRANCH   5   6
ENDBRANCH   3   5
ENDBRANCH   1   3
BRANCH   1  15
HETATM   15  C10 UNL     1      22.978  51.785  19.086  1.00  0.00     0.102 C
HETATM   16  N2  UNL     1      22.161  51.044  18.428  1.00  0.00    -0.257 N
ATOM     17  H2  UNL     1      21.713  51.391  17.580  1.00  0.00     0.195 HD
BRANCH  16  18
HETATM   18  O3  UNL     1      21.902  49.781  18.886  1.00  0.00    -0.288 OA
ATOM     19  H3  UNL     1      22.238  49.039  18.397  1.00  0.00     0.244 HD
ENDBRANCH  16  18
BRANCH  15  20
HETATM   20  C11 UNL     1      23.619  51.280  20.303  1.00  0.00     0.055 C
HETATM   21  C12 UNL     1      25.028  50.777  19.975  1.00  0.00     0.012 C
HETATM   22  C13 UNL     1      25.390  49.800  21.096  1.00  0.00     0.001 C
HETATM   23  C14 UNL     1      24.801  50.301  22.374  1.00  0.00     0.000 C
HETATM   24  C15 UNL     1      24.680  51.794  22.436  1.00  0.00     0.001 C
HETATM   25  C16 UNL     1      23.794  52.349  21.364  1.00  0.00     0.012 C
ENDBRANCH  15  20
ENDBRANCH   1  15
TORSDOF 8
ENDMDL