MODEL 1
REMARK VINA RESULT: -7.934518616      0.000      0.000
REMARK  6 active torsions:
REMARK  status: ('A' for Active; 'I' for Inactive)
REMARK    1  A    between atoms: C2_2  and  C3_3
REMARK    2  A    between atoms: C3_3  and  N1_4
REMARK    3  A    between atoms: N1_4  and  C4_7
REMARK    4  A    between atoms: C12_19  and  C13_20
REMARK    5  A    between atoms: C13_20  and  N3_21
REMARK    6  A    between atoms: C13_20  and  C14_25
ROOT
HETATM    1  C1  UNL     1      22.001  54.501  15.302  1.00  0.00     0.017 C
HETATM    2  C2  UNL     1      23.466  54.531  15.685  1.00  0.00    -0.011 C
HETATM    3  C10 UNL     1      23.681  55.841  16.417  1.00  0.00     0.094 C
HETATM    4  C11 UNL     1      23.325  56.953  15.524  1.00  0.00     0.112 C
HETATM    5  N2  UNL     1      22.828  58.077  15.966  1.00  0.00    -0.384 N
ATOM      6  H21 UNL     1      22.581  58.849  15.346  1.00  0.00     0.157 HD
ATOM      7  H22 UNL     1      22.669  58.224  16.963  1.00  0.00     0.157 HD
HETATM    8  O1  UNL     1      23.544  56.750  14.153  1.00  0.00    -0.332 OA
HETATM    9  C12 UNL     1      24.535  55.800  13.802  1.00  0.00     0.161 C
HETATM   10  C17 UNL     1      24.274  54.453  14.417  1.00  0.00     0.045 C
ENDROOT
BRANCH   2  11
HETATM   11  C3  UNL     1      23.821  53.436  16.666  1.00  0.00     0.242 C
BRANCH  11  12
HETATM   12  N1  UNL     1      23.596  53.819  18.039  1.00  0.00    -0.070 N
ATOM     13  H12 UNL     1      24.430  54.255  18.433  1.00  0.00     0.277 HD
ATOM     14  H11 UNL     1      22.951  54.608  18.092  1.00  0.00     0.277 HD
BRANCH  12  15
HETATM   15  C4  UNL     1      23.149  52.747  18.865  1.00  0.00     0.186 C
HETATM   16  C5  UNL     1      23.315  51.382  18.278  1.00  0.00     0.033 C
HETATM   17  C6  UNL     1      22.124  50.485  18.568  1.00  0.00     0.002 C
HETATM   18  C7  UNL     1      20.915  51.017  17.846  1.00  0.00     0.000 C
HETATM   19  C8  UNL     1      20.745  52.463  18.163  1.00  0.00     0.002 C
HETATM   20  C9  UNL     1      21.691  52.970  19.205  1.00  0.00     0.033 C
ENDBRANCH  12  15
ENDBRANCH  11  12
ENDBRANCH   2  11
BRANCH   9  21
HETATM   21  C13 UNL     1      24.475  55.655  12.294  1.00  0.00     0.216 C
BRANCH  21  22
HETATM   22  N3  UNL     1      24.382  54.204  12.056  1.00  0.00    -0.072 N
ATOM     23  H33 UNL     1      25.020  53.649  12.626  1.00  0.00     0.274 HD
ATOM     24  H32 UNL     1      23.521  53.783  12.403  1.00  0.00     0.274 HD
ATOM     25  H31 UNL     1      24.523  54.094  11.052  1.00  0.00     0.274 HD
ENDBRANCH  21  22
BRANCH  21  26
HETATM   26  C14 UNL     1      23.207  56.270  11.746  1.00  0.00     0.018 A
HETATM   27  C15 UNL     1      22.691  55.832  10.424  1.00  0.00     0.007 A
HETATM   28  C16 UNL     1      23.361  57.201  10.593  1.00  0.00     0.007 A
ENDBRANCH  21  26
ENDBRANCH   9  21
TORSDOF 6
ENDMDL