MODEL 5
REMARK VINA RESULT: -7.209201738      2.040      3.469
REMARK  9 active torsions:
REMARK  status: ('A' for Active; 'I' for Inactive)
REMARK    1  A    between atoms: C2_2  and  C3_3
REMARK    2  A    between atoms: C3_3  and  C4_4
REMARK    3  A    between atoms: C10_11  and  C11_12
REMARK    4  A    between atoms: C11_12  and  C12_13
REMARK    5  A    between atoms: C12_13  and  C13_14
REMARK    6  A    between atoms: C13_14  and  O2_16
REMARK    7  A    between atoms: C13_14  and  C15_18
REMARK    8  A    between atoms: C15_18  and  N1_19
REMARK    9  A    between atoms: C17_24  and  O3_25
ROOT
HETATM    1  C4  UNL     1      25.623  49.048  20.195  1.00  0.00     0.151 C
HETATM    2  O1  UNL     1      24.752  49.410  19.225  1.00  0.00    -0.378 OA
HETATM    3  C5  UNL     1      23.419  49.352  19.407  1.00  0.00     0.127 C
HETATM    4  C6  UNL     1      22.919  49.400  20.834  1.00  0.00     0.039 C
HETATM    5  C7  UNL     1      23.983  50.244  21.551  1.00  0.00     0.020 C
HETATM    6  C8  UNL     1      24.304  51.477  20.729  1.00  0.00     0.012 C
HETATM    7  C9  UNL     1      23.325  51.779  19.657  1.00  0.00    -0.003 A
HETATM    8  C10 UNL     1      23.750  51.639  18.195  1.00  0.00    -0.003 A
HETATM    9  C16 UNL     1      22.861  50.662  18.810  1.00  0.00     0.023 A
HETATM   10  C17 UNL     1      25.185  49.287  21.610  1.00  0.00     0.151 C
ENDROOT
BRANCH   8  11
HETATM   11  C11 UNL     1      23.123  52.599  17.202  1.00  0.00     0.008 C
BRANCH  11  12
HETATM   12  C12 UNL     1      24.184  53.452  16.525  1.00  0.00     0.039 C
BRANCH  12  13
HETATM   13  C13 UNL     1      23.590  54.793  16.166  1.00  0.00     0.078 C
HETATM   14  C14 UNL     1      23.824  55.087  14.698  1.00  0.00     0.047 C
BRANCH  13  15
HETATM   15  O2  UNL     1      22.217  54.791  16.369  1.00  0.00    -0.389 OA
ATOM     16  H2  UNL     1      22.016  54.739  17.296  1.00  0.00     0.210 HD
ENDBRANCH  13  15
BRANCH  13  17
HETATM   17  C15 UNL     1      24.177  55.918  16.956  1.00  0.00     0.266 C
BRANCH  17  18
HETATM   18  N1  UNL     1      23.758  57.218  16.467  1.00  0.00    -0.076 N
ATOM     19  H13 UNL     1      22.809  57.182  16.097  1.00  0.00     0.274 HD
ATOM     20  H12 UNL     1      23.608  57.869  17.238  1.00  0.00     0.274 HD
ATOM     21  H11 UNL     1      24.407  57.604  15.780  1.00  0.00     0.274 HD
ENDBRANCH  17  18
ENDBRANCH  13  17
ENDBRANCH  12  13
ENDBRANCH  11  12
ENDBRANCH   8  11
BRANCH  10  22
HETATM   22  O3  UNL     1      24.658  48.098  22.109  1.00  0.00    -0.393 OA
ATOM     23  H3  UNL     1      25.029  47.948  22.971  1.00  0.00     0.210 HD
ENDBRANCH  10  22
BRANCH   1  24
HETATM   24  C3  UNL     1      26.221  47.674  19.961  1.00  0.00     0.034 C
BRANCH  24  25
HETATM   25  C2  UNL     1      26.408  47.310  18.533  1.00  0.00    -0.002 C
HETATM   26  C1  UNL     1      27.734  46.635  18.253  1.00  0.00     0.005 C
ENDBRANCH  24  25
ENDBRANCH   1  24
TORSDOF 9
ENDMDL