MODEL 4
REMARK VINA RESULT: -8.686867600      1.030      1.184
REMARK  8 active torsions:
REMARK  status: ('A' for Active; 'I' for Inactive)
REMARK    1  A    between atoms: O1_1  and  C1_3
REMARK    2  A    between atoms: C1_3  and  N1_4
REMARK    3  A    between atoms: C1_3  and  N4_18
REMARK    4  A    between atoms: N1_4  and  N2_5
REMARK    5  A    between atoms: C2_7  and  C3_8
REMARK    6  A    between atoms: C2_7  and  C8_15
REMARK    7  A    between atoms: N4_18  and  N5_20
REMARK    8  A    between atoms: N5_20  and  C11_22
ROOT
HETATM    1  N1  UNL     1      23.044  52.349  19.421  1.00  0.00    -0.278 NA
ENDROOT
BRANCH   1   2
HETATM    2  C1  UNL     1      22.261  52.536  18.357  1.00  0.00     0.333 C
BRANCH   2   3
HETATM    3  O1  UNL     1      21.317  51.763  17.907  1.00  0.00    -0.319 OA
ATOM      4  H1  UNL     1      20.700  51.936  17.206  1.00  0.00     0.222 HD
ENDBRANCH   2   3
BRANCH   2   5
HETATM    5  N4  UNL     1      22.398  53.721  17.516  1.00  0.00    -0.251 N
ATOM      6  H4  UNL     1      21.645  53.988  16.881  1.00  0.00     0.191 HD
BRANCH   5   7
HETATM    7  N5  UNL     1      23.548  54.480  17.580  1.00  0.00    -0.297 N
ATOM      8  H5  UNL     1      24.200  54.344  18.352  1.00  0.00     0.187 HD
BRANCH   7   9
HETATM    9  C11 UNL     1      23.831  55.442  16.589  1.00  0.00     0.048 A
HETATM   10  C12 UNL     1      24.329  56.680  16.900  1.00  0.00     0.031 A
HETATM   11  C13 UNL     1      24.613  57.610  15.912  1.00  0.00     0.002 A
HETATM   12  C14 UNL     1      24.388  57.276  14.590  1.00  0.00     0.000 A
HETATM   13  C15 UNL     1      23.880  56.015  14.242  1.00  0.00     0.002 A
HETATM   14  C16 UNL     1      23.620  55.147  15.261  1.00  0.00     0.031 A
ENDBRANCH   7   9
ENDBRANCH   5   7
ENDBRANCH   2   5
ENDBRANCH   1   2
BRANCH   1  15
HETATM   15  N2  UNL     1      23.810  52.168  20.458  1.00  0.00    -0.233 N
HETATM   16  C2  UNL     1      24.621  51.354  20.938  1.00  0.00     0.069 C
ATOM     17  H2  UNL     1      23.715  52.962  21.091  1.00  0.00     0.202 HD
BRANCH  16  18
HETATM   18  C3  UNL     1      24.981  50.112  20.280  1.00  0.00     0.057 A
HETATM   19  C4  UNL     1      25.725  49.100  20.895  1.00  0.00     0.031 A
HETATM   20  C5  UNL     1      26.049  47.936  20.250  1.00  0.00     0.004 A
HETATM   21  C6  UNL     1      25.647  47.730  18.963  1.00  0.00     0.017 A
HETATM   22  C7  UNL     1      24.903  48.737  18.338  1.00  0.00     0.088 A
HETATM   23  N3  UNL     1      24.621  49.839  19.013  1.00  0.00    -0.364 N
ATOM     24  H3  UNL     1      24.077  50.551  18.526  1.00  0.00     0.165 HD
ENDBRANCH  16  18
BRANCH  16  25
HETATM   25  C8  UNL     1      25.216  51.703  22.275  1.00  0.00     0.040 A
HETATM   26  C9  UNL     1      24.961  53.059  22.840  1.00  0.00     0.011 A
HETATM   27  C10 UNL     1      24.238  51.856  23.429  1.00  0.00     0.011 A
ENDBRANCH  16  25
ENDBRANCH   1  15
TORSDOF 8
ENDMDL