MODEL 5
REMARK VINA RESULT: -7.475984593      4.758      7.045
REMARK  5 active torsions:
REMARK  status: ('A' for Active; 'I' for Inactive)
REMARK    1  A    between atoms: C1_4  and  C2_6
REMARK    2  A    between atoms: C3_9  and  C4_10
REMARK    3  A    between atoms: C4_10  and  C5_11
REMARK    4  A    between atoms: C10_16  and  C11_17
REMARK    5  A    between atoms: C11_17  and  C12_18
ROOT
HETATM    1  C4  UNL     1      23.751  54.840  15.403  1.00  0.00     0.006 C
HETATM    2  C8  UNL     1      22.715  55.313  14.388  1.00  0.00     0.016 C
HETATM    3  C9  UNL     1      22.995  54.929  12.980  1.00  0.00     0.006 C
HETATM    4  C10 UNL     1      24.433  55.078  12.643  1.00  0.00    -0.005 C
HETATM    5  C13 UNL     1      25.192  54.088  13.440  1.00  0.00     0.006 C
HETATM    6  C14 UNL     1      24.795  53.956  14.870  1.00  0.00     0.016 C
ENDROOT
BRANCH   1   7
HETATM    7  C3  UNL     1      22.890  54.029  16.400  1.00  0.00     0.025 A
HETATM    8  N3  UNL     1      23.452  53.519  17.467  1.00  0.00    -0.350 N
HETATM    9  C2  UNL     1      22.751  52.848  18.341  1.00  0.00     0.115 A
ATOM     10  H3  UNL     1      24.453  53.649  17.618  1.00  0.00     0.166 HD
HETATM   11  S1  UNL     1      21.184  52.903  17.660  1.00  0.00    -0.079 SA
HETATM   12  C15 UNL     1      21.541  53.810  16.260  1.00  0.00     0.077 A
BRANCH   9  13
HETATM   13  C1  UNL     1      23.130  52.194  19.613  1.00  0.00     0.144 C
HETATM   14  N1  UNL     1      23.522  52.863  20.609  1.00  0.00    -0.385 N
ATOM     15  H12 UNL     1      23.783  52.412  21.485  1.00  0.00     0.157 HD
ATOM     16  H11 UNL     1      23.597  53.880  20.568  1.00  0.00     0.157 HD
HETATM   17  N2  UNL     1      23.025  50.766  19.670  1.00  0.00    -0.080 NA
ENDBRANCH   9  13
ENDBRANCH   1   7
BRANCH   1  18
HETATM   18  C5  UNL     1      24.162  56.055  16.152  1.00  0.00     0.000 A
HETATM   19  C6  UNL     1      23.485  57.364  16.069  1.00  0.00     0.006 A
HETATM   20  C7  UNL     1      24.867  57.242  15.530  1.00  0.00     0.006 A
ENDBRANCH   1  18
BRANCH   4  21
HETATM   21  C11 UNL     1      24.731  54.880  11.173  1.00  0.00     0.117 C
BRANCH  21  22
HETATM   22  C12 UNL     1      24.085  55.819  10.263  1.00  0.00     0.172 C
HETATM   23  O1  UNL     1      24.766  56.689   9.660  1.00  0.00    -0.648 OA
HETATM   24  O2  UNL     1      22.721  55.777  10.040  1.00  0.00    -0.648 OA
ENDBRANCH  21  22
ENDBRANCH   4  21
TORSDOF 5
ENDMDL