MODEL 4
REMARK VINA RESULT: -7.248269323      3.850      8.311
REMARK  6 active torsions:
REMARK  status: ('A' for Active; 'I' for Inactive)
REMARK    1  A    between atoms: C2_2  and  C3_3
REMARK    2  A    between atoms: C3_3  and  C4_4
REMARK       I    between atoms: C4_4  and  N1_6
REMARK    3  A    between atoms: N1_6  and  C5_8
REMARK    4  A    between atoms: C5_8  and  C6_9
REMARK    5  A    between atoms: N2_18  and  C14_20
REMARK    6  A    between atoms: C14_20  and  O2_21
ROOT
HETATM    1  C3  UNL     1      23.494  51.125  19.447  1.00  0.00     0.079 C
HETATM    2  C7  UNL     1      24.441  50.316  18.603  1.00  0.00     0.026 C
HETATM    3  C8  UNL     1      24.708  48.954  19.177  1.00  0.00     0.011 C
HETATM    4  C9  UNL     1      25.178  48.934  20.575  1.00  0.00    -0.043 C
HETATM    5  C10 UNL     1      26.693  48.666  20.562  1.00  0.00     0.015 C
HETATM    6  C11 UNL     1      24.593  47.682  21.249  1.00  0.00     0.015 C
HETATM    7  C12 UNL     1      24.938  50.129  21.396  1.00  0.00     0.062 C
HETATM    8  C13 UNL     1      24.079  51.167  20.806  1.00  0.00     0.003 C
HETATM    9  N2  UNL     1      23.813  52.193  21.524  1.00  0.00    -0.364 N
ATOM     10  H2  UNL     1      23.218  52.916  21.121  1.00  0.00     0.162 HD
ENDROOT
BRANCH   1  11
HETATM   11  C2  UNL     1      22.139  50.456  19.566  1.00  0.00     0.021 C
HETATM   12  C1  UNL     1      21.400  50.508  18.271  1.00  0.00     0.006 C
ENDBRANCH   1  11
BRANCH   1  13
HETATM   13  C4  UNL     1      23.390  52.468  18.835  1.00  0.00     0.232 C
HETATM   14  O1  UNL     1      22.707  53.399  19.338  1.00  0.00    -0.272 OA
HETATM   15  N1  UNL     1      24.072  52.757  17.629  1.00  0.00    -0.359 N
ATOM     16  H1  UNL     1      24.630  52.014  17.209  1.00  0.00     0.162 HD
BRANCH  15  17
HETATM   17  C5  UNL     1      24.035  54.026  16.956  1.00  0.00     0.133 C
BRANCH  17  18
HETATM   18  C6  UNL     1      22.995  54.154  15.892  1.00  0.00     0.105 C
HETATM   19  S1  UNL     1      23.729  54.909  14.392  1.00  0.00    -0.096 SA
ENDBRANCH  17  18
ENDBRANCH  15  17
ENDBRANCH   1  13
BRANCH   9  20
HETATM   20  C14 UNL     1      24.296  52.390  22.851  1.00  0.00     0.131 A
HETATM   21  C15 UNL     1      23.603  51.504  23.883  1.00  0.00     0.066 A
HETATM   22  C16 UNL     1      23.389  52.975  23.881  1.00  0.00     0.066 A
BRANCH  20  23
HETATM   23  O2  UNL     1      25.674  52.465  22.997  1.00  0.00    -0.371 OA
ATOM     24  H2  UNL     1      26.049  53.338  23.002  1.00  0.00     0.212 HD
ENDBRANCH  20  23
ENDBRANCH   9  20
TORSDOF 6
ENDMDL