MODEL 2
REMARK VINA RESULT: -7.386845538      4.162      6.572
REMARK  7 active torsions:
REMARK  status: ('A' for Active; 'I' for Inactive)
REMARK    1  A    between atoms: C1_2  and  C2_3
REMARK       I    between atoms: C1_2  and  N3_20
REMARK    2  A    between atoms: C2_3  and  C3_4
REMARK    3  A    between atoms: C3_4  and  N1_5
REMARK    4  A    between atoms: N1_5  and  C4_7
REMARK    5  A    between atoms: C9_12  and  C10_13
REMARK    6  A    between atoms: C10_13  and  O2_14
REMARK    7  A    between atoms: N2_16  and  O3_18
ROOT
HETATM    1  C4  UNL     1      23.175  53.282  16.212  1.00  0.00     0.088 C
HETATM    2  C5  UNL     1      24.573  52.755  16.385  1.00  0.00     0.025 C
HETATM    3  C6  UNL     1      24.969  52.245  15.008  1.00  0.00     0.002 C
HETATM    4  C7  UNL     1      25.245  53.506  14.183  1.00  0.00     0.001 C
HETATM    5  C8  UNL     1      24.098  54.440  14.164  1.00  0.00     0.015 C
HETATM    6  C9  UNL     1      23.318  54.570  15.417  1.00  0.00     0.084 C
ENDROOT
BRANCH   1   7
HETATM    7  N1  UNL     1      22.529  53.588  17.459  1.00  0.00    -0.416 N
ATOM      8  H1  UNL     1      22.805  54.383  18.035  1.00  0.00     0.153 HD
BRANCH   7   9
HETATM    9  C3  UNL     1      21.481  52.709  17.832  1.00  0.00     0.123 C
BRANCH   9  10
HETATM   10  C2  UNL     1      21.933  51.447  18.528  1.00  0.00     0.122 C
BRANCH  10  11
HETATM   11  C1  UNL     1      23.007  51.765  19.537  1.00  0.00     0.221 C
HETATM   12  O1  UNL     1      22.957  52.857  20.158  1.00  0.00    -0.273 OA
HETATM   13  N3  UNL     1      24.064  50.876  19.805  1.00  0.00    -0.352 N
HETATM   14  C11 UNL     1      24.161  49.596  19.112  1.00  0.00     0.125 C
HETATM   15  C15 UNL     1      25.065  51.234  20.775  1.00  0.00     0.125 C
HETATM   16  C12 UNL     1      23.966  48.520  20.160  1.00  0.00     0.020 C
HETATM   17  C13 UNL     1      24.111  49.052  21.560  1.00  0.00     0.003 C
HETATM   18  C14 UNL     1      25.252  50.040  21.709  1.00  0.00     0.020 C
ENDBRANCH  10  11
ENDBRANCH   9  10
ENDBRANCH   7   9
ENDBRANCH   1   7
BRANCH   6  19
HETATM   19  C10 UNL     1      23.749  55.694  16.277  1.00  0.00     0.141 C
HETATM   20  N2  UNL     1      23.352  56.896  16.045  1.00  0.00    -0.251 N
ATOM     21  H2  UNL     1      22.731  57.066  15.254  1.00  0.00     0.196 HD
BRANCH  19  22
HETATM   22  O2  UNL     1      24.590  55.484  17.351  1.00  0.00    -0.348 OA
ATOM     23  H2  UNL     1      24.257  55.493  18.240  1.00  0.00     0.219 HD
ENDBRANCH  19  22
BRANCH  20  24
HETATM   24  O3  UNL     1      23.735  57.952  16.824  1.00  0.00    -0.288 OA
ATOM     25  H3  UNL     1      23.184  58.296  17.517  1.00  0.00     0.244 HD
ENDBRANCH  20  24
ENDBRANCH   6  19
TORSDOF 7
ENDMDL