MODEL 4
REMARK VINA RESULT: -7.061854299      1.079      1.685
REMARK  8 active torsions:
REMARK  status: ('A' for Active; 'I' for Inactive)
REMARK    1  A    between atoms: C2_2  and  C4_4
REMARK    2  A    between atoms: C4_4  and  O1_5
REMARK    3  A    between atoms: C4_4  and  C5_7
REMARK    4  A    between atoms: C5_7  and  C6_8
REMARK    5  A    between atoms: C5_7  and  C7_10
REMARK    6  A    between atoms: C7_10  and  O2_11
REMARK    7  A    between atoms: C7_10  and  N1_13
REMARK    8  A    between atoms: N1_13  and  C8_16
ROOT
HETATM    1  N1  UNL     1      24.093  51.565  19.077  1.00  0.00    -0.043 N
ATOM      2  H11 UNL     1      24.991  51.713  18.617  1.00  0.00     0.280 HD
ATOM      3  H12 UNL     1      23.916  50.602  18.792  1.00  0.00     0.280 HD
ENDROOT
BRANCH   1   4
HETATM    4  C7  UNL     1      23.078  52.463  18.541  1.00  0.00     0.330 C
BRANCH   4   5
HETATM    5  C5  UNL     1      23.425  52.807  17.121  1.00  0.00     0.109 C
BRANCH   5   6
HETATM    6  C4  UNL     1      22.959  54.096  16.638  1.00  0.00     0.057 C
BRANCH   6   7
HETATM    7  C2  UNL     1      23.612  55.273  16.184  1.00  0.00    -0.042 C
HETATM    8  C1  UNL     1      23.605  55.504  14.849  1.00  0.00     0.021 C
HETATM    9  C3  UNL     1      24.292  56.296  16.977  1.00  0.00     0.050 C
ENDBRANCH   6   7
BRANCH   6  10
HETATM   10  O1  UNL     1      21.639  54.182  16.620  1.00  0.00    -0.364 OA
ATOM     11  H1  UNL     1      21.293  54.562  15.822  1.00  0.00     0.217 HD
ENDBRANCH   6  10
ENDBRANCH   5   6
BRANCH   5  12
HETATM   12  C6  UNL     1      24.893  52.607  16.830  1.00  0.00     0.101 C
HETATM   13  S1  UNL     1      25.065  51.981  15.131  1.00  0.00    -0.097 SA
ENDBRANCH   5  12
ENDBRANCH   4   5
BRANCH   4  14
HETATM   14  O2  UNL     1      23.000  53.551  19.343  1.00  0.00    -0.369 OA
ATOM     15  H2  UNL     1      22.105  53.831  19.501  1.00  0.00     0.212 HD
ENDBRANCH   4  14
ENDBRANCH   1   4
BRANCH   1  16
HETATM   16  C8  UNL     1      24.222  51.661  20.491  1.00  0.00     0.197 C
HETATM   17  C9  UNL     1      23.209  50.822  21.242  1.00  0.00     0.017 C
HETATM   18  C10 UNL     1      23.383  51.062  22.728  1.00  0.00     0.011 C
HETATM   19  C14 UNL     1      23.392  49.359  20.991  1.00  0.00     0.011 C
HETATM   20  C11 UNL     1      24.734  50.603  23.164  1.00  0.00    -0.013 C
HETATM   21  C12 UNL     1      24.972  49.141  22.829  1.00  0.00     0.009 C
HETATM   22  C17 UNL     1      25.781  51.411  22.423  1.00  0.00     0.011 C
HETATM   23  C13 UNL     1      24.802  48.969  21.323  1.00  0.00    -0.013 C
HETATM   24  C15 UNL     1      25.824  49.808  20.588  1.00  0.00     0.011 C
HETATM   25  C16 UNL     1      25.604  51.245  20.917  1.00  0.00     0.017 C
ENDBRANCH   1  16
TORSDOF 8
ENDMDL