MODEL 4
REMARK VINA RESULT: -7.586216544      2.115      3.169
REMARK  6 active torsions:
REMARK  status: ('A' for Active; 'I' for Inactive)
REMARK    1  A    between atoms: N1_1  and  C1_5
REMARK    2  A    between atoms: C1_5  and  C2_6
REMARK    3  A    between atoms: C2_6  and  N2_7
REMARK       I    between atoms: N2_7  and  C3_9
REMARK    4  A    between atoms: C3_9  and  C4_11
REMARK    5  A    between atoms: C6_13  and  N3_14
REMARK       I    between atoms: N3_14  and  C7_16
REMARK    6  A    between atoms: C7_16  and  C8_18
ROOT
HETATM    1  C4  UNL     1      23.272  52.643  17.304  1.00  0.00     0.074 A
HETATM    2  C5  UNL     1      23.722  53.363  16.245  1.00  0.00     0.054 A
HETATM    3  C6  UNL     1      22.844  54.161  15.598  1.00  0.00     0.042 A
HETATM    4  C14 UNL     1      21.565  54.173  16.071  1.00  0.00     0.080 A
HETATM    5  S1  UNL     1      21.625  53.077  17.400  1.00  0.00    -0.094 SA
ENDROOT
BRANCH   1   6
HETATM    6  C3  UNL     1      24.031  51.705  18.170  1.00  0.00     0.258 C
HETATM    7  N2  UNL     1      24.130  51.997  19.540  1.00  0.00    -0.355 N
ATOM      8  H2  UNL     1      23.685  52.837  19.909  1.00  0.00     0.162 HD
HETATM    9  O1  UNL     1      24.553  50.687  17.641  1.00  0.00    -0.267 OA
BRANCH   7  10
HETATM   10  C2  UNL     1      24.855  51.123  20.436  1.00  0.00     0.150 C
BRANCH  10  11
HETATM   11  C1  UNL     1      24.845  51.683  21.860  1.00  0.00     0.249 C
BRANCH  11  12
HETATM   12  N1  UNL     1      24.273  53.004  21.875  1.00  0.00    -0.078 N
ATOM     13  H13 UNL     1      24.916  53.701  21.498  1.00  0.00     0.274 HD
ATOM     14  H12 UNL     1      23.525  53.103  21.190  1.00  0.00     0.274 HD
ATOM     15  H11 UNL     1      23.961  53.245  22.815  1.00  0.00     0.274 HD
ENDBRANCH  11  12
ENDBRANCH  10  11
ENDBRANCH   7  10
ENDBRANCH   1   6
BRANCH   3  16
HETATM   16  N3  UNL     1      23.241  54.937  14.453  1.00  0.00    -0.326 N
HETATM   17  C7  UNL     1      23.422  56.321  14.528  1.00  0.00     0.226 C
HETATM   18  O2  UNL     1      23.276  57.029  15.552  1.00  0.00    -0.273 OA
ATOM     19  H3  UNL     1      23.394  54.464  13.563  1.00  0.00     0.169 HD
BRANCH  17  20
HETATM   20  C8  UNL     1      23.834  57.100  13.294  1.00  0.00     0.078 C
HETATM   21  C9  UNL     1      23.167  56.361  12.129  1.00  0.00     0.014 C
HETATM   22  C10 UNL     1      23.580  56.965  10.805  1.00  0.00     0.001 C
HETATM   23  C11 UNL     1      23.784  58.436  11.002  1.00  0.00     0.000 C
HETATM   24  C12 UNL     1      22.819  59.008  12.012  1.00  0.00     0.001 C
HETATM   25  C13 UNL     1      23.172  58.445  13.359  1.00  0.00     0.014 C
ENDBRANCH  17  20
ENDBRANCH   3  16
TORSDOF 6
ENDMDL