MODEL 1
REMARK VINA RESULT: -5.771803334      0.000      0.000
REMARK  1 active torsions:
REMARK  status: ('A' for Active; 'I' for Inactive)
REMARK       I    between atoms: C2_2  and  N1_4
REMARK    1  A    between atoms: C3_5  and  O2_6
ROOT
HETATM    1  C1  UNL     1      37.896  44.271   7.274  1.00  0.00     0.118 C
HETATM    2  C2  UNL     1      37.200  45.283   8.096  1.00  0.00     0.232 C
HETATM    3  O1  UNL     1      37.908  46.250   8.593  1.00  0.00    -0.273 OA
HETATM    4  N1  UNL     1      35.826  45.212   8.338  1.00  0.00    -0.203 N
HETATM    5  C3  UNL     1      35.412  46.339   9.213  1.00  0.00     0.315 C
HETATM    6  S1  UNL     1      35.232  47.859   8.252  1.00  0.00    -0.031 SA
HETATM    7  S2  UNL     1      33.136  48.130   7.855  1.00  0.00    -0.015 SA
HETATM    8  S3  UNL     1      32.494  46.513   6.658  1.00  0.00    -0.043 SA
HETATM    9  C4  UNL     1      32.346  44.991   7.658  1.00  0.00     0.060 A
HETATM   10  C5  UNL     1      33.249  44.040   8.004  1.00  0.00     0.106 A
HETATM   11  C6  UNL     1      32.803  43.013   8.777  1.00  0.00     0.077 A
HETATM   12  S4  UNL     1      31.158  43.376   9.011  1.00  0.00    -0.091 SA
HETATM   13  C7  UNL     1      31.075  44.825   8.120  1.00  0.00     0.070 A
HETATM   14 BR1  UNL     1      29.549  45.972   7.826  1.00  0.00    -0.042 Br
HETATM   15  S5  UNL     1      35.001  43.917   7.590  1.00  0.00     0.272 S
HETATM   16  O3  UNL     1      35.117  44.073   6.093  1.00  0.00    -0.200 OA
HETATM   17  O4  UNL     1      35.458  42.570   7.966  1.00  0.00    -0.200 OA
ENDROOT
BRANCH   5  18
HETATM   18  O2  UNL     1      36.304  46.452  10.248  1.00  0.00    -0.366 OA
ATOM     19  H2  UNL     1      36.108  47.240  10.741  1.00  0.00     0.213 HD
ENDBRANCH   5  18
TORSDOF 1
ENDMDL