MODEL 5
REMARK VINA RESULT: -7.410760601      2.061      7.604
REMARK  1 active torsions:
REMARK  status: ('A' for Active; 'I' for Inactive)
REMARK    1  A    between atoms: C5_5  and  O1_6
ROOT
HETATM    1  C1  UNL     1      37.888  44.060   5.403  1.00  0.00     0.045 C
HETATM    2  C2  UNL     1      38.001  45.384   6.174  1.00  0.00     0.060 C
HETATM    3  C3  UNL     1      39.483  45.763   6.091  1.00  0.00     0.045 C
HETATM    4  C4  UNL     1      37.231  46.402   5.429  1.00  0.00     0.075 C
HETATM    5  C5  UNL     1      35.824  46.594   5.832  1.00  0.00     0.065 C
HETATM    6  C6  UNL     1      34.857  45.617   5.208  1.00  0.00     0.043 C
HETATM    7  C7  UNL     1      33.447  45.959   5.519  1.00  0.00     0.071 C
HETATM    8  C8  UNL     1      33.188  46.327   6.947  1.00  0.00     0.164 C
HETATM    9  C9  UNL     1      34.234  47.198   7.559  1.00  0.00     0.076 C
HETATM   10  C10 UNL     1      35.580  46.579   7.312  1.00  0.00     0.030 C
HETATM   11  C11 UNL     1      36.705  47.259   8.011  1.00  0.00     0.073 C
HETATM   12  C12 UNL     1      37.739  46.173   8.337  1.00  0.00     0.308 C
HETATM   13  F1  UNL     1      37.361  45.691   9.598  1.00  0.00    -0.220 F
HETATM   14  O2  UNL     1      37.600  45.137   7.455  1.00  0.00    -0.346 OA
HETATM   15  O3  UNL     1      31.961  46.980   7.064  1.00  0.00    -0.353 OA
HETATM   16  C13 UNL     1      31.729  47.905   6.083  1.00  0.00     0.197 C
HETATM   17  C14 UNL     1      30.775  48.955   6.667  1.00  0.00     0.194 C
HETATM   18  O4  UNL     1      29.477  48.454   6.633  1.00  0.00    -0.387 OA
HETATM   19  C15 UNL     1      28.909  48.732   7.882  1.00  0.00     0.193 C
HETATM   20  C16 UNL     1      27.573  48.024   7.934  1.00  0.00     0.193 C
HETATM   21  O5  UNL     1      27.823  46.663   7.778  1.00  0.00    -0.387 OA
HETATM   22  C17 UNL     1      27.514  45.947   8.917  1.00  0.00     0.193 C
HETATM   23  C18 UNL     1      28.809  45.573   9.643  1.00  0.00     0.193 C
HETATM   24  O6  UNL     1      29.640  44.938   8.752  1.00  0.00    -0.387 OA
HETATM   25  C19 UNL     1      31.002  45.209   8.994  1.00  0.00     0.194 C
HETATM   26  C20 UNL     1      31.761  44.764   7.788  1.00  0.00     0.197 C
HETATM   27  O7  UNL     1      33.074  45.173   7.752  1.00  0.00    -0.353 OA
ENDROOT
BRANCH   5  28
HETATM   28  O1  UNL     1      35.429  47.875   5.375  1.00  0.00    -0.389 OA
ATOM     29  H1  UNL     1      35.994  48.099   4.645  1.00  0.00     0.210 HD
ENDBRANCH   5  28
TORSDOF 1
ENDMDL