MODEL 3
REMARK VINA RESULT: -7.384729178      2.999      6.122
REMARK  1 active torsions:
REMARK  status: ('A' for Active; 'I' for Inactive)
REMARK    1  A    between atoms: C3_3  and  O1_4
ROOT
HETATM    1  C1  UNL     1      38.839  45.201   6.662  1.00  0.00     0.018 C
HETATM    2  C2  UNL     1      37.886  45.468   7.543  1.00  0.00    -0.042 C
HETATM    3  C3  UNL     1      36.880  44.432   7.919  1.00  0.00     0.150 C
HETATM    4  C4  UNL     1      35.808  44.269   6.893  1.00  0.00     0.068 C
HETATM    5  C5  UNL     1      34.412  44.528   7.458  1.00  0.00     0.134 C
HETATM    6  C6  UNL     1      33.461  43.415   7.101  1.00  0.00     0.070 C
HETATM    7  C7  UNL     1      32.673  42.903   8.265  1.00  0.00     0.071 A
HETATM    8  C8  UNL     1      31.970  41.610   7.892  1.00  0.00     0.047 C
HETATM    9  O2  UNL     1      33.347  42.747   9.453  1.00  0.00    -0.379 OA
HETATM   10  C9  UNL     1      32.556  43.640  10.172  1.00  0.00     0.183 A
HETATM   11  C10 UNL     1      31.770  43.887   8.898  1.00  0.00     0.030 A
HETATM   12  C11 UNL     1      30.318  43.474   9.039  1.00  0.00     0.023 C
HETATM   13  C12 UNL     1      31.874  45.282   8.397  1.00  0.00     0.189 C
HETATM   14  O3  UNL     1      33.014  45.958   8.885  1.00  0.00    -0.323 OA
HETATM   15  C13 UNL     1      33.552  46.635   7.818  1.00  0.00     0.342 C
HETATM   16  O4  UNL     1      33.992  45.741   6.879  1.00  0.00    -0.318 OA
HETATM   17  O5  UNL     1      34.493  47.590   8.182  1.00  0.00    -0.292 OA
HETATM   18  C14 UNL     1      34.599  48.501   7.165  1.00  0.00     0.276 C
HETATM   19  C15 UNL     1      33.241  49.230   7.085  1.00  0.00     0.143 C
HETATM   20  S1  UNL     1      32.207  47.707   7.165  1.00  0.00    -0.065 SA
HETATM   21  O6  UNL     1      35.538  49.435   7.419  1.00  0.00    -0.360 OA
HETATM   22  C16 UNL     1      36.804  49.041   7.654  1.00  0.00     0.172 C
HETATM   23  C17 UNL     1      37.248  47.752   7.079  1.00  0.00     0.051 C
HETATM   24  C18 UNL     1      37.838  46.845   8.161  1.00  0.00     0.115 C
HETATM   25 CL1  UNL     1      39.494  47.438   8.468  1.00  0.00    -0.120 Cl
ENDROOT
BRANCH   3  26
HETATM   26  O1  UNL     1      36.392  44.789   9.176  1.00  0.00    -0.391 OA
ATOM     27  H1  UNL     1      36.479  44.021   9.729  1.00  0.00     0.210 HD
ENDBRANCH   3  26
TORSDOF 1
ENDMDL