MODEL 1
REMARK VINA RESULT: -8.452607584      0.000      0.000
REMARK  3 active torsions:
REMARK  status: ('A' for Active; 'I' for Inactive)
REMARK    1  A    between atoms: C4_8  and  C5_9
REMARK    2  A    between atoms: C6_10  and  C7_11
REMARK    3  A    between atoms: C7_11  and  O2_12
ROOT
HETATM    1  C7  UNL     1      30.937  48.237   6.336  1.00  0.00     0.126 C
HETATM    2  C8  UNL     1      31.878  48.938   7.288  1.00  0.00     0.057 C
HETATM    3  C9  UNL     1      32.247  47.900   8.349  1.00  0.00     0.075 C
HETATM    4  C10 UNL     1      32.006  46.617   7.601  1.00  0.00     0.204 C
HETATM    5  C11 UNL     1      30.651  46.887   6.977  1.00  0.00     0.122 C
HETATM    6  O3  UNL     1      32.928  46.480   6.573  1.00  0.00    -0.197 OA
HETATM    7  O4  UNL     1      33.822  45.653   7.006  1.00  0.00    -0.197 OA
HETATM    8  C12 UNL     1      33.283  44.944   8.071  1.00  0.00     0.208 C
HETATM    9  O5  UNL     1      32.053  45.492   8.365  1.00  0.00    -0.312 OA
HETATM   10  C13 UNL     1      34.260  44.992   9.203  1.00  0.00     0.052 C
HETATM   11  C14 UNL     1      35.612  44.545   8.685  1.00  0.00     0.014 C
HETATM   12  C15 UNL     1      35.519  43.113   8.254  1.00  0.00    -0.013 C
HETATM   13  C16 UNL     1      35.055  42.216   9.382  1.00  0.00     0.009 C
HETATM   14  C17 UNL     1      33.714  42.699   9.866  1.00  0.00    -0.013 C
HETATM   15  C18 UNL     1      33.869  44.113  10.370  1.00  0.00     0.014 C
HETATM   16  C19 UNL     1      32.667  42.697   8.795  1.00  0.00     0.014 C
HETATM   17  C20 UNL     1      33.164  43.496   7.617  1.00  0.00     0.052 C
HETATM   18  C21 UNL     1      34.513  43.018   7.138  1.00  0.00     0.014 C
ENDROOT
BRANCH   1  19
HETATM   19  C6  UNL     1      29.658  48.928   6.207  1.00  0.00    -0.060 C
HETATM   20  C5  UNL     1      28.589  49.482   6.103  1.00  0.00    -0.035 C
BRANCH  20  21
HETATM   21  C4  UNL     1      27.307  50.122   5.988  1.00  0.00     0.161 A
HETATM   22  C2  UNL     1      26.162  49.735   6.665  1.00  0.00     0.023 A
HETATM   23  C1  UNL     1      26.062  48.611   7.610  1.00  0.00     0.055 C
HETATM   24  C3  UNL     1      25.126  50.589   6.299  1.00  0.00     0.133 A
HETATM   25 CL1  UNL     1      23.464  50.567   6.843  1.00  0.00    -0.062 Cl
HETATM   26  N1  UNL     1      25.703  51.444   5.421  1.00  0.00    -0.248 N
HETATM   27  O1  UNL     1      26.952  51.155   5.261  1.00  0.00    -0.227 OA
ATOM     28  H1  UNL     1      25.219  52.209   4.952  1.00  0.00     0.196 HD
ENDBRANCH  20  21
ENDBRANCH   1  19
BRANCH   1  29
HETATM   29  O2  UNL     1      31.529  47.994   5.104  1.00  0.00    -0.377 OA
ATOM     30  H2  UNL     1      32.203  48.631   4.898  1.00  0.00     0.211 HD
ENDBRANCH   1  29
TORSDOF 3
ENDMDL