MODEL 5
REMARK VINA RESULT: -7.045139398      2.527      5.996
REMARK  2 active torsions:
REMARK  status: ('A' for Active; 'I' for Inactive)
REMARK    1  A    between atoms: O1_2  and  C2_3
REMARK    2  A    between atoms: C13_20  and  O6_21
ROOT
HETATM    1  C2  UNL     1      36.854  47.632   7.739  1.00  0.00     0.182 C
HETATM    2  C3  UNL     1      36.199  47.311   6.417  1.00  0.00     0.044 C
HETATM    3  C4  UNL     1      36.297  48.514   5.512  1.00  0.00     0.020 C
HETATM    4  C5  UNL     1      35.342  49.617   5.893  1.00  0.00     0.171 C
HETATM    5  S1  UNL     1      33.781  49.435   5.038  1.00  0.00     0.272 S
HETATM    6  O2  UNL     1      33.790  50.302   3.791  1.00  0.00    -0.198 OA
HETATM    7  O3  UNL     1      33.611  48.015   4.602  1.00  0.00    -0.198 OA
HETATM    8  O4  UNL     1      32.569  49.943   6.107  1.00  0.00    -0.196 OA
HETATM    9  C6  UNL     1      31.938  49.128   7.023  1.00  0.00     0.273 C
HETATM   10  O5  UNL     1      31.695  49.523   8.192  1.00  0.00    -0.264 OA
HETATM   11  C7  UNL     1      31.532  47.755   6.636  1.00  0.00     0.112 C
HETATM   12  C8  UNL     1      30.573  47.193   7.664  1.00  0.00     0.010 C
HETATM   13  C9  UNL     1      30.168  45.782   7.354  1.00  0.00     0.001 C
HETATM   14  C10 UNL     1      31.278  44.782   7.604  1.00  0.00     0.003 C
HETATM   15  C11 UNL     1      31.809  44.838   8.996  1.00  0.00     0.040 C
HETATM   16  C12 UNL     1      31.814  43.545   9.723  1.00  0.00     0.202 C
HETATM   17  F1  UNL     1      30.505  43.058   9.724  1.00  0.00    -0.246 F
HETATM   18  C13 UNL     1      32.793  42.533   9.280  1.00  0.00     0.174 C
HETATM   19  C14 UNL     1      33.358  42.703   7.947  1.00  0.00     0.003 C
HETATM   20  C15 UNL     1      34.533  43.245   7.657  1.00  0.00    -0.027 C
HETATM   21  C16 UNL     1      35.481  43.776   8.676  1.00  0.00     0.037 C
HETATM   22  C17 UNL     1      36.524  44.674   8.027  1.00  0.00     0.080 C
HETATM   23  S2  UNL     1      36.678  46.248   8.902  1.00  0.00    -0.137 SA
ENDROOT
BRANCH   1  24
HETATM   24  O1  UNL     1      38.178  47.939   7.524  1.00  0.00    -0.380 OA
HETATM   25  C1  UNL     1      39.056  47.435   8.455  1.00  0.00     0.203 C
ENDBRANCH   1  24
BRANCH  18  26
HETATM   26  O6  UNL     1      33.844  42.326  10.205  1.00  0.00    -0.389 OA
ATOM     27  H6  UNL     1      34.608  41.913   9.821  1.00  0.00     0.210 HD
ENDBRANCH  18  26
TORSDOF 2
ENDMDL