MODEL 4
REMARK VINA RESULT: -6.049661627      3.012      4.649
REMARK  1 active torsions:
REMARK  status: ('A' for Active; 'I' for Inactive)
REMARK    1  A    between atoms: C2_2  and  O1_3
ROOT
HETATM    1  C1  UNL     1      34.819  46.147   5.307  1.00  0.00     0.057 C
HETATM    2  C2  UNL     1      34.661  47.504   5.886  1.00  0.00     0.144 C
HETATM    3  C3  UNL     1      33.482  48.262   5.333  1.00  0.00     0.133 C
HETATM    4  S1  UNL     1      32.794  49.449   6.504  1.00  0.00    -0.094 SA
HETATM    5  S2  UNL     1      31.340  50.614   5.452  1.00  0.00    -0.097 SA
HETATM    6  C4  UNL     1      29.903  50.965   6.489  1.00  0.00     0.096 C
HETATM    7  C5  UNL     1      28.714  50.116   6.071  1.00  0.00     0.084 C
HETATM    8  S3  UNL     1      27.793  49.558   7.531  1.00  0.00    -0.168 SA
HETATM    9  C6  UNL     1      27.443  47.789   7.464  1.00  0.00     0.074 C
HETATM   10  C7  UNL     1      28.377  47.005   8.337  1.00  0.00     0.011 C
HETATM   11  C8  UNL     1      29.792  47.039   7.800  1.00  0.00     0.011 C
HETATM   12  C9  UNL     1      30.602  45.913   8.407  1.00  0.00     0.082 C
HETATM   13  S4  UNL     1      32.009  45.614   7.313  1.00  0.00    -0.094 SA
HETATM   14  C10 UNL     1      33.535  45.451   8.222  1.00  0.00     0.146 C
HETATM   15  N1  UNL     1      33.694  44.344   8.858  1.00  0.00    -0.370 N
ATOM     16  H1  UNL     1      32.944  43.656   8.791  1.00  0.00     0.161 HD
HETATM   17  C11 UNL     1      34.839  43.989   9.657  1.00  0.00     0.125 C
HETATM   18  C12 UNL     1      35.987  44.871   9.274  1.00  0.00     0.061 C
HETATM   19  C13 UNL     1      35.471  46.313   9.390  1.00  0.00     0.193 C
HETATM   20 CL1  UNL     1      34.645  46.528  10.937  1.00  0.00    -0.102 Cl
HETATM   21  N2  UNL     1      34.537  46.472   8.262  1.00  0.00    -0.277 N
HETATM   22  C14 UNL     1      34.694  47.532   7.386  1.00  0.00     0.262 C
HETATM   23  O2  UNL     1      34.895  48.688   7.902  1.00  0.00    -0.269 OA
ENDROOT
BRANCH   2  24
HETATM   24  O1  UNL     1      35.810  48.239   5.493  1.00  0.00    -0.380 OA
ATOM     25  H1  UNL     1      35.532  48.806   4.783  1.00  0.00     0.211 HD
ENDBRANCH   2  24
TORSDOF 1
ENDMDL