MODEL 1
REMARK VINA RESULT: -9.777436033      0.000      0.000
REMARK  1 active torsions:
REMARK  status: ('A' for Active; 'I' for Inactive)
REMARK    1  A    between atoms: C12_15  and  O4_16
ROOT
HETATM    1  C1  UNL     1      38.352  43.628   6.445  1.00  0.00     0.049 C
HETATM    2  C2  UNL     1      37.053  44.146   5.884  1.00  0.00     0.086 A
HETATM    3  C3  UNL     1      36.684  43.669   4.531  1.00  0.00     0.075 A
HETATM    4  C4  UNL     1      37.103  45.074   4.731  1.00  0.00     0.162 A
HETATM    5  O1  UNL     1      36.205  46.099   4.924  1.00  0.00    -0.350 OA
HETATM    6  C5  UNL     1      34.884  45.629   5.096  1.00  0.00     0.293 C
HETATM    7  O2  UNL     1      34.098  46.723   5.315  1.00  0.00    -0.328 OA
HETATM    8  C6  UNL     1      33.188  46.389   6.348  1.00  0.00     0.274 C
HETATM    9  O3  UNL     1      32.745  47.609   6.825  1.00  0.00    -0.352 OA
HETATM   10  C7  UNL     1      32.005  47.577   7.953  1.00  0.00     0.164 C
HETATM   11  C8  UNL     1      30.951  48.700   7.927  1.00  0.00     0.045 C
HETATM   12  C9  UNL     1      30.051  47.721   8.639  1.00  0.00     0.061 C
HETATM   13  C10 UNL     1      28.725  47.455   7.999  1.00  0.00     0.170 C
HETATM   14  C11 UNL     1      27.935  46.483   8.779  1.00  0.00     0.070 C
HETATM   15  C12 UNL     1      28.710  45.607   9.712  1.00  0.00     0.160 C
HETATM   16  C13 UNL     1      29.716  44.725   9.036  1.00  0.00     0.132 C
HETATM   17  C14 UNL     1      29.923  43.488   9.909  1.00  0.00     0.055 C
HETATM   18  F1  UNL     1      29.260  44.268   7.821  1.00  0.00    -0.240 F
HETATM   19  C15 UNL     1      31.060  45.443   8.886  1.00  0.00     0.068 C
HETATM   20  C16 UNL     1      31.992  44.482   8.134  1.00  0.00     0.012 C
HETATM   21  C17 UNL     1      33.398  44.878   8.353  1.00  0.00     0.017 C
HETATM   22  C18 UNL     1      34.064  45.637   7.286  1.00  0.00     0.037 C
HETATM   23  C19 UNL     1      35.058  46.602   7.888  1.00  0.00     0.023 C
HETATM   24  C20 UNL     1      34.864  44.756   6.315  1.00  0.00     0.190 C
HETATM   25  O5  UNL     1      36.097  44.458   6.828  1.00  0.00    -0.367 OA
HETATM   26  C21 UNL     1      30.873  46.626   7.994  1.00  0.00     0.135 C
HETATM   27  O6  UNL     1      30.202  46.327   6.857  1.00  0.00    -0.226 OA
HETATM   28  O7  UNL     1      29.106  46.975   6.752  1.00  0.00    -0.234 OA
ENDROOT
BRANCH  15  29
HETATM   29  O4  UNL     1      27.747  44.828  10.402  1.00  0.00    -0.392 OA
ATOM     30  H4  UNL     1      27.658  44.024   9.903  1.00  0.00     0.210 HD
ENDBRANCH  15  29
TORSDOF 1
ENDMDL