MODEL 4
REMARK VINA RESULT: -7.881006564      2.800      4.861
REMARK  0 active torsions:
REMARK  status: ('A' for Active; 'I' for Inactive)
ROOT
HETATM    1  O1  UNL     1      30.670  52.707   7.736  1.00  0.00    -0.273 OA
HETATM    2  C1  UNL     1      30.977  52.026   6.698  1.00  0.00     0.227 C
HETATM    3  C2  UNL     1      31.730  52.924   5.767  1.00  0.00     0.178 C
HETATM    4  S1  UNL     1      31.828  52.088   4.157  1.00  0.00    -0.134 SA
HETATM    5  C3  UNL     1      32.779  50.567   4.397  1.00  0.00     0.242 C
HETATM    6  O2  UNL     1      33.012  50.299   5.725  1.00  0.00    -0.374 OA
HETATM    7  C4  UNL     1      32.293  49.184   6.180  1.00  0.00     0.147 C
HETATM    8  C5  UNL     1      32.735  47.969   5.426  1.00  0.00     0.060 C
HETATM    9  C6  UNL     1      34.206  48.016   5.060  1.00  0.00     0.170 C
HETATM   10  O3  UNL     1      34.929  46.985   5.643  1.00  0.00    -0.389 OA
HETATM   11  C7  UNL     1      35.033  45.865   4.821  1.00  0.00     0.193 C
HETATM   12  C8  UNL     1      35.524  44.724   5.686  1.00  0.00     0.193 C
HETATM   13  O4  UNL     1      35.160  44.964   7.000  1.00  0.00    -0.389 OA
HETATM   14  C9  UNL     1      33.915  44.370   7.313  1.00  0.00     0.177 C
HETATM   15  C10 UNL     1      34.217  43.070   7.991  1.00  0.00     0.137 C
HETATM   16  C11 UNL     1      33.348  42.790   9.156  1.00  0.00     0.260 C
HETATM   17  O5  UNL     1      33.738  41.854   9.898  1.00  0.00    -0.265 OA
HETATM   18  O6  UNL     1      32.228  43.519   9.358  1.00  0.00    -0.321 OA
HETATM   19  C12 UNL     1      31.123  43.742   8.551  1.00  0.00     0.178 C
HETATM   20  C13 UNL     1      30.447  45.019   9.072  1.00  0.00     0.027 C
HETATM   21  C14 UNL     1      29.518  45.482   7.972  1.00  0.00     0.002 C
HETATM   22  C15 UNL     1      29.085  46.899   8.151  1.00  0.00     0.000 C
HETATM   23  C16 UNL     1      30.167  47.898   7.816  1.00  0.00     0.002 C
HETATM   24  C17 UNL     1      29.941  48.348   6.399  1.00  0.00     0.028 C
HETATM   25  C18 UNL     1      30.834  49.494   6.005  1.00  0.00     0.113 C
HETATM   26  N1  UNL     1      30.523  50.689   6.760  1.00  0.00    -0.353 N
ATOM     27  H1  UNL     1      29.830  50.533   7.492  1.00  0.00     0.163 HD
ENDROOT
TORSDOF 0
ENDMDL