MODEL 2
REMARK VINA RESULT: -7.900759055      2.964      6.762
REMARK  1 active torsions:
REMARK  status: ('A' for Active; 'I' for Inactive)
REMARK    1  A    between atoms: C19_26  and  O7_27
ROOT
HETATM    1  C1  UNL     1      39.465  45.328   6.588  1.00  0.00     0.046 C
HETATM    2  C2  UNL     1      38.273  45.726   5.792  1.00  0.00     0.060 C
HETATM    3  C3  UNL     1      38.684  46.166   4.399  1.00  0.00     0.046 C
HETATM    4  O1  UNL     1      37.420  46.658   6.339  1.00  0.00    -0.371 OA
HETATM    5  C4  UNL     1      36.257  45.908   6.034  1.00  0.00     0.169 C
HETATM    6  C5  UNL     1      37.147  44.724   5.831  1.00  0.00     0.052 C
HETATM    7  C6  UNL     1      37.093  43.983   7.134  1.00  0.00     0.013 C
HETATM    8  C7  UNL     1      36.434  44.896   8.145  1.00  0.00     0.047 C
HETATM    9  C8  UNL     1      35.494  45.693   7.316  1.00  0.00     0.140 C
HETATM   10  O2  UNL     1      34.294  45.046   7.147  1.00  0.00    -0.333 OA
HETATM   11  C9  UNL     1      33.278  45.933   7.408  1.00  0.00     0.200 C
HETATM   12  C10 UNL     1      32.609  46.267   6.102  1.00  0.00     0.072 C
HETATM   13  C11 UNL     1      31.343  47.054   6.266  1.00  0.00     0.006 C
HETATM   14  C12 UNL     1      30.969  47.335   7.670  1.00  0.00     0.012 C
HETATM   15  C13 UNL     1      31.087  46.171   8.609  1.00  0.00     0.076 C
HETATM   16  C14 UNL     1      29.791  45.417   8.774  1.00  0.00     0.151 C
HETATM   17  C15 UNL     1      28.996  45.332   7.496  1.00  0.00     0.065 C
HETATM   18 CL1  UNL     1      28.748  46.212   9.993  1.00  0.00    -0.087 Cl
HETATM   19  O3  UNL     1      30.010  44.085   9.214  1.00  0.00    -0.270 OA
HETATM   20  C16 UNL     1      30.861  43.315   8.400  1.00  0.00     0.409 C
HETATM   21  O4  UNL     1      30.745  42.061   8.315  1.00  0.00    -0.229 OA
HETATM   22  O5  UNL     1      31.828  44.036   7.705  1.00  0.00    -0.281 OA
HETATM   23  C17 UNL     1      32.240  45.269   8.315  1.00  0.00     0.133 C
HETATM   24  C18 UNL     1      32.946  44.878   9.598  1.00  0.00     0.053 C
HETATM   25  O6  UNL     1      33.794  47.013   8.069  1.00  0.00    -0.319 OA
HETATM   26  C19 UNL     1      35.157  47.042   7.882  1.00  0.00     0.297 C
ENDROOT
BRANCH  26  27
HETATM   27  O7  UNL     1      35.870  47.360   9.024  1.00  0.00    -0.368 OA
ATOM     28  H7  UNL     1      35.645  48.207   9.391  1.00  0.00     0.212 HD
ENDBRANCH  26  27
TORSDOF 1
ENDMDL