MODEL 2
REMARK VINA RESULT: -8.364134017      3.775      6.996
REMARK  0 active torsions:
REMARK  status: ('A' for Active; 'I' for Inactive)
ROOT
HETATM    1  N1  UNL     1      36.343  46.601   9.952  1.00  0.00    -0.397 N
ATOM      2  H11 UNL     1      36.954  46.963   9.220  1.00  0.00     0.156 HD
ATOM      3  H12 UNL     1      36.457  46.808  10.944  1.00  0.00     0.156 HD
HETATM    4  C1  UNL     1      35.375  45.839   9.596  1.00  0.00     0.093 C
HETATM    5  C2  UNL     1      34.506  45.323  10.639  1.00  0.00     0.306 C
HETATM    6  O1  UNL     1      34.845  45.283  11.860  1.00  0.00    -0.258 OA
HETATM    7  O2  UNL     1      33.241  44.860  10.223  1.00  0.00    -0.311 OA
HETATM    8  C3  UNL     1      32.913  45.218   8.875  1.00  0.00     0.137 C
HETATM    9  C4  UNL     1      31.501  44.924   8.521  1.00  0.00     0.033 C
HETATM   10  C5  UNL     1      30.897  43.773   9.290  1.00  0.00     0.002 C
HETATM   11  C6  UNL     1      30.813  42.511   8.484  1.00  0.00     0.000 C
HETATM   12  C7  UNL     1      32.020  42.284   7.605  1.00  0.00     0.000 C
HETATM   13  C8  UNL     1      33.241  42.356   8.470  1.00  0.00     0.001 C
HETATM   14  C9  UNL     1      34.280  43.297   7.980  1.00  0.00     0.008 C
HETATM   15  C10 UNL     1      33.934  44.716   7.910  1.00  0.00     0.035 C
HETATM   16  C11 UNL     1      35.210  45.536   8.150  1.00  0.00     0.077 C
HETATM   17  C12 UNL     1      36.441  44.795   7.704  1.00  0.00     0.024 C
HETATM   18  C13 UNL     1      37.368  45.867   7.114  1.00  0.00     0.024 C
HETATM   19  C14 UNL     1      36.357  46.703   6.352  1.00  0.00     0.086 C
HETATM   20  C15 UNL     1      36.052  45.944   5.082  1.00  0.00     0.030 C
HETATM   21  C16 UNL     1      35.464  46.847   4.017  1.00  0.00     0.081 C
HETATM   22  C17 UNL     1      36.489  47.843   3.638  1.00  0.00     0.152 C
HETATM   23  O3  UNL     1      36.520  48.236   2.495  1.00  0.00    -0.296 OA
HETATM   24  C18 UNL     1      37.446  48.324   4.673  1.00  0.00     0.222 C
HETATM   25 CL1  UNL     1      39.052  47.596   4.465  1.00  0.00    -0.109 Cl
HETATM   26  C19 UNL     1      36.874  48.035   6.007  1.00  0.00     0.166 C
HETATM   27  O4  UNL     1      36.841  48.936   6.817  1.00  0.00    -0.295 OA
HETATM   28  C20 UNL     1      35.195  46.757   7.297  1.00  0.00     0.258 A
HETATM   29  O5  UNL     1      35.012  47.944   8.044  1.00  0.00    -0.192 OA
HETATM   30  O6  UNL     1      34.166  47.522   7.031  1.00  0.00    -0.192 OA
ENDROOT
TORSDOF 0
ENDMDL