MODEL 1
REMARK VINA RESULT: -7.605941540      0.000      0.000
REMARK  4 active torsions:
REMARK  status: ('A' for Active; 'I' for Inactive)
REMARK    1  A    between atoms: O1_2  and  C2_3
REMARK    2  A    between atoms: C4_5  and  N1_6
REMARK       I    between atoms: N1_6  and  C5_8
REMARK    3  A    between atoms: C5_8  and  C6_10
REMARK       I    between atoms: N2_19  and  C15_20
REMARK       I    between atoms: C15_20  and  N3_22
REMARK    4  A    between atoms: N3_22  and  C16_24
ROOT
HETATM    1  C2  UNL     1      -7.677  -7.457  14.614  1.00  0.00     0.228 C
HETATM    2  C3  UNL     1      -7.869  -5.983  14.285  1.00  0.00     0.079 C
HETATM    3  C4  UNL     1      -8.976  -5.846  13.290  1.00  0.00     0.090 C
HETATM    4  C13 UNL     1      -9.264  -7.137  12.556  1.00  0.00     0.045 C
HETATM    5  C14 UNL     1      -7.955  -7.769  12.172  1.00  0.00     0.132 C
HETATM    6  N2  UNL     1      -7.236  -8.091  13.387  1.00  0.00    -0.307 N
HETATM    7  C15 UNL     1      -6.155  -8.991  13.332  1.00  0.00     0.320 C
HETATM    8  O3  UNL     1      -5.527  -9.291  14.369  1.00  0.00    -0.247 OA
HETATM    9  N3  UNL     1      -5.750  -9.578  12.117  1.00  0.00    -0.339 N
ATOM     10  H3  UNL     1      -6.263  -9.332  11.271  1.00  0.00     0.164 HD
ENDROOT
BRANCH   3  11
HETATM   11  N1  UNL     1      -8.662  -4.843  12.290  1.00  0.00    -0.356 N
HETATM   12  C5  UNL     1      -9.256  -3.552  12.299  1.00  0.00     0.222 C
HETATM   13  O2  UNL     1     -10.084  -3.318  13.237  1.00  0.00    -0.273 OA
ATOM     14  H1  UNL     1      -7.993  -5.072  11.555  1.00  0.00     0.162 HD
BRANCH  12  15
HETATM   15  C6  UNL     1      -8.929  -2.534  11.268  1.00  0.00     0.078 C
HETATM   16  C7  UNL     1      -7.690  -1.831  11.665  1.00  0.00     0.014 C
HETATM   17  C8  UNL     1      -6.891  -1.409  10.476  1.00  0.00     0.005 C
HETATM   18  C9  UNL     1      -7.858  -0.990   9.393  1.00  0.00    -0.019 C
HETATM   19  C10 UNL     1      -7.107  -0.193   8.367  1.00  0.00     0.010 C
HETATM   20  C11 UNL     1      -8.510  -2.229   8.821  1.00  0.00     0.005 C
HETATM   21  C12 UNL     1      -8.933  -3.178   9.913  1.00  0.00     0.014 C
ENDBRANCH  12  15
ENDBRANCH   3  11
BRANCH   1  22
HETATM   22  O1  UNL     1      -6.723  -7.647  15.582  1.00  0.00    -0.371 OA
HETATM   23  C1  UNL     1      -7.210  -7.463  16.874  1.00  0.00     0.204 C
ENDBRANCH   1  22
BRANCH   9  24
HETATM   24  C16 UNL     1      -4.653 -10.506  11.998  1.00  0.00     0.078 C
HETATM   25  C17 UNL     1      -3.916 -10.328  10.697  1.00  0.00     0.032 C
HETATM   26  C18 UNL     1      -5.088 -11.923  12.248  1.00  0.00     0.032 C
ENDBRANCH   9  24
TORSDOF 4
ENDMDL