MODEL 1
REMARK VINA RESULT: -7.531339079      0.000      0.000
REMARK  4 active torsions:
REMARK  status: ('A' for Active; 'I' for Inactive)
REMARK    1  A    between atoms: C2_2  and  C3_3
REMARK    2  A    between atoms: C3_3  and  N1_4
REMARK    3  A    between atoms: N1_4  and  C4_6
REMARK    4  A    between atoms: C11_17  and  N4_18
REMARK       I    between atoms: N4_18  and  C12_20
ROOT
HETATM    1  C4  UNL     1      -7.032  -8.954  13.572  1.00  0.00     0.146 A
HETATM    2  N2  UNL     1      -7.587  -7.833  13.074  1.00  0.00    -0.338 N
ATOM      3  H2  UNL     1      -8.557  -7.622  13.312  1.00  0.00     0.167 HD
HETATM    4  C5  UNL     1      -6.918  -6.976  12.274  1.00  0.00     0.061 A
HETATM    5  C6  UNL     1      -7.496  -5.828  11.768  1.00  0.00     0.042 A
HETATM    6  C7  UNL     1      -6.835  -4.941  10.952  1.00  0.00    -0.013 A
HETATM    7  C8  UNL     1      -5.525  -5.214  10.623  1.00  0.00    -0.013 A
HETATM    8  C9  UNL     1      -4.932  -6.354  11.120  1.00  0.00     0.042 A
HETATM    9  C10 UNL     1      -5.605  -7.245  11.943  1.00  0.00     0.061 A
HETATM   10  N3  UNL     1      -5.016  -8.358  12.422  1.00  0.00    -0.337 N
ATOM     11  H3  UNL     1      -4.046  -8.567  12.182  1.00  0.00     0.167 HD
HETATM   12  C11 UNL     1      -5.711  -9.194  13.219  1.00  0.00     0.153 A
HETATM   13  C14 UNL     1      -5.096  -4.099   9.752  1.00  0.00     0.083 C
HETATM   14  C15 UNL     1      -4.147  -3.150  10.409  1.00  0.00     0.051 C
HETATM   15  C16 UNL     1      -4.422  -4.705   8.538  1.00  0.00     0.051 C
HETATM   16  O2  UNL     1      -6.226  -3.422   9.363  1.00  0.00    -0.361 OA
HETATM   17  C17 UNL     1      -7.221  -3.655  10.284  1.00  0.00     0.083 C
HETATM   18  C18 UNL     1      -7.304  -2.619  11.372  1.00  0.00     0.051 C
HETATM   19  C19 UNL     1      -8.550  -3.767   9.581  1.00  0.00     0.051 C
ENDROOT
BRANCH   1  20
HETATM   20  N1  UNL     1      -7.674  -9.773  14.338  1.00  0.00    -0.373 N
ATOM     21  H1  UNL     1      -7.261 -10.110  15.208  1.00  0.00     0.161 HD
BRANCH  20  22
HETATM   22  C3  UNL     1      -8.991 -10.198  13.929  1.00  0.00     0.121 C
BRANCH  22  23
HETATM   23  C2  UNL     1      -8.922 -11.562  13.263  1.00  0.00     0.015 C
HETATM   24  C1  UNL     1      -9.254 -11.511  11.803  1.00  0.00     0.006 C
ENDBRANCH  22  23
ENDBRANCH  20  22
ENDBRANCH   1  20
BRANCH  12  25
HETATM   25  N4  UNL     1      -5.170 -10.260  13.688  1.00  0.00    -0.310 N
HETATM   26  C12 UNL     1      -4.137 -10.973  13.044  1.00  0.00     0.219 C
HETATM   27  C13 UNL     1      -4.495 -12.268  12.398  1.00  0.00     0.117 C
HETATM   28  O1  UNL     1      -2.982 -10.507  13.036  1.00  0.00    -0.274 OA
ATOM     29  H4  UNL     1      -5.510 -10.613  14.582  1.00  0.00     0.170 HD
ENDBRANCH  12  25
TORSDOF 4
ENDMDL