MODEL 3
REMARK VINA RESULT: -7.358194805      0.701      1.578
REMARK  3 active torsions:
REMARK  status: ('A' for Active; 'I' for Inactive)
REMARK    1  A    between atoms: C2_2  and  N1_4
REMARK       I    between atoms: N1_4  and  C4_6
REMARK    2  A    between atoms: C4_6  and  C5_8
REMARK       I    between atoms: N2_11  and  C8_12
REMARK       I    between atoms: C8_12  and  N3_14
REMARK    3  A    between atoms: N3_14  and  C9_16
ROOT
HETATM    1  C5  UNL     1      -7.810  -2.213  10.770  1.00  0.00     0.081 C
HETATM    2  C6  UNL     1      -9.213  -2.771  10.870  1.00  0.00     0.034 C
HETATM    3  C7  UNL     1      -9.449  -3.017  12.370  1.00  0.00     0.128 C
HETATM    4  N2  UNL     1      -8.180  -3.454  12.883  1.00  0.00    -0.334 N
HETATM    5  C8  UNL     1      -7.900  -4.810  13.094  1.00  0.00     0.320 C
HETATM    6  O2  UNL     1      -6.785  -5.200  13.563  1.00  0.00    -0.247 OA
HETATM    7  N3  UNL     1      -8.881  -5.784  12.780  1.00  0.00    -0.311 N
ATOM      8  H3  UNL     1      -9.784  -5.504  12.397  1.00  0.00     0.167 HD
HETATM    9  C18 UNL     1      -7.214  -2.390  13.148  1.00  0.00     0.128 C
HETATM   10  C19 UNL     1      -7.426  -1.395  11.997  1.00  0.00     0.034 C
ENDROOT
BRANCH   7  11
HETATM   11  C9  UNL     1      -8.582  -7.181  13.011  1.00  0.00     0.139 C
HETATM   12  C10 UNL     1      -9.543  -8.135  12.378  1.00  0.00     0.066 C
HETATM   13  C11 UNL     1      -9.206  -9.536  12.859  1.00  0.00    -0.007 C
HETATM   14  C12 UNL     1      -7.865  -9.895  12.281  1.00  0.00     0.009 C
HETATM   15  C16 UNL     1      -9.230  -9.571  14.354  1.00  0.00     0.037 C
HETATM   16  C13 UNL     1      -6.860  -8.906  12.817  1.00  0.00    -0.007 C
HETATM   17  C14 UNL     1      -6.859  -9.021  14.327  1.00  0.00     0.037 C
HETATM   18  C17 UNL     1      -7.207  -7.486  12.475  1.00  0.00     0.066 C
HETATM   19  C15 UNL     1      -8.195  -8.571  14.837  1.00  0.00     0.125 C
HETATM   20  O3  UNL     1      -8.579  -7.331  14.401  1.00  0.00    -0.355 OA
ENDBRANCH   7  11
BRANCH   1  21
HETATM   21  C4  UNL     1      -7.658  -1.359   9.567  1.00  0.00     0.222 C
HETATM   22  N1  UNL     1      -7.344   0.007   9.756  1.00  0.00    -0.357 N
ATOM     23  H1  UNL     1      -7.227   0.385  10.696  1.00  0.00     0.162 HD
HETATM   24  O1  UNL     1      -7.805  -1.837   8.399  1.00  0.00    -0.273 OA
BRANCH  22  25
HETATM   25  C2  UNL     1      -7.191   0.862   8.595  1.00  0.00     0.076 C
HETATM   26  C1  UNL     1      -7.797   2.214   8.993  1.00  0.00     0.032 C
HETATM   27  C3  UNL     1      -5.701   1.008   8.349  1.00  0.00     0.032 C
ENDBRANCH  22  25
ENDBRANCH   1  21
TORSDOF 3
ENDMDL