MODEL 5
REMARK VINA RESULT: -7.445641801      6.212      8.408
REMARK  4 active torsions:
REMARK  status: ('A' for Active; 'I' for Inactive)
REMARK    1  A    between atoms: C7_7  and  N1_8
REMARK    2  A    between atoms: N1_8  and  C8_10
REMARK    3  A    between atoms: C8_10  and  C9_11
REMARK    4  A    between atoms: C9_11  and  N2_12
ROOT
HETATM    1  C1  UNL     1      -3.328  -5.499   8.364  1.00  0.00     0.048 C
HETATM    2  C2  UNL     1      -4.164  -4.476   9.085  1.00  0.00    -0.059 A
HETATM    3  C3  UNL     1      -3.903  -3.151   8.952  1.00  0.00     0.014 A
HETATM    4  C4  UNL     1      -4.610  -2.123   9.571  1.00  0.00    -0.045 A
HETATM    5  C5  UNL     1      -4.250  -0.718   9.368  1.00  0.00     0.049 C
HETATM    6  C6  UNL     1      -5.656  -2.542  10.379  1.00  0.00     0.040 A
HETATM    7  C7  UNL     1      -6.431  -1.620  11.046  1.00  0.00     0.116 A
HETATM    8  N3  UNL     1      -7.441  -2.092  11.823  1.00  0.00    -0.319 N
ATOM      9  H3  UNL     1      -8.025  -1.423  12.324  1.00  0.00     0.170 HD
HETATM   10  C15 UNL     1      -7.706  -3.403  11.960  1.00  0.00     0.177 A
HETATM   11  S1  UNL     1      -8.931  -3.935  12.907  1.00  0.00    -0.040 SA
HETATM   12  N4  UNL     1      -6.970  -4.329  11.323  1.00  0.00    -0.332 N
ATOM     13  H4  UNL     1      -7.172  -5.323  11.428  1.00  0.00     0.168 HD
HETATM   14  C16 UNL     1      -5.954  -3.906  10.538  1.00  0.00     0.049 A
HETATM   15  C17 UNL     1      -5.204  -4.869   9.889  1.00  0.00     0.037 A
ENDROOT
BRANCH   7  16
HETATM   16  N1  UNL     1      -6.189  -0.389  10.918  1.00  0.00    -0.374 N
ATOM     17  H1  UNL     1      -5.377  -0.157  10.346  1.00  0.00     0.161 HD
BRANCH  16  18
HETATM   18  C8  UNL     1      -6.894   0.716  11.460  1.00  0.00     0.141 C
BRANCH  18  19
HETATM   19  C9  UNL     1      -6.604   2.051  10.869  1.00  0.00     0.154 C
BRANCH  19  20
HETATM   20  N2  UNL     1      -7.464   2.474   9.811  1.00  0.00    -0.286 N
HETATM   21  C10 UNL     1      -8.143   3.732   9.749  1.00  0.00     0.227 C
HETATM   22  O1  UNL     1      -8.179   4.655  10.623  1.00  0.00    -0.273 OA
HETATM   23  C11 UNL     1      -8.827   3.773   8.426  1.00  0.00     0.117 C
HETATM   24  C12 UNL     1      -9.035   2.319   8.111  1.00  0.00     0.083 C
HETATM   25  C13 UNL     1      -9.152   2.136   6.604  1.00  0.00     0.020 C
HETATM   26  C14 UNL     1      -7.791   1.712   8.643  1.00  0.00     0.230 C
HETATM   27  O2  UNL     1      -7.157   0.740   8.173  1.00  0.00    -0.273 OA
ENDBRANCH  19  20
ENDBRANCH  18  19
ENDBRANCH  16  18
ENDBRANCH   7  16
TORSDOF 4
ENDMDL