MODEL 2
REMARK VINA RESULT: -7.089029572      1.222      2.016
REMARK  4 active torsions:
REMARK  status: ('A' for Active; 'I' for Inactive)
REMARK    1  A    between atoms: C12_12  and  N1_13
REMARK    2  A    between atoms: N1_13  and  S1_15
REMARK    3  A    between atoms: S1_15  and  N2_18
REMARK    4  A    between atoms: N2_18  and  C13_20
ROOT
HETATM    1  N1  UNL     1      -7.862  -5.321  10.827  1.00  0.00    -0.297 N
ATOM      2  H1  UNL     1      -7.983  -5.613   9.858  1.00  0.00     0.174 HD
ENDROOT
BRANCH   1   3
HETATM    3  C12 UNL     1      -7.292  -4.069  11.174  1.00  0.00     0.102 C
HETATM    4  C2  UNL     1      -5.998  -3.854  10.440  1.00  0.00     0.009 C
HETATM    5  C1  UNL     1      -5.236  -5.159  10.376  1.00  0.00     0.012 C
HETATM    6  C3  UNL     1      -6.119  -3.189   9.110  1.00  0.00    -0.008 C
HETATM    7  C4  UNL     1      -7.357  -3.445   8.347  1.00  0.00     0.010 C
HETATM    8  C8  UNL     1      -5.814  -1.699   9.234  1.00  0.00     0.010 C
HETATM    9  C5  UNL     1      -8.532  -2.608   8.665  1.00  0.00    -0.013 C
HETATM   10  C6  UNL     1      -8.106  -1.143   8.724  1.00  0.00     0.009 C
HETATM   11  C11 UNL     1      -9.191  -2.887   9.980  1.00  0.00     0.011 C
HETATM   12  C7  UNL     1      -7.060  -1.060   9.799  1.00  0.00    -0.013 C
HETATM   13  C9  UNL     1      -7.471  -1.595  11.114  1.00  0.00     0.011 C
HETATM   14  C10 UNL     1      -8.201  -2.894  11.107  1.00  0.00     0.010 C
ENDBRANCH   1   3
BRANCH   1  15
HETATM   15  S1  UNL     1      -8.330  -6.306  12.137  1.00  0.00     0.321 S
HETATM   16  O1  UNL     1      -7.079  -6.584  12.961  1.00  0.00    -0.182 OA
HETATM   17  O2  UNL     1      -9.382  -5.692  13.005  1.00  0.00    -0.182 OA
BRANCH  15  18
HETATM   18  N2  UNL     1      -8.892  -7.802  11.550  1.00  0.00    -0.247 N
ATOM     19  H2  UNL     1      -9.180  -7.869  10.574  1.00  0.00     0.182 HD
BRANCH  18  20
HETATM   20  C13 UNL     1      -8.968  -8.874  12.309  1.00  0.00     0.159 A
HETATM   21  N3  UNL     1      -9.172  -8.915  13.631  1.00  0.00    -0.345 N
HETATM   22  C14 UNL     1      -9.219 -10.077  14.217  1.00  0.00     0.097 A
ATOM     23  H3  UNL     1      -9.288  -8.056  14.167  1.00  0.00     0.167 HD
HETATM   24  C15 UNL     1      -9.057 -11.194  13.440  1.00  0.00     0.070 A
HETATM   25  S2  UNL     1      -8.842 -10.518  11.887  1.00  0.00    -0.064 SA
ENDBRANCH  18  20
ENDBRANCH  15  18
ENDBRANCH   1  15
TORSDOF 4
ENDMDL