MODEL 4
REMARK VINA RESULT: -7.252388708      1.687      2.098
REMARK  4 active torsions:
REMARK  status: ('A' for Active; 'I' for Inactive)
REMARK    1  A    between atoms: C2_2  and  O1_3
REMARK    2  A    between atoms: O1_3  and  C3_4
REMARK       I    between atoms: C3_4  and  N1_6
REMARK    3  A    between atoms: C6_9  and  N2_10
REMARK       I    between atoms: N2_10  and  C7_12
REMARK       I    between atoms: C7_12  and  N3_14
REMARK    4  A    between atoms: N3_14  and  C8_16
ROOT
HETATM    1  N2  UNL     1      -6.804  -4.299  10.396  1.00  0.00    -0.338 N
ATOM      2  H2  UNL     1      -5.986  -4.676   9.916  1.00  0.00     0.164 HD
HETATM    3  C7  UNL     1      -7.518  -5.176  11.259  1.00  0.00     0.317 C
HETATM    4  O3  UNL     1      -8.542  -4.773  11.866  1.00  0.00    -0.247 OA
HETATM    5  N3  UNL     1      -7.129  -6.516  11.477  1.00  0.00    -0.334 N
ATOM      6  H3  UNL     1      -6.297  -6.844  10.988  1.00  0.00     0.165 HD
ENDROOT
BRANCH   1   7
HETATM    7  C6  UNL     1      -7.138  -2.932  10.145  1.00  0.00     0.089 C
HETATM    8  C5  UNL     1      -8.148  -2.868   9.016  1.00  0.00     0.045 C
HETATM    9  C4  UNL     1      -7.773  -1.890   7.931  1.00  0.00     0.130 C
HETATM   10  N1  UNL     1      -7.361  -0.665   8.575  1.00  0.00    -0.328 N
HETATM   11  C3  UNL     1      -8.097   0.518   8.338  1.00  0.00     0.362 C
HETATM   12  C18 UNL     1      -6.221  -0.709   9.434  1.00  0.00     0.130 C
HETATM   13  O2  UNL     1      -9.114   0.491   7.565  1.00  0.00    -0.238 OA
HETATM   14  C17 UNL     1      -5.912  -2.109   9.920  1.00  0.00     0.045 C
BRANCH  11  15
HETATM   15  O1  UNL     1      -7.782   1.738   8.902  1.00  0.00    -0.304 OA
BRANCH  15  16
HETATM   16  C2  UNL     1      -8.529   2.878   8.528  1.00  0.00     0.176 C
HETATM   17  C1  UNL     1      -8.511   3.854   9.663  1.00  0.00     0.034 C
ENDBRANCH  15  16
ENDBRANCH  11  15
ENDBRANCH   1   7
BRANCH   5  18
HETATM   18  C8  UNL     1      -7.794  -7.450  12.316  1.00  0.00     0.039 C
HETATM   19  C9  UNL     1      -8.018  -6.966  13.739  1.00  0.00     0.036 C
HETATM   20  C10 UNL     1      -8.240  -8.314  14.444  1.00  0.00    -0.011 C
HETATM   21  C11 UNL     1      -9.417  -9.040  13.885  1.00  0.00     0.009 C
HETATM   22  C15 UNL     1      -6.968  -9.034  13.971  1.00  0.00     0.012 C
HETATM   23  C12 UNL     1      -9.362  -9.183  12.386  1.00  0.00    -0.011 C
HETATM   24  C13 UNL     1      -8.041  -9.821  11.945  1.00  0.00     0.012 C
HETATM   25  C16 UNL     1      -9.192  -7.799  11.787  1.00  0.00     0.036 C
HETATM   26  C14 UNL     1      -7.064  -8.761  12.477  1.00  0.00     0.014 C
ENDBRANCH   5  18
TORSDOF 4
ENDMDL