MODEL 5
REMARK VINA RESULT: -6.628372981      1.335      1.670
REMARK  5 active torsions:
REMARK  status: ('A' for Active; 'I' for Inactive)
REMARK    1  A    between atoms: N1_2  and  C2_4
REMARK    2  A    between atoms: C3_7  and  N3_8
REMARK    3  A    between atoms: N3_8  and  C4_10
REMARK    4  A    between atoms: C7_13  and  N4_14
REMARK    5  A    between atoms: C16_25  and  C17_26
ROOT
HETATM    1  C2  UNL     1      -8.119  -7.288  14.474  1.00  0.00     0.124 A
HETATM    2  N2  UNL     1      -8.376  -5.970  14.235  1.00  0.00    -0.176 N
ATOM      3  H2  UNL     1      -8.276  -5.281  14.979  1.00  0.00     0.186 HD
HETATM    4  C3  UNL     1      -8.762  -5.592  13.006  1.00  0.00     0.679 A
HETATM    5  N5  UNL     1      -8.893  -6.501  12.028  1.00  0.00    -0.201 N
ATOM      6  H5  UNL     1      -9.188  -6.193  11.102  1.00  0.00     0.183 HD
HETATM    7  C15 UNL     1      -8.644  -7.822  12.238  1.00  0.00     0.117 A
HETATM    8  C16 UNL     1      -8.246  -8.233  13.491  1.00  0.00     0.005 A
ENDROOT
BRANCH   4   9
HETATM    9  N3  UNL     1      -9.007  -4.378  12.772  1.00  0.00    -0.221 N
ATOM     10  H3  UNL     1      -9.845  -4.022  13.232  1.00  0.00     0.178 HD
BRANCH   9  11
HETATM   11  C4  UNL     1      -8.323  -3.425  11.986  1.00  0.00     0.099 C
HETATM   12  C5  UNL     1      -8.384  -2.017  12.474  1.00  0.00     0.027 C
HETATM   13  C6  UNL     1      -7.347  -1.277  11.621  1.00  0.00     0.038 C
HETATM   14  C7  UNL     1      -7.852  -1.175  10.202  1.00  0.00     0.223 C
HETATM   15  C13 UNL     1      -8.480  -2.394   9.669  1.00  0.00     0.038 C
HETATM   16  C14 UNL     1      -8.911  -3.447  10.597  1.00  0.00     0.027 C
BRANCH  14  17
HETATM   17  N4  UNL     1      -6.819  -0.638   9.338  1.00  0.00     0.093 N
HETATM   18  C8  UNL     1      -6.267   0.612   9.794  1.00  0.00     0.273 C
HETATM   19  C9  UNL     1      -7.272   1.688   9.456  1.00  0.00     0.036 C
HETATM   20  C10 UNL     1      -8.206   1.056   8.449  1.00  0.00     0.011 C
HETATM   21  C11 UNL     1      -8.287   1.956   7.235  1.00  0.00     0.011 C
HETATM   22  C12 UNL     1      -7.477  -0.211   8.092  1.00  0.00     0.277 C
ENDBRANCH  14  17
ENDBRANCH   9  11
ENDBRANCH   4   9
BRANCH   1  23
HETATM   23  N1  UNL     1      -7.755  -7.628  15.639  1.00  0.00    -0.380 N
HETATM   24  C1  UNL     1      -7.334  -6.640  16.598  1.00  0.00     0.147 C
ATOM     25  H1  UNL     1      -7.760  -8.614  15.900  1.00  0.00     0.160 HD
ENDBRANCH   1  23
BRANCH   8  26
HETATM   26  C17 UNL     1      -7.954  -9.654  13.812  1.00  0.00     0.016 C
HETATM   27  C18 UNL     1      -7.349 -10.307  12.564  1.00  0.00     0.015 C
HETATM   28  C19 UNL     1      -9.198 -10.455  14.123  1.00  0.00     0.015 C
ENDBRANCH   8  26
TORSDOF 5
ENDMDL