MODEL 5
REMARK VINA RESULT: -7.936125903      2.474      7.399
REMARK  2 active torsions:
REMARK  status: ('A' for Active; 'I' for Inactive)
REMARK       I    between atoms: C1_2  and  N1_4
REMARK    1  A    between atoms: C7_10  and  N2_11
REMARK       I    between atoms: N2_11  and  C8_13
REMARK    2  A    between atoms: C8_13  and  C9_15
ROOT
HETATM    1  N2  UNL     1      -7.372  -6.033  12.602  1.00  0.00    -0.356 N
ATOM      2  H2  UNL     1      -6.989  -6.479  11.768  1.00  0.00     0.162 HD
HETATM    3  C8  UNL     1      -7.719  -6.845  13.727  1.00  0.00     0.227 C
HETATM    4  O3  UNL     1      -8.182  -6.261  14.722  1.00  0.00    -0.273 OA
ENDROOT
BRANCH   1   5
HETATM    5  C7  UNL     1      -7.550  -4.580  12.612  1.00  0.00     0.088 C
HETATM    6  C6  UNL     1      -6.188  -3.970  12.325  1.00  0.00     0.050 C
HETATM    7  C5  UNL     1      -6.364  -2.494  12.032  1.00  0.00     0.092 C
HETATM    8  N1  UNL     1      -7.094  -2.397  10.783  1.00  0.00    -0.317 N
HETATM    9  C4  UNL     1      -7.338  -1.873  13.011  1.00  0.00     0.028 C
HETATM   10  C1  UNL     1      -6.595  -2.017   9.509  1.00  0.00     0.286 C
HETATM   11  C2  UNL     1      -8.458  -2.779  11.125  1.00  0.00     0.092 C
HETATM   12  O1  UNL     1      -7.323  -1.970   8.499  1.00  0.00    -0.630 OA
HETATM   13  O2  UNL     1      -5.250  -1.691   9.411  1.00  0.00    -0.630 OA
HETATM   14  C3  UNL     1      -8.702  -1.932  12.355  1.00  0.00     0.028 C
HETATM   15  C19 UNL     1      -8.534  -4.216  11.523  1.00  0.00     0.050 C
ENDBRANCH   1   5
BRANCH   3  16
HETATM   16  C9  UNL     1      -7.491  -8.293  13.588  1.00  0.00     0.045 C
HETATM   17  C10 UNL     1      -6.090  -8.581  13.085  1.00  0.00     0.020 C
HETATM   18  C11 UNL     1      -6.259  -9.643  11.937  1.00  0.00     0.006 C
HETATM   19  C12 UNL     1      -7.444 -10.242  12.496  1.00  0.00    -0.009 C
HETATM   20  C13 UNL     1      -8.360 -11.271  12.307  1.00  0.00     0.005 C
HETATM   21  C17 UNL     1      -8.249  -8.934  12.453  1.00  0.00     0.008 C
HETATM   22  C14 UNL     1      -9.148 -11.254  13.664  1.00  0.00     0.005 C
HETATM   23  C15 UNL     1      -9.258  -9.875  14.219  1.00  0.00    -0.013 C
HETATM   24  C16 UNL     1      -9.623  -9.047  12.967  1.00  0.00     0.011 C
HETATM   25  C18 UNL     1      -8.059  -9.129  14.696  1.00  0.00     0.024 C
ENDBRANCH   3  16
TORSDOF 2
ENDMDL