MODEL 3
REMARK VINA RESULT: -7.347269423      3.970      7.471
REMARK  4 active torsions:
REMARK  status: ('A' for Active; 'I' for Inactive)
REMARK    1  A    between atoms: C2_2  and  C3_3
REMARK       I    between atoms: C3_3  and  N1_5
REMARK    2  A    between atoms: C4_7  and  C5_9
REMARK    3  A    between atoms: C6_10  and  C7_11
REMARK    4  A    between atoms: C17_22  and  O3_23
ROOT
HETATM    1  C7  UNL     1      -6.798  -4.230  11.084  1.00  0.00    -0.012 C
HETATM    2  C8  UNL     1      -7.316  -4.738   9.722  1.00  0.00     0.021 C
HETATM    3  C9  UNL     1      -7.339  -2.897  11.389  1.00  0.00     0.014 C
HETATM    4  C10 UNL     1      -8.828  -2.793  11.124  1.00  0.00     0.014 C
HETATM    5  C11 UNL     1      -8.963  -2.180   9.725  1.00  0.00     0.079 C
HETATM    6  C12 UNL     1      -7.681  -1.500   9.467  1.00  0.00     0.135 C
HETATM    7  O2  UNL     1      -7.383  -0.918   8.470  1.00  0.00    -0.297 OA
HETATM    8  C13 UNL     1      -6.875  -1.694  10.687  1.00  0.00     0.021 C
HETATM    9  C14 UNL     1      -7.321  -0.509  11.596  1.00  0.00     0.024 C
HETATM   10  C15 UNL     1      -5.455  -1.454  10.434  1.00  0.00     0.020 C
HETATM   11  C16 UNL     1      -4.856  -2.429   9.507  1.00  0.00     0.034 C
HETATM   12  C17 UNL     1      -4.604  -3.795   9.913  1.00  0.00     0.127 C
HETATM   13  C18 UNL     1      -5.336  -4.395  11.067  1.00  0.00    -0.011 C
HETATM   14  C19 UNL     1      -4.992  -5.874  11.007  1.00  0.00     0.018 C
HETATM   15  C20 UNL     1      -4.745  -3.920  12.405  1.00  0.00     0.018 C
ENDROOT
BRANCH   1  16
HETATM   16  C6  UNL     1      -7.320  -5.195  12.084  1.00  0.00    -0.013 C
HETATM   17  C5  UNL     1      -8.261  -6.084  11.932  1.00  0.00     0.042 C
BRANCH  17  18
HETATM   18  C4  UNL     1      -8.705  -6.991  12.980  1.00  0.00     0.118 C
HETATM   19  N1  UNL     1      -7.922  -7.864  13.512  1.00  0.00    -0.312 N
HETATM   20  C3  UNL     1      -8.387  -8.720  14.518  1.00  0.00     0.245 C
ATOM     21  H1  UNL     1      -6.955  -7.933  13.197  1.00  0.00     0.170 HD
HETATM   22  O1  UNL     1      -8.000  -8.542  15.698  1.00  0.00    -0.268 OA
HETATM   23  N2  UNL     1     -10.078  -6.862  13.394  1.00  0.00    -0.083 NA
BRANCH  20  24
HETATM   24  C2  UNL     1      -9.305  -9.797  14.177  1.00  0.00     0.064 C
HETATM   25  C1  UNL     1      -8.902 -10.807  13.456  1.00  0.00     0.017 C
ENDBRANCH  20  24
ENDBRANCH  17  18
ENDBRANCH   1  16
BRANCH  12  26
HETATM   26  O3  UNL     1      -4.750  -4.647   8.803  1.00  0.00    -0.395 OA
ATOM     27  H3  UNL     1      -3.995  -5.222   8.745  1.00  0.00     0.210 HD
ENDBRANCH  12  26
TORSDOF 4
ENDMDL