MODEL 2
REMARK VINA RESULT: -7.627513785      2.617      3.885
REMARK  4 active torsions:
REMARK  status: ('A' for Active; 'I' for Inactive)
REMARK    1  A    between atoms: C4_4  and  N1_5
REMARK       I    between atoms: N1_5  and  C5_7
REMARK    2  A    between atoms: C5_7  and  C6_9
REMARK    3  A    between atoms: C6_9  and  C7_10
REMARK    4  A    between atoms: C12_15  and  C14_17
ROOT
HETATM    1  N1  UNL     1      -8.775  -5.191  14.090  1.00  0.00    -0.312 N
ATOM      2  H1  UNL     1      -8.185  -4.984  14.897  1.00  0.00     0.170 HD
HETATM    3  C5  UNL     1      -9.644  -4.198  13.569  1.00  0.00     0.223 C
HETATM    4  O1  UNL     1     -10.870  -4.191  13.943  1.00  0.00    -0.273 OA
ENDROOT
BRANCH   3   5
HETATM    5  C6  UNL     1      -9.100  -3.205  12.613  1.00  0.00     0.108 C
BRANCH   5   6
HETATM    6  C7  UNL     1      -8.010  -3.779  11.761  1.00  0.00     0.003 C
HETATM    7  C8  UNL     1      -6.805  -2.875  11.847  1.00  0.00     0.012 C
HETATM    8  C9  UNL     1      -6.168  -2.741  10.515  1.00  0.00     0.009 C
HETATM    9  C10 UNL     1      -6.960  -3.613   9.605  1.00  0.00     0.000 C
HETATM   10  C12 UNL     1      -4.988  -3.672  10.305  1.00  0.00     0.049 C
HETATM   11  C11 UNL     1      -5.967  -4.740   9.885  1.00  0.00     0.026 C
HETATM   12  C15 UNL     1      -8.290  -3.834  10.304  1.00  0.00    -0.040 C
HETATM   13  C16 UNL     1      -8.712  -5.250   9.940  1.00  0.00     0.015 C
HETATM   14  C17 UNL     1      -9.290  -2.888   9.766  1.00  0.00     0.015 C
HETATM   15  C13 UNL     1      -4.096  -3.228   9.161  1.00  0.00     0.027 C
BRANCH  10  16
HETATM   16  C14 UNL     1      -4.277  -3.917  11.576  1.00  0.00     0.181 C
HETATM   17  O2  UNL     1      -4.368  -4.990  12.224  1.00  0.00    -0.647 OA
HETATM   18  O3  UNL     1      -3.461  -2.889  12.072  1.00  0.00    -0.647 OA
ENDBRANCH  10  16
ENDBRANCH   5   6
ENDBRANCH   3   5
BRANCH   1  19
HETATM   19  C4  UNL     1      -8.735  -6.352  13.542  1.00  0.00     0.122 A
HETATM   20  C3  UNL     1      -7.554  -6.968  13.214  1.00  0.00     0.058 A
HETATM   21  C2  UNL     1      -7.606  -8.221  12.624  1.00  0.00    -0.035 A
HETATM   22  C1  UNL     1      -6.365  -8.941  12.239  1.00  0.00     0.050 C
HETATM   23  C18 UNL     1      -8.812  -8.824  12.378  1.00  0.00     0.028 A
HETATM   24  N3  UNL     1      -9.934  -8.158  12.727  1.00  0.00    -0.303 N
HETATM   25  C19 UNL     1      -8.942 -10.156  11.757  1.00  0.00     0.070 C
HETATM   26  N2  UNL     1      -9.921  -6.966  13.289  1.00  0.00    -0.285 N
ATOM     27  H3  UNL     1     -10.836  -8.600  12.546  1.00  0.00     0.186 HD
ATOM     28  H2  UNL     1     -10.798  -6.505  13.533  1.00  0.00     0.188 HD
ENDBRANCH   1  19
TORSDOF 4
ENDMDL