MODEL 1
REMARK VINA RESULT: -8.313788953      0.000      0.000
REMARK  9 active torsions:
REMARK  status: ('A' for Active; 'I' for Inactive)
REMARK    1  A    between atoms: C2_2  and  C3_3
REMARK    2  A    between atoms: C3_3  and  C6_6
REMARK    3  A    between atoms: C7_7  and  C8_8
REMARK    4  A    between atoms: C11_11  and  O1_12
REMARK    5  A    between atoms: C15_17  and  C16_18
REMARK    6  A    between atoms: C16_18  and  C18_20
REMARK    7  A    between atoms: C18_20  and  C19_21
REMARK    8  A    between atoms: C19_21  and  C20_22
REMARK    9  A    between atoms: C20_22  and  C21_23
ROOT
HETATM    1  C8  UNL     1      60.684   3.097  18.215  1.00  0.00     0.074 C
HETATM    2  C9  UNL     1      62.118   2.559  18.367  1.00  0.00     0.020 C
HETATM    3  C10 UNL     1      62.235   1.126  17.973  1.00  0.00     0.033 C
HETATM    4  C11 UNL     1      61.253   0.247  18.730  1.00  0.00     0.123 C
HETATM    5  C12 UNL     1      60.432   1.153  19.590  1.00  0.00     0.024 C
HETATM    6  C13 UNL     1      59.474   0.495  20.502  1.00  0.00     0.008 C
HETATM    7  C14 UNL     1      58.215   1.366  20.363  1.00  0.00     0.006 C
HETATM    8  C15 UNL     1      58.735   2.672  19.808  1.00  0.00    -0.001 C
HETATM    9  C24 UNL     1      59.639   2.171  18.733  1.00  0.00    -0.020 C
HETATM   10  C25 UNL     1      58.980   1.345  17.674  1.00  0.00     0.017 C
ENDROOT
BRANCH   8  11
HETATM   11  C16 UNL     1      57.809   3.740  19.676  1.00  0.00    -0.014 C
HETATM   12  C17 UNL     1      58.239   5.122  20.147  1.00  0.00     0.010 C
BRANCH  11  13
HETATM   13  C18 UNL     1      56.955   3.981  18.475  1.00  0.00     0.005 C
BRANCH  13  14
HETATM   14  C19 UNL     1      57.042   5.309  17.806  1.00  0.00     0.001 C
BRANCH  14  15
HETATM   15  C20 UNL     1      57.210   5.344  16.342  1.00  0.00     0.004 C
BRANCH  15  16
HETATM   16  C21 UNL     1      57.715   6.553  15.673  1.00  0.00    -0.023 C
HETATM   17  C22 UNL     1      56.816   7.663  15.326  1.00  0.00     0.009 C
HETATM   18  C23 UNL     1      58.913   7.164  16.417  1.00  0.00     0.009 C
ENDBRANCH  15  16
ENDBRANCH  14  15
ENDBRANCH  13  14
ENDBRANCH  11  13
ENDBRANCH   8  11
BRANCH   1  19
HETATM   19  C7  UNL     1      60.534   3.253  16.742  1.00  0.00    -0.100 C
HETATM   20  C6  UNL     1      60.397   3.397  15.550  1.00  0.00    -0.093 C
BRANCH  20  21
HETATM   21  C3  UNL     1      60.222   3.552  14.105  1.00  0.00     0.033 C
HETATM   22  C4  UNL     1      60.372   5.018  13.773  1.00  0.00     0.033 C
HETATM   23  C5  UNL     1      58.848   3.111  13.676  1.00  0.00     0.033 C
BRANCH  21  24
HETATM   24  C2  UNL     1      61.231   2.792  13.346  1.00  0.00    -0.015 C
HETATM   25  C1  UNL     1      61.036   2.459  12.095  1.00  0.00     0.008 C
ENDBRANCH  21  24
ENDBRANCH  20  21
ENDBRANCH   1  19
BRANCH   4  26
HETATM   26  O1  UNL     1      61.986  -0.578  19.568  1.00  0.00    -0.395 OA
ATOM     27  H1  UNL     1      61.940  -1.460  19.217  1.00  0.00     0.210 HD
ENDBRANCH   4  26
TORSDOF 9
ENDMDL