MODEL 1
REMARK VINA RESULT: -7.832563886      0.000      0.000
REMARK  8 active torsions:
REMARK  status: ('A' for Active; 'I' for Inactive)
REMARK    1  A    between atoms: C2_2  and  C4_4
REMARK    2  A    between atoms: C4_4  and  C5_5
REMARK    3  A    between atoms: C5_5  and  C6_6
REMARK    4  A    between atoms: C6_6  and  C7_7
REMARK    5  A    between atoms: C7_7  and  C8_8
REMARK    6  A    between atoms: C8_8  and  C9_9
REMARK    7  A    between atoms: C9_9  and  C11_11
REMARK    8  A    between atoms: C13_13  and  O1_14
ROOT
HETATM    1  C11 UNL     1      56.700   4.800  17.708  1.00  0.00    -0.008 C
HETATM    2  C12 UNL     1      57.313   5.303  18.971  1.00  0.00     0.037 C
HETATM    3  C13 UNL     1      58.580   4.509  19.196  1.00  0.00     0.127 C
HETATM    4  C14 UNL     1      58.596   3.369  18.218  1.00  0.00    -0.013 C
HETATM    5  C15 UNL     1      57.806   2.185  18.566  1.00  0.00     0.017 C
HETATM    6  C16 UNL     1      58.373   1.073  19.328  1.00  0.00    -0.013 C
HETATM    7  C17 UNL     1      58.100   1.160  20.844  1.00  0.00     0.010 C
HETATM    8  C18 UNL     1      59.752   0.681  19.173  1.00  0.00    -0.002 C
HETATM    9  C19 UNL     1      60.381   0.695  17.822  1.00  0.00    -0.005 C
HETATM   10  C20 UNL     1      61.693  -0.029  18.137  1.00  0.00     0.006 C
HETATM   11  C21 UNL     1      62.043   0.693  19.456  1.00  0.00     0.006 C
HETATM   12  C22 UNL     1      60.831   1.653  19.518  1.00  0.00    -0.005 C
HETATM   13  C23 UNL     1      60.803   2.113  18.129  1.00  0.00    -0.005 C
HETATM   14  C24 UNL     1      59.941   3.161  17.645  1.00  0.00     0.017 C
HETATM   15  C25 UNL     1      57.821   4.061  17.061  1.00  0.00     0.017 C
ENDROOT
BRANCH   1  16
HETATM   16  C9  UNL     1      56.293   6.021  16.885  1.00  0.00    -0.014 C
HETATM   17  C10 UNL     1      56.341   5.616  15.447  1.00  0.00     0.010 C
BRANCH  16  18
HETATM   18  C8  UNL     1      57.191   7.196  17.194  1.00  0.00     0.004 C
BRANCH  18  19
HETATM   19  C7  UNL     1      58.271   7.375  16.183  1.00  0.00     0.000 C
BRANCH  19  20
HETATM   20  C6  UNL     1      59.666   7.174  16.786  1.00  0.00     0.000 C
BRANCH  20  21
HETATM   21  C5  UNL     1      60.373   6.052  16.032  1.00  0.00     0.000 C
BRANCH  21  22
HETATM   22  C4  UNL     1      59.606   5.809  14.749  1.00  0.00     0.004 C
BRANCH  22  23
HETATM   23  C2  UNL     1      60.219   4.662  13.975  1.00  0.00    -0.023 C
HETATM   24  C1  UNL     1      61.509   4.250  14.692  1.00  0.00     0.009 C
HETATM   25  C3  UNL     1      59.232   3.510  13.967  1.00  0.00     0.009 C
ENDBRANCH  22  23
ENDBRANCH  21  22
ENDBRANCH  20  21
ENDBRANCH  19  20
ENDBRANCH  18  19
ENDBRANCH  16  18
ENDBRANCH   1  16
BRANCH   3  26
HETATM   26  O1  UNL     1      58.632   4.206  20.517  1.00  0.00    -0.395 OA
ATOM     27  H1  UNL     1      58.727   3.263  20.584  1.00  0.00     0.210 HD
ENDBRANCH   3  26
TORSDOF 8
ENDMDL