MODEL 3
REMARK VINA RESULT: -6.600584495      2.757      6.538
REMARK  6 active torsions:
REMARK  status: ('A' for Active; 'I' for Inactive)
REMARK    1  A    between atoms: C2_2  and  C3_3
REMARK    2  A    between atoms: C3_3  and  C4_4
REMARK    3  A    between atoms: C4_4  and  C5_5
REMARK    4  A    between atoms: C5_5  and  C6_6
REMARK    5  A    between atoms: C6_6  and  C8_8
REMARK    6  A    between atoms: C17_17  and  N1_18
ROOT
HETATM    1  C8  UNL     1      57.662   5.040  16.718  1.00  0.00    -0.003 C
HETATM    2  C9  UNL     1      57.218   4.494  18.070  1.00  0.00     0.006 C
HETATM    3  C10 UNL     1      57.195   2.999  18.163  1.00  0.00     0.006 C
HETATM    4  C11 UNL     1      58.340   2.277  17.563  1.00  0.00    -0.005 C
HETATM    5  C12 UNL     1      59.277   3.258  16.866  1.00  0.00    -0.002 C
HETATM    6  C13 UNL     1      60.443   2.609  16.236  1.00  0.00     0.006 C
HETATM    7  C14 UNL     1      60.804   1.259  16.832  1.00  0.00     0.012 C
HETATM    8  C15 UNL     1      60.556   1.295  18.289  1.00  0.00    -0.020 C
HETATM    9  C16 UNL     1      61.181   2.427  19.034  1.00  0.00     0.018 C
HETATM   10  C17 UNL     1      60.820   0.052  19.072  1.00  0.00     0.084 C
HETATM   11  C19 UNL     1      59.884   0.262  20.282  1.00  0.00     0.026 C
HETATM   12  C20 UNL     1      58.831   1.261  19.848  1.00  0.00     0.008 C
HETATM   13  C21 UNL     1      59.014   1.282  18.392  1.00  0.00     0.000 C
HETATM   14  C22 UNL     1      58.406   4.082  15.885  1.00  0.00    -0.040 C
HETATM   15  C23 UNL     1      59.411   4.840  15.007  1.00  0.00     0.015 C
HETATM   16  C24 UNL     1      57.663   3.132  15.032  1.00  0.00     0.015 C
ENDROOT
BRANCH   1  17
HETATM   17  C6  UNL     1      56.505   5.791  16.143  1.00  0.00    -0.014 C
HETATM   18  C7  UNL     1      55.716   6.321  17.314  1.00  0.00     0.010 C
BRANCH  17  19
HETATM   19  C5  UNL     1      56.783   6.861  15.173  1.00  0.00     0.005 C
BRANCH  19  20
HETATM   20  C4  UNL     1      56.713   8.261  15.614  1.00  0.00     0.000 C
BRANCH  20  21
HETATM   21  C3  UNL     1      57.808   8.955  16.288  1.00  0.00    -0.000 C
BRANCH  21  22
HETATM   22  C2  UNL     1      59.196   8.376  16.094  1.00  0.00    -0.005 C
HETATM   23  C1  UNL     1      59.600   7.593  17.342  1.00  0.00     0.005 C
ENDBRANCH  21  22
ENDBRANCH  20  21
ENDBRANCH  19  20
ENDBRANCH  17  19
ENDBRANCH   1  17
BRANCH  10  24
HETATM   24  N1  UNL     1      62.164  -0.075  19.506  1.00  0.00    -0.420 N
HETATM   25  C18 UNL     1      62.426  -0.136  20.885  1.00  0.00     0.140 C
ATOM     26  H1  UNL     1      62.926  -0.121  18.831  1.00  0.00     0.153 HD
ENDBRANCH  10  24
TORSDOF 6
ENDMDL