MODEL 4
REMARK VINA RESULT: -7.101084053      2.693      6.215
REMARK  7 active torsions:
REMARK  status: ('A' for Active; 'I' for Inactive)
REMARK    1  A    between atoms: C2_2  and  C3_3
REMARK    2  A    between atoms: C3_3  and  C4_4
REMARK    3  A    between atoms: C4_4  and  C5_5
REMARK    4  A    between atoms: C5_5  and  C6_6
REMARK    5  A    between atoms: C6_6  and  N1_7
REMARK    6  A    between atoms: C12_13  and  C13_14
REMARK    7  A    between atoms: C18_19  and  O1_20
ROOT
HETATM    1  N1  UNL     1      59.541   2.132  16.588  1.00  0.00    -0.067 N
HETATM    2  C7  UNL     1      60.869   2.450  16.188  1.00  0.00     0.238 C
HETATM    3  C8  UNL     1      61.015   3.783  15.485  1.00  0.00     0.033 C
HETATM    4  C9  UNL     1      59.575   4.281  15.233  1.00  0.00    -0.005 C
HETATM    5  C10 UNL     1      58.919   3.119  14.527  1.00  0.00     0.033 C
HETATM    6  C11 UNL     1      58.669   1.937  15.442  1.00  0.00     0.238 C
HETATM    7  C12 UNL     1      59.033   4.564  16.591  1.00  0.00     0.025 C
HETATM    8  C23 UNL     1      58.967   3.304  17.329  1.00  0.00     0.243 C
ENDROOT
BRANCH   7   9
HETATM    9  C13 UNL     1      57.910   5.551  16.652  1.00  0.00    -0.028 C
HETATM   10  C14 UNL     1      56.537   4.897  16.434  1.00  0.00     0.016 C
HETATM   11  C15 UNL     1      58.059   6.403  15.398  1.00  0.00    -0.007 C
HETATM   12  C16 UNL     1      59.399   6.938  15.142  1.00  0.00     0.011 C
HETATM   13  C17 UNL     1      57.093   7.598  15.443  1.00  0.00     0.037 C
HETATM   14  C18 UNL     1      57.687   8.459  16.537  1.00  0.00     0.119 C
HETATM   15  C19 UNL     1      57.355   7.758  17.797  1.00  0.00     0.041 C
HETATM   16  C20 UNL     1      57.778   6.312  17.910  1.00  0.00    -0.037 C
HETATM   17  C21 UNL     1      59.037   6.329  18.787  1.00  0.00     0.015 C
HETATM   18  C22 UNL     1      56.697   5.757  18.856  1.00  0.00     0.015 C
BRANCH  14  19
HETATM   19  O1  UNL     1      56.940   9.658  16.523  1.00  0.00    -0.396 OA
ATOM     20  H1  UNL     1      56.289   9.560  17.208  1.00  0.00     0.210 HD
ENDBRANCH  14  19
ENDBRANCH   7   9
BRANCH   1  21
HETATM   21  C6  UNL     1      59.464   1.056  17.528  1.00  0.00     0.237 C
BRANCH  21  22
HETATM   22  C5  UNL     1      58.778   1.249  18.791  1.00  0.00     0.028 C
BRANCH  22  23
HETATM   23  C4  UNL     1      59.240   0.797  20.116  1.00  0.00     0.002 C
BRANCH  23  24
HETATM   24  C3  UNL     1      60.358  -0.136  20.240  1.00  0.00    -0.000 C
BRANCH  24  25
HETATM   25  C2  UNL     1      61.766   0.190  20.343  1.00  0.00    -0.005 C
HETATM   26  C1  UNL     1      62.430   0.903  19.218  1.00  0.00     0.005 C
ENDBRANCH  24  25
ENDBRANCH  23  24
ENDBRANCH  22  23
ENDBRANCH  21  22
ENDBRANCH   1  21
TORSDOF 7
ENDMDL