MODEL 3
REMARK VINA RESULT: -8.165616585      2.606      6.240
REMARK  6 active torsions:
REMARK  status: ('A' for Active; 'I' for Inactive)
REMARK    1  A    between atoms: C3_3  and  C4_4
REMARK    2  A    between atoms: C8_8  and  C9_9
REMARK    3  A    between atoms: C9_9  and  C10_10
REMARK    4  A    between atoms: C10_10  and  C11_11
REMARK    5  A    between atoms: C11_11  and  N1_12
REMARK    6  A    between atoms: C21_25  and  C22_26
ROOT
HETATM    1  C1  UNL     1      56.568   7.631  15.413  1.00  0.00     0.096 C
HETATM    2  C2  UNL     1      57.057   6.505  15.451  1.00  0.00    -0.186 C
HETATM    3  C3  UNL     1      57.632   5.153  15.469  1.00  0.00     0.093 C
ENDROOT
BRANCH   3   4
HETATM    4  C4  UNL     1      58.801   5.152  16.371  1.00  0.00    -0.010 C
HETATM    5  C5  UNL     1      59.405   6.567  16.363  1.00  0.00     0.021 C
HETATM    6  C6  UNL     1      58.233   5.012  17.770  1.00  0.00     0.015 C
HETATM    7  C7  UNL     1      57.736   3.634  18.035  1.00  0.00     0.007 C
HETATM    8  C8  UNL     1      59.006   2.795  18.089  1.00  0.00    -0.002 C
HETATM    9  C12 UNL     1      59.719   2.795  16.772  1.00  0.00    -0.016 C
HETATM   10  C13 UNL     1      61.124   2.274  17.141  1.00  0.00     0.020 C
HETATM   11  C14 UNL     1      59.062   1.734  15.926  1.00  0.00     0.015 C
HETATM   12  C25 UNL     1      59.852   4.125  16.112  1.00  0.00    -0.059 C
HETATM   13  C15 UNL     1      59.741   1.569  14.558  1.00  0.00     0.011 C
HETATM   14  C16 UNL     1      59.502   2.911  13.903  1.00  0.00     0.023 C
HETATM   15  C17 UNL     1      60.288   3.924  14.716  1.00  0.00    -0.071 C
HETATM   16  C21 UNL     1      60.228   3.035  12.578  1.00  0.00     0.025 C
HETATM   17  C18 UNL     1      60.575   5.043  13.839  1.00  0.00     0.040 C
HETATM   18  C19 UNL     1      60.271   4.517  12.423  1.00  0.00    -0.006 C
HETATM   19  C20 UNL     1      61.313   5.002  11.447  1.00  0.00     0.011 C
BRANCH   8  20
HETATM   20  C9  UNL     1      58.571   1.440  18.528  1.00  0.00     0.007 C
BRANCH  20  21
HETATM   21  C10 UNL     1      58.724   1.183  20.002  1.00  0.00     0.027 C
BRANCH  21  22
HETATM   22  C11 UNL     1      60.070   0.634  20.335  1.00  0.00     0.229 C
BRANCH  22  23
HETATM   23  N1  UNL     1      60.059  -0.826  20.332  1.00  0.00    -0.079 N
ATOM     24  H13 UNL     1      60.362  -1.206  21.229  1.00  0.00     0.274 HD
ATOM     25  H12 UNL     1      59.107  -1.194  20.321  1.00  0.00     0.274 HD
ATOM     26  H11 UNL     1      60.614  -1.197  19.561  1.00  0.00     0.274 HD
ENDBRANCH  22  23
ENDBRANCH  21  22
ENDBRANCH  20  21
ENDBRANCH   8  20
BRANCH  16  27
HETATM   27  C22 UNL     1      59.622   2.291  11.477  1.00  0.00    -0.088 C
HETATM   28  C23 UNL     1      58.700   2.869  10.728  1.00  0.00     0.014 C
HETATM   29  C24 UNL     1      60.001   0.884  11.134  1.00  0.00     0.043 C
ENDBRANCH  16  27
ENDBRANCH   3   4
TORSDOF 6
ENDMDL