MODEL 1
REMARK VINA RESULT: -7.472935464      0.000      0.000
REMARK  6 active torsions:
REMARK  status: ('A' for Active; 'I' for Inactive)
REMARK    1  A    between atoms: C16_16  and  C17_17
REMARK    2  A    between atoms: C17_17  and  C18_18
REMARK    3  A    between atoms: C18_18  and  C19_19
REMARK    4  A    between atoms: C19_19  and  C20_20
REMARK    5  A    between atoms: C20_20  and  C21_21
REMARK    6  A    between atoms: C21_21  and  N1_22
ROOT
HETATM    1  C1  UNL     1      60.874  -0.186  18.223  1.00  0.00     0.015 C
HETATM    2  C2  UNL     1      60.582   1.194  18.833  1.00  0.00    -0.043 C
HETATM    3  C3  UNL     1      61.858   1.857  19.104  1.00  0.00     0.015 C
HETATM    4  C4  UNL     1      59.896   0.914  20.179  1.00  0.00     0.009 C
HETATM    5  C5  UNL     1      58.412   1.100  20.116  1.00  0.00     0.002 C
HETATM    6  C6  UNL     1      57.938   2.438  19.669  1.00  0.00     0.010 C
HETATM    7  C7  UNL     1      58.865   3.002  18.581  1.00  0.00    -0.039 C
HETATM    8  C8  UNL     1      59.663   4.062  19.243  1.00  0.00     0.015 C
HETATM    9  C9  UNL     1      58.120   3.576  17.416  1.00  0.00     0.015 C
HETATM   10  C10 UNL     1      58.631   2.922  16.164  1.00  0.00    -0.004 C
HETATM   11  C11 UNL     1      59.876   2.122  16.557  1.00  0.00    -0.004 C
HETATM   12  C12 UNL     1      61.118   2.813  16.199  1.00  0.00     0.006 C
HETATM   13  C13 UNL     1      61.176   2.952  14.693  1.00  0.00     0.014 C
HETATM   14  C14 UNL     1      59.895   3.402  14.059  1.00  0.00    -0.017 C
HETATM   15  C15 UNL     1      59.344   2.340  13.111  1.00  0.00     0.020 C
HETATM   16  C16 UNL     1      60.198   4.657  13.315  1.00  0.00    -0.075 C
HETATM   17  C22 UNL     1      59.750   5.688  13.974  1.00  0.00    -0.023 C
HETATM   18  C23 UNL     1      59.102   5.221  15.230  1.00  0.00     0.033 C
HETATM   19  C24 UNL     1      58.808   3.787  14.995  1.00  0.00     0.006 C
HETATM   20  C25 UNL     1      59.583   1.847  17.983  1.00  0.00     0.006 C
ENDROOT
BRANCH  16  21
HETATM   21  C17 UNL     1      60.931   4.613  12.030  1.00  0.00     0.034 C
BRANCH  21  22
HETATM   22  C18 UNL     1      60.202   4.822  10.782  1.00  0.00     0.004 C
BRANCH  22  23
HETATM   23  C19 UNL     1      60.152   3.744   9.773  1.00  0.00     0.002 C
BRANCH  23  24
HETATM   24  C20 UNL     1      61.514   3.029   9.820  1.00  0.00     0.027 C
BRANCH  24  25
HETATM   25  C21 UNL     1      61.281   1.527  10.039  1.00  0.00     0.229 C
BRANCH  25  26
HETATM   26  N1  UNL     1      62.155   1.019  11.055  1.00  0.00    -0.079 N
ATOM     27  H13 UNL     1      62.362   0.031  10.914  1.00  0.00     0.274 HD
ATOM     28  H12 UNL     1      63.100   1.391  10.960  1.00  0.00     0.274 HD
ATOM     29  H11 UNL     1      61.772   1.194  11.984  1.00  0.00     0.274 HD
ENDBRANCH  25  26
ENDBRANCH  24  25
ENDBRANCH  23  24
ENDBRANCH  22  23
ENDBRANCH  21  22
ENDBRANCH  16  21
TORSDOF 6
ENDMDL