MODEL 4
REMARK VINA RESULT: -6.681916299      2.576      6.636
REMARK  7 active torsions:
REMARK  status: ('A' for Active; 'I' for Inactive)
REMARK    1  A    between atoms: C3_3  and  O1_4
REMARK    2  A    between atoms: C11_13  and  C12_14
REMARK    3  A    between atoms: C12_14  and  C15_17
REMARK    4  A    between atoms: C15_17  and  C16_18
REMARK    5  A    between atoms: C16_18  and  C17_19
REMARK    6  A    between atoms: C17_19  and  C18_20
REMARK    7  A    between atoms: C18_20  and  C19_21
ROOT
HETATM    1  C1  UNL     1      59.411   9.207  14.220  1.00  0.00     0.015 C
HETATM    2  C2  UNL     1      58.580   8.887  15.031  1.00  0.00    -0.078 C
HETATM    3  C3  UNL     1      57.555   8.515  16.004  1.00  0.00     0.128 C
HETATM    4  C4  UNL     1      56.277   8.077  15.319  1.00  0.00     0.052 C
HETATM    5  C5  UNL     1      56.264   6.541  15.386  1.00  0.00     0.010 C
HETATM    6  C6  UNL     1      57.638   6.236  15.761  1.00  0.00     0.006 C
HETATM    7  C7  UNL     1      57.997   4.843  16.185  1.00  0.00    -0.035 C
HETATM    8  C8  UNL     1      57.120   4.258  17.192  1.00  0.00     0.016 C
HETATM    9  C9  UNL     1      58.085   3.899  15.005  1.00  0.00     0.010 C
HETATM   10  C10 UNL     1      59.004   2.845  15.550  1.00  0.00     0.006 C
HETATM   11  C11 UNL     1      60.042   3.564  16.441  1.00  0.00    -0.002 C
HETATM   12  C21 UNL     1      59.490   4.892  16.507  1.00  0.00    -0.001 C
HETATM   13  C22 UNL     1      59.870   5.879  17.537  1.00  0.00     0.007 C
HETATM   14  C23 UNL     1      59.429   7.273  17.124  1.00  0.00     0.014 C
HETATM   15  C24 UNL     1      57.983   7.274  16.784  1.00  0.00     0.003 C
HETATM   16  C25 UNL     1      57.162   7.257  18.018  1.00  0.00     0.020 C
ENDROOT
BRANCH   3  17
HETATM   17  O1  UNL     1      57.259   9.579  16.850  1.00  0.00    -0.377 OA
ATOM     18  H1  UNL     1      57.311  10.408  16.387  1.00  0.00     0.211 HD
ENDBRANCH   3  17
BRANCH  11  19
HETATM   19  C12 UNL     1      60.510   2.726  17.527  1.00  0.00    -0.044 C
HETATM   20  C13 UNL     1      61.835   2.026  17.440  1.00  0.00     0.015 C
HETATM   21  C14 UNL     1      60.719   3.671  18.744  1.00  0.00     0.015 C
BRANCH  19  22
HETATM   22  C15 UNL     1      59.546   1.684  18.044  1.00  0.00     0.009 C
BRANCH  22  23
HETATM   23  C16 UNL     1      58.807   2.094  19.270  1.00  0.00     0.001 C
BRANCH  23  24
HETATM   24  C17 UNL     1      58.695   0.877  20.164  1.00  0.00     0.000 C
BRANCH  24  25
HETATM   25  C18 UNL     1      59.821  -0.104  19.938  1.00  0.00    -0.000 C
BRANCH  25  26
HETATM   26  C19 UNL     1      60.849   0.153  21.033  1.00  0.00    -0.005 C
HETATM   27  C20 UNL     1      62.247   0.214  20.508  1.00  0.00     0.005 C
ENDBRANCH  25  26
ENDBRANCH  24  25
ENDBRANCH  23  24
ENDBRANCH  22  23
ENDBRANCH  19  22
ENDBRANCH  11  19
TORSDOF 7
ENDMDL