MODEL 3
REMARK VINA RESULT: -8.314216347      2.091      5.750
REMARK  7 active torsions:
REMARK  status: ('A' for Active; 'I' for Inactive)
REMARK    1  A    between atoms: C2_2  and  N1_3
REMARK    2  A    between atoms: N1_3  and  C3_4
REMARK    3  A    between atoms: N1_3  and  C5_6
REMARK    4  A    between atoms: C5_6  and  C6_7
REMARK    5  A    between atoms: C6_7  and  C7_8
REMARK    6  A    between atoms: C7_8  and  C8_9
REMARK    7  A    between atoms: C17_18  and  C18_19
ROOT
HETATM    1  C8  UNL     1      59.431   5.098  15.463  1.00  0.00    -0.039 C
HETATM    2  C9  UNL     1      58.890   6.501  15.440  1.00  0.00     0.014 C
HETATM    3  C10 UNL     1      58.185   6.750  16.785  1.00  0.00    -0.013 C
HETATM    4  C11 UNL     1      59.212   6.607  17.845  1.00  0.00     0.010 C
HETATM    5  C12 UNL     1      59.614   5.120  17.965  1.00  0.00    -0.004 C
HETATM    6  C13 UNL     1      60.349   4.888  16.675  1.00  0.00     0.015 C
HETATM    7  C14 UNL     1      58.400   4.305  18.166  1.00  0.00    -0.029 C
HETATM    8  C15 UNL     1      57.454   4.975  19.216  1.00  0.00     0.011 C
HETATM    9  C16 UNL     1      58.201   4.132  20.229  1.00  0.00     0.006 C
HETATM   10  C17 UNL     1      58.358   3.145  19.051  1.00  0.00    -0.001 C
HETATM   11  C23 UNL     1      57.575   4.321  16.897  1.00  0.00    -0.004 C
HETATM   12  C24 UNL     1      57.052   5.770  16.821  1.00  0.00     0.010 C
HETATM   13  C25 UNL     1      58.328   4.067  15.645  1.00  0.00     0.015 C
ENDROOT
BRANCH   1  14
HETATM   14  C7  UNL     1      60.235   4.776  14.238  1.00  0.00     0.011 C
BRANCH  14  15
HETATM   15  C6  UNL     1      60.670   3.332  14.187  1.00  0.00     0.031 C
BRANCH  15  16
HETATM   16  C5  UNL     1      60.098   2.736  12.921  1.00  0.00     0.272 C
BRANCH  16  17
HETATM   17  N1  UNL     1      60.937   2.954  11.760  1.00  0.00     0.087 N
BRANCH  17  18
HETATM   18  C2  UNL     1      61.520   1.722  11.272  1.00  0.00     0.268 C
HETATM   19  C1  UNL     1      60.398   0.711  11.133  1.00  0.00     0.037 C
ENDBRANCH  17  18
BRANCH  17  20
HETATM   20  C3  UNL     1      60.027   3.435  10.711  1.00  0.00     0.268 C
HETATM   21  C4  UNL     1      60.577   4.739  10.181  1.00  0.00     0.037 C
ENDBRANCH  17  20
ENDBRANCH  16  17
ENDBRANCH  15  16
ENDBRANCH  14  15
ENDBRANCH   1  14
BRANCH  10  22
HETATM   22  C18 UNL     1      59.456   2.219  19.314  1.00  0.00    -0.010 C
HETATM   23  C19 UNL     1      60.001   1.626  18.067  1.00  0.00     0.005 C
HETATM   24  C20 UNL     1      60.394   0.211  18.380  1.00  0.00     0.000 C
HETATM   25  C21 UNL     1      60.050   0.015  19.841  1.00  0.00     0.000 C
HETATM   26  C22 UNL     1      58.914   0.999  20.078  1.00  0.00     0.005 C
ENDBRANCH  10  22
TORSDOF 7
ENDMDL