MODEL 2
REMARK VINA RESULT: -8.300537425      1.916      6.443
REMARK  6 active torsions:
REMARK  status: ('A' for Active; 'I' for Inactive)
REMARK    1  A    between atoms: C1_2  and  C2_3
REMARK       I    between atoms: C1_2  and  N1_17
REMARK    2  A    between atoms: C2_3  and  C3_4
REMARK    3  A    between atoms: C3_4  and  C4_5
REMARK    4  A    between atoms: C4_5  and  C5_6
REMARK    5  A    between atoms: C5_6  and  C6_7
REMARK    6  A    between atoms: N1_17  and  C16_19
ROOT
HETATM    1  C2  UNL     1      61.054   3.525  13.672  1.00  0.00     0.103 C
ENDROOT
BRANCH   1   2
HETATM    2  C1  UNL     1      61.235   3.562  15.133  1.00  0.00     0.217 C
HETATM    3  O1  UNL     1      61.497   4.643  15.690  1.00  0.00    -0.274 OA
HETATM    4  N1  UNL     1      61.113   2.390  15.895  1.00  0.00    -0.356 N
ATOM      5  H1  UNL     1      60.897   1.514  15.420  1.00  0.00     0.162 HD
BRANCH   4   6
HETATM    6  C16 UNL     1      61.284   2.382  17.357  1.00  0.00     0.084 C
HETATM    7  C17 UNL     1      61.656   0.977  17.728  1.00  0.00     0.025 C
HETATM    8  C18 UNL     1      62.223   0.806  19.082  1.00  0.00     0.002 C
HETATM    9  C19 UNL     1      61.316   0.758  20.230  1.00  0.00     0.000 C
HETATM   10  C20 UNL     1      60.069  -0.030  20.093  1.00  0.00     0.000 C
HETATM   11  C21 UNL     1      58.838   0.743  20.485  1.00  0.00     0.000 C
HETATM   12  C22 UNL     1      58.683   2.056  19.813  1.00  0.00     0.000 C
HETATM   13  C23 UNL     1      58.982   2.044  18.334  1.00  0.00     0.002 C
HETATM   14  C24 UNL     1      60.120   2.960  18.048  1.00  0.00     0.025 C
ENDBRANCH   4   6
ENDBRANCH   1   2
BRANCH   1  15
HETATM   15  C3  UNL     1      59.605   3.522  13.272  1.00  0.00     0.009 C
BRANCH  15  16
HETATM   16  C4  UNL     1      58.728   2.996  14.373  1.00  0.00     0.001 C
BRANCH  16  17
HETATM   17  C5  UNL     1      57.669   3.899  14.797  1.00  0.00     0.005 C
BRANCH  17  18
HETATM   18  C6  UNL     1      57.882   4.822  15.940  1.00  0.00    -0.006 C
HETATM   19  C7  UNL     1      58.459   6.159  15.661  1.00  0.00    -0.009 C
HETATM   20  C8  UNL     1      57.447   7.257  15.453  1.00  0.00     0.010 C
HETATM   21  C12 UNL     1      59.196   6.573  16.957  1.00  0.00     0.010 C
HETATM   22  C9  UNL     1      56.478   7.346  16.592  1.00  0.00    -0.013 C
HETATM   23  C10 UNL     1      57.231   7.691  17.851  1.00  0.00     0.009 C
HETATM   24  C15 UNL     1      55.776   6.010  16.704  1.00  0.00     0.010 C
HETATM   25  C11 UNL     1      58.227   6.576  18.098  1.00  0.00    -0.013 C
HETATM   26  C13 UNL     1      57.466   5.295  18.278  1.00  0.00     0.010 C
HETATM   27  C14 UNL     1      56.772   4.933  16.937  1.00  0.00    -0.009 C
ENDBRANCH  17  18
ENDBRANCH  16  17
ENDBRANCH  15  16
ENDBRANCH   1  15
TORSDOF 6
ENDMDL