MODEL 5
REMARK VINA RESULT: -6.971183642      5.629      7.747
REMARK  7 active torsions:
REMARK  status: ('A' for Active; 'I' for Inactive)
REMARK    1  A    between atoms: C2_2  and  C3_3
REMARK    2  A    between atoms: C3_3  and  C4_4
REMARK    3  A    between atoms: C4_4  and  C5_5
REMARK    4  A    between atoms: C5_5  and  C6_6
REMARK    5  A    between atoms: C6_6  and  C7_7
REMARK    6  A    between atoms: C7_7  and  C8_8
REMARK    7  A    between atoms: C17_17  and  O1_18
ROOT
HETATM    1  C8  UNL     1      61.275   2.499  10.064  1.00  0.00    -0.006 C
HETATM    2  C9  UNL     1      61.769   1.489  11.026  1.00  0.00     0.006 C
HETATM    3  C10 UNL     1      60.817   1.436  12.202  1.00  0.00     0.006 C
HETATM    4  C11 UNL     1      59.761   2.453  11.924  1.00  0.00    -0.002 C
HETATM    5  C12 UNL     1      59.383   3.150  13.200  1.00  0.00    -0.005 C
HETATM    6  C13 UNL     1      58.924   2.160  14.214  1.00  0.00     0.006 C
HETATM    7  C14 UNL     1      59.034   2.546  15.628  1.00  0.00     0.012 C
HETATM    8  C15 UNL     1      59.958   3.611  16.025  1.00  0.00    -0.014 C
HETATM    9  C16 UNL     1      61.245   3.001  16.583  1.00  0.00     0.018 C
HETATM   10  C17 UNL     1      59.420   4.514  17.118  1.00  0.00     0.126 C
HETATM   11  C18 UNL     1      59.396   5.924  16.565  1.00  0.00     0.033 C
HETATM   12  C19 UNL     1      59.328   5.658  15.074  1.00  0.00     0.008 C
HETATM   13  C20 UNL     1      60.380   4.573  14.958  1.00  0.00     0.001 C
HETATM   14  C21 UNL     1      60.528   3.997  13.607  1.00  0.00    -0.005 C
HETATM   15  C22 UNL     1      60.592   5.125  12.583  1.00  0.00     0.006 C
HETATM   16  C23 UNL     1      60.762   4.667  11.198  1.00  0.00     0.010 C
HETATM   17  C24 UNL     1      60.220   3.331  10.807  1.00  0.00    -0.036 C
HETATM   18  C25 UNL     1      58.999   3.592   9.953  1.00  0.00     0.016 C
ENDROOT
BRANCH   1  19
HETATM   19  C7  UNL     1      60.982   2.133   8.691  1.00  0.00     0.005 C
BRANCH  19  20
HETATM   20  C6  UNL     1      60.997   0.772   8.153  1.00  0.00     0.000 C
BRANCH  20  21
HETATM   21  C5  UNL     1      59.691   0.068   7.929  1.00  0.00     0.000 C
BRANCH  21  22
HETATM   22  C4  UNL     1      58.837   0.032   9.190  1.00  0.00     0.004 C
BRANCH  22  23
HETATM   23  C3  UNL     1      58.747  -1.346   9.773  1.00  0.00     0.026 C
BRANCH  23  24
HETATM   24  C2  UNL     1      59.986  -1.670  10.522  1.00  0.00    -0.037 C
HETATM   25  C1  UNL     1      59.891  -2.047  11.787  1.00  0.00     0.007 C
ENDBRANCH  23  24
ENDBRANCH  22  23
ENDBRANCH  21  22
ENDBRANCH  20  21
ENDBRANCH  19  20
ENDBRANCH   1  19
BRANCH  10  26
HETATM   26  O1  UNL     1      58.107   4.209  17.464  1.00  0.00    -0.395 OA
ATOM     27  H1  UNL     1      58.043   3.782  18.311  1.00  0.00     0.210 HD
ENDBRANCH  10  26
TORSDOF 7
ENDMDL