MODEL 4
REMARK VINA RESULT: -5.424252618      3.120      3.766
REMARK  4 active torsions:
REMARK  status: ('A' for Active; 'I' for Inactive)
REMARK       I    between atoms: N1_1  and  C1_4
REMARK       I    between atoms: C1_4  and  N2_5
REMARK       I    between atoms: C1_4  and  N6_20
REMARK       I    between atoms: C2_7  and  N3_8
REMARK       I    between atoms: C2_7  and  N5_15
REMARK    1  A    between atoms: C3_10  and  C4_12
REMARK    2  A    between atoms: N5_15  and  C5_17
REMARK    3  A    between atoms: C5_17  and  C6_18
REMARK    4  A    between atoms: N6_20  and  C7_22
ROOT
HETATM    1  N1  UNL     1      89.407 101.594 -40.727  1.00  0.00    -0.234 N
ATOM      2  H11 UNL     1      89.293 102.557 -40.416  1.00  0.00     0.174 HD
ATOM      3  H12 UNL     1      88.606 100.967 -40.660  1.00  0.00     0.174 HD
HETATM    4  C1  UNL     1      90.499 101.102 -41.205  1.00  0.00     0.692 C
HETATM    5  N2  UNL     1      90.658  99.762 -41.638  1.00  0.00    -0.023 N
ATOM      6  H2  UNL     1      91.490  99.259 -41.331  1.00  0.00     0.203 HD
HETATM    7  C2  UNL     1      89.826  99.141 -42.391  1.00  0.00     0.693 C
HETATM    8  N3  UNL     1      90.120  97.800 -42.743  1.00  0.00    -0.180 N
ATOM      9  H3  UNL     1      90.039  97.084 -42.022  1.00  0.00     0.185 HD
HETATM   10  C3  UNL     1      90.482  97.438 -43.920  1.00  0.00     0.160 C
HETATM   11 BR1  UNL     1      90.651  98.720 -45.309  1.00  0.00    -0.025 Br
HETATM   12  N5  UNL     1      88.653  99.752 -42.863  1.00  0.00    -0.225 N
ATOM     13  H5  UNL     1      88.679 100.750 -43.076  1.00  0.00     0.177 HD
HETATM   14  N6  UNL     1      91.617 101.975 -41.299  1.00  0.00    -0.175 N
ATOM     15  H6  UNL     1      91.745 102.542 -42.137  1.00  0.00     0.186 HD
ENDROOT
BRANCH  14  16
HETATM   16  C7  UNL     1      92.473 102.059 -40.334  1.00  0.00     0.142 A
HETATM   17  C8  UNL     1      92.321 102.833 -39.205  1.00  0.00     0.077 A
HETATM   18  C9  UNL     1      93.471 102.615 -38.455  1.00  0.00     0.171 A
HETATM   19  O2  UNL     1      94.245 101.764 -39.112  1.00  0.00    -0.248 OA
HETATM   20  N7  UNL     1      93.652 101.432 -40.233  1.00  0.00    -0.245 N
ATOM     21  H7  UNL     1      94.034 100.788 -40.927  1.00  0.00     0.196 HD
ENDBRANCH  14  16
BRANCH  12  22
HETATM   22  C5  UNL     1      87.428  99.048 -43.061  1.00  0.00     0.149 C
BRANCH  22  23
HETATM   23  C6  UNL     1      86.958  99.159 -44.499  1.00  0.00     0.105 C
HETATM   24 BR2  UNL     1      86.880  97.429 -45.346  1.00  0.00    -0.095 Br
ENDBRANCH  22  23
ENDBRANCH  12  22
BRANCH  10  25
HETATM   25  C4  UNL     1      90.762  96.050 -44.198  1.00  0.00     0.289 C
HETATM   26  N4  UNL     1      90.848  95.527 -45.518  1.00  0.00    -0.055 NA
HETATM   27  O1  UNL     1      90.948  95.226 -43.241  1.00  0.00    -0.269 OA
ENDBRANCH  10  25
TORSDOF 4
ENDMDL