MODEL 1
REMARK VINA RESULT: -5.954979763      0.000      0.000
REMARK  4 active torsions:
REMARK  status: ('A' for Active; 'I' for Inactive)
REMARK       I    between atoms: C3_3  and  N1_5
REMARK    1  A    between atoms: N1_5  and  C4_7
REMARK    2  A    between atoms: C5_8  and  C6_10
REMARK    3  A    between atoms: C6_10  and  N3_14
REMARK    4  A    between atoms: N3_14  and  C7_16
ROOT
HETATM    1  C1  UNL     1      88.581  96.190 -47.101  1.00  0.00     0.022 C
HETATM    2  C2  UNL     1      89.237  95.489 -46.356  1.00  0.00    -0.016 C
HETATM    3  C3  UNL     1      90.029  94.672 -45.491  1.00  0.00     0.299 C
HETATM    4  O1  UNL     1      90.442  93.567 -45.886  1.00  0.00    -0.258 OA
HETATM    5  N1  UNL     1      90.316  95.187 -44.171  1.00  0.00    -0.325 N
ATOM      6  H1  UNL     1      89.952  96.101 -43.902  1.00  0.00     0.169 HD
ENDROOT
BRANCH   5   7
HETATM    7  C4  UNL     1      91.085  94.458 -43.255  1.00  0.00     0.115 C
HETATM    8  C5  UNL     1      91.444  94.832 -42.086  1.00  0.00     0.069 C
HETATM    9 BR1  UNL     1      92.519  93.501 -41.121  1.00  0.00    -0.046 Br
BRANCH   8  10
HETATM   10  C6  UNL     1      91.211  96.055 -41.352  1.00  0.00     0.114 C
HETATM   11  N2  UNL     1      91.646  96.136 -40.108  1.00  0.00    -0.385 N
ATOM     12  H22 UNL     1      92.117  95.298 -39.770  1.00  0.00     0.157 HD
ATOM     13  H21 UNL     1      91.482  97.000 -39.590  1.00  0.00     0.157 HD
BRANCH  10  14
HETATM   14  N3  UNL     1      90.558  97.217 -41.821  1.00  0.00    -0.370 N
ATOM     15  H3  UNL     1      89.609  97.385 -41.486  1.00  0.00     0.161 HD
BRANCH  14  16
HETATM   16  C7  UNL     1      91.109  98.172 -42.720  1.00  0.00     0.100 C
HETATM   17  C8  UNL     1      91.476  99.501 -42.142  1.00  0.00     0.052 C
HETATM   18  C9  UNL     1      91.578 100.426 -43.350  1.00  0.00     0.100 A
HETATM   19  N4  UNL     1      92.800 100.251 -44.104  1.00  0.00    -0.355 N
HETATM   20  C11 UNL     1      90.757  99.785 -44.443  1.00  0.00     0.117 A
HETATM   21  C10 UNL     1      92.042  99.731 -45.184  1.00  0.00     0.225 A
ATOM     22  H4  UNL     1      93.789 100.428 -43.931  1.00  0.00     0.162 HD
HETATM   23  O2  UNL     1      92.312  99.353 -46.349  1.00  0.00    -0.273 OA
HETATM   24  C12 UNL     1      90.263  98.452 -43.937  1.00  0.00     0.095 C
HETATM   25 BR2  UNL     1      88.389  98.465 -43.552  1.00  0.00    -0.088 Br
ENDBRANCH  14  16
ENDBRANCH  10  14
ENDBRANCH   8  10
ENDBRANCH   5   7
TORSDOF 4
ENDMDL