MODEL 5
REMARK VINA RESULT: -4.431962178      3.917      6.703
REMARK  5 active torsions:
REMARK  status: ('A' for Active; 'I' for Inactive)
REMARK       I    between atoms: N1_2  and  C2_4
REMARK       I    between atoms: C2_4  and  N2_6
REMARK       I    between atoms: N2_6  and  C3_7
REMARK       I    between atoms: C3_7  and  N4_9
REMARK    1  A    between atoms: C4_11  and  C5_12
REMARK    2  A    between atoms: C4_11  and  N5_14
REMARK    3  A    between atoms: N5_14  and  C6_16
REMARK    4  A    between atoms: N6_18  and  C7_20
REMARK    5  A    between atoms: C7_20  and  C8_21
ROOT
HETATM    1  C1  UNL     1      92.652 101.092 -46.684  1.00  0.00     0.152 C
HETATM    2  N1  UNL     1      92.274 100.744 -45.321  1.00  0.00    -0.335 N
ATOM      3  H1  UNL     1      92.157 101.478 -44.624  1.00  0.00     0.164 HD
HETATM    4  C2  UNL     1      92.065  99.368 -44.955  1.00  0.00     0.396 C
HETATM    5  O1  UNL     1      92.247  98.529 -45.928  1.00  0.00    -0.230 OA
HETATM    6  N2  UNL     1      91.708  99.020 -43.729  1.00  0.00    -0.319 NA
HETATM    7  C3  UNL     1      91.406  98.738 -42.634  1.00  0.00     0.273 C
HETATM    8  N3  UNL     1      90.724  97.461 -42.375  1.00  0.00    -0.049 NA
HETATM    9  N4  UNL     1      91.586  99.493 -41.412  1.00  0.00    -0.307 N
ATOM     10  H4  UNL     1      92.162  99.064 -40.688  1.00  0.00     0.171 HD
HETATM   11  C4  UNL     1      91.107 100.612 -41.157  1.00  0.00     0.096 C
ENDROOT
BRANCH  11  12
HETATM   12  C5  UNL     1      90.258 101.435 -42.034  1.00  0.00     0.161 C
HETATM   13 BR1  UNL     1      88.411 100.883 -42.046  1.00  0.00    -0.088 Br
ENDBRANCH  11  12
BRANCH  11  14
HETATM   14  N5  UNL     1      91.329 101.126 -39.798  1.00  0.00    -0.322 N
ATOM     15  H5  UNL     1      91.030 100.601 -38.976  1.00  0.00     0.169 HD
BRANCH  14  16
HETATM   16  C6  UNL     1      91.972 102.369 -39.677  1.00  0.00     0.173 C
HETATM   17  S1  UNL     1      93.618 102.378 -39.951  1.00  0.00    -0.041 SA
HETATM   18  N6  UNL     1      91.380 103.563 -39.383  1.00  0.00    -0.366 N
ATOM     19  H6  UNL     1      91.990 104.378 -39.319  1.00  0.00     0.161 HD
BRANCH  18  20
HETATM   20  C7  UNL     1      89.989 103.780 -39.156  1.00  0.00     0.133 C
BRANCH  20  21
HETATM   21  C8  UNL     1      89.755 104.593 -37.884  1.00  0.00     0.104 C
HETATM   22 BR2  UNL     1      90.145 103.610 -36.290  1.00  0.00    -0.095 Br
ENDBRANCH  20  21
ENDBRANCH  18  20
ENDBRANCH  14  16
ENDBRANCH  11  14
TORSDOF 5
ENDMDL