MODEL 1
REMARK VINA RESULT: -6.166311642      0.000      0.000
REMARK  10 active torsions:
REMARK  status: ('A' for Active; 'I' for Inactive)
REMARK    1  A    between atoms: N1_5  and  C4_6
REMARK    2  A    between atoms: C4_6  and  O1_7
REMARK    3  A    between atoms: N2_9  and  C5_11
REMARK    4  A    between atoms: C5_11  and  O2_12
REMARK    5  A    between atoms: C5_11  and  N3_14
REMARK    6  A    between atoms: C7_17  and  C8_18
REMARK    7  A    between atoms: C7_17  and  C11_28
REMARK    8  A    between atoms: C8_18  and  N4_19
REMARK    9  A    between atoms: N4_19  and  C9_21
REMARK   10  A    between atoms: C9_21  and  N5_23
ROOT
HETATM    1  C1  UNL     1      88.889  96.881 -45.335  1.00  0.00     0.017 C
HETATM    2  C2  UNL     1      89.877  97.411 -44.885  1.00  0.00    -0.048 C
HETATM    3  C3  UNL     1      91.090  98.036 -44.352  1.00  0.00     0.277 A
HETATM    4  F1  UNL     1      92.230  97.837 -45.118  1.00  0.00    -0.201 F
HETATM    5  N1  UNL     1      91.268  98.214 -42.936  1.00  0.00    -0.276 N
HETATM    6  C7  UNL     1      90.882  99.396 -43.729  1.00  0.00     0.150 A
ENDROOT
BRANCH   5   7
HETATM    7  C4  UNL     1      91.562  97.800 -41.622  1.00  0.00     0.227 C
HETATM    8  N2  UNL     1      91.512  96.553 -41.068  1.00  0.00    -0.288 N
ATOM      9  H2  UNL     1      91.801  96.588 -40.090  1.00  0.00     0.173 HD
BRANCH   7  10
HETATM   10  O1  UNL     1      91.940  98.792 -40.826  1.00  0.00    -0.332 OA
ATOM     11  H1  UNL     1      92.741  98.610 -40.349  1.00  0.00     0.220 HD
ENDBRANCH   7  10
BRANCH   8  12
HETATM   12  C5  UNL     1      91.190  95.258 -41.426  1.00  0.00     0.219 C
BRANCH  12  13
HETATM   13  O2  UNL     1      90.856  94.464 -40.421  1.00  0.00    -0.332 OA
ATOM     14  H2  UNL     1      91.584  94.131 -39.910  1.00  0.00     0.220 HD
ENDBRANCH  12  13
BRANCH  12  15
HETATM   15  N3  UNL     1      91.139  94.594 -42.645  1.00  0.00    -0.361 N
HETATM   16  C6  UNL     1      91.872  93.336 -42.850  1.00  0.00     0.150 C
ATOM     17  H3  UNL     1      90.587  94.985 -43.408  1.00  0.00     0.162 HD
ENDBRANCH  12  15
ENDBRANCH   8  12
ENDBRANCH   5   7
BRANCH   6  18
HETATM   18  C8  UNL     1      91.926 100.393 -44.041  1.00  0.00     0.165 C
BRANCH  18  19
HETATM   19  N4  UNL     1      92.705 100.876 -42.945  1.00  0.00    -0.364 N
ATOM     20  H4  UNL     1      93.638 100.506 -42.766  1.00  0.00     0.162 HD
BRANCH  19  21
HETATM   21  C9  UNL     1      92.148 101.887 -42.106  1.00  0.00     0.173 C
HETATM   22  S1  UNL     1      91.257 103.134 -42.660  1.00  0.00    -0.041 SA
BRANCH  21  23
HETATM   23  N5  UNL     1      92.393 101.785 -40.684  1.00  0.00    -0.310 N
HETATM   24  C10 UNL     1      93.542 102.109 -40.227  1.00  0.00     0.203 C
HETATM   25  N6  UNL     1      94.546 102.563 -41.101  1.00  0.00    -0.066 NA
HETATM   26  N7  UNL     1      93.794 102.018 -38.843  1.00  0.00    -0.066 NA
ATOM     27  H5  UNL     1      91.660 101.458 -40.055  1.00  0.00     0.170 HD
ENDBRANCH  21  23
ENDBRANCH  19  21
ENDBRANCH  18  19
ENDBRANCH   6  18
BRANCH   6  28
HETATM   28  C11 UNL     1      89.464  99.852 -43.575  1.00  0.00    -0.022 A
HETATM   29  C12 UNL     1      88.746  99.581 -42.444  1.00  0.00     0.013 A
HETATM   30  C13 UNL     1      87.424 100.010 -42.274  1.00  0.00     0.043 A
HETATM   31  C14 UNL     1      86.840 100.732 -43.296  1.00  0.00     0.116 A
HETATM   32  F2  UNL     1      85.548 101.158 -43.136  1.00  0.00    -0.206 F
HETATM   33  C15 UNL     1      87.547 101.012 -44.441  1.00  0.00     0.043 A
HETATM   34  C16 UNL     1      88.848 100.583 -44.595  1.00  0.00     0.013 A
ENDBRANCH   6  28
TORSDOF 10
ENDMDL