MODEL 4
REMARK VINA RESULT: -5.387859533      1.942      2.501
REMARK  4 active torsions:
REMARK  status: ('A' for Active; 'I' for Inactive)
REMARK    1  A    between atoms: C2_2  and  N1_3
REMARK       I    between atoms: N1_3  and  C3_5
REMARK       I    between atoms: C3_5  and  N3_9
REMARK       I    between atoms: C4_11  and  N4_12
REMARK       I    between atoms: C4_11  and  N6_21
REMARK    2  A    between atoms: N6_21  and  C8_23
REMARK    3  A    between atoms: C8_23  and  C9_24
REMARK    4  A    between atoms: C9_24  and  C10_26
ROOT
HETATM    1  N1  UNL     1      92.629 100.272 -44.063  1.00  0.00    -0.203 N
ATOM      2  H1  UNL     1      93.493  99.916 -44.471  1.00  0.00     0.183 HD
HETATM    3  C3  UNL     1      92.067  99.612 -42.936  1.00  0.00     0.690 C
HETATM    4  N2  UNL     1      92.009 100.236 -41.808  1.00  0.00    -0.234 N
ATOM      5  H21 UNL     1      91.606  99.762 -40.999  1.00  0.00     0.174 HD
ATOM      6  H22 UNL     1      92.352 101.192 -41.717  1.00  0.00     0.174 HD
HETATM    7  N3  UNL     1      91.607  98.329 -43.057  1.00  0.00    -0.023 N
ATOM      8  H3  UNL     1      92.399  97.686 -43.051  1.00  0.00     0.203 HD
HETATM    9  C4  UNL     1      90.576  97.694 -43.171  1.00  0.00     0.693 C
HETATM   10  N4  UNL     1      90.687  96.248 -43.267  1.00  0.00    -0.180 N
ATOM     11  H4  UNL     1      90.407  95.757 -44.117  1.00  0.00     0.184 HD
HETATM   12  C5  UNL     1      91.152  95.597 -42.242  1.00  0.00     0.184 A
HETATM   13  C6  UNL     1      91.418  94.292 -41.902  1.00  0.00     0.281 A
HETATM   14  O1  UNL     1      91.294  93.202 -42.508  1.00  0.00    -0.265 OA
HETATM   15  N5  UNL     1      91.851  94.624 -40.698  1.00  0.00    -0.286 N
ATOM     16  H5  UNL     1      92.216  94.116 -39.892  1.00  0.00     0.172 HD
HETATM   17  C7  UNL     1      91.608  95.923 -40.984  1.00  0.00     0.281 A
HETATM   18  O2  UNL     1      91.743  97.011 -40.349  1.00  0.00    -0.265 OA
HETATM   19  N6  UNL     1      89.264  98.182 -43.219  1.00  0.00    -0.224 N
ATOM     20  H6  UNL     1      88.666  97.795 -43.949  1.00  0.00     0.177 HD
ENDROOT
BRANCH  19  21
HETATM   21  C8  UNL     1      88.663  99.165 -42.360  1.00  0.00     0.154 C
BRANCH  21  22
HETATM   22  C9  UNL     1      87.186  99.345 -42.648  1.00  0.00     0.086 C
HETATM   23 BR1  UNL     1      86.927 101.219 -43.143  1.00  0.00    -0.089 Br
BRANCH  22  24
HETATM   24  C10 UNL     1      86.716  98.544 -43.840  1.00  0.00     0.102 C
HETATM   25 BR2  UNL     1      84.983  97.782 -43.603  1.00  0.00    -0.095 Br
ENDBRANCH  22  24
ENDBRANCH  21  22
ENDBRANCH  19  21
BRANCH   1  26
HETATM   26  C2  UNL     1      92.015 101.408 -44.625  1.00  0.00     0.096 C
HETATM   27  C1  UNL     1      90.755 101.391 -45.016  1.00  0.00     0.030 C
ENDBRANCH   1  26
TORSDOF 4
ENDMDL