MODEL 2
REMARK VINA RESULT: -5.365631025      3.552      7.358
REMARK  6 active torsions:
REMARK  status: ('A' for Active; 'I' for Inactive)
REMARK    1  A    between atoms: C2_2  and  N1_5
REMARK       I    between atoms: N1_5  and  C5_7
REMARK       I    between atoms: C5_7  and  N4_20
REMARK       I    between atoms: N2_8  and  C6_10
REMARK    2  A    between atoms: C6_10  and  C7_12
REMARK       I    between atoms: C7_12  and  N3_14
REMARK    3  A    between atoms: N3_14  and  C8_16
REMARK    4  A    between atoms: N4_20  and  C10_22
REMARK    5  A    between atoms: C10_22  and  C11_23
REMARK    6  A    between atoms: C11_23  and  N5_24
ROOT
HETATM    1  N1  UNL     1      92.611  93.181 -43.271  1.00  0.00    -0.218 N
ATOM      2  H1  UNL     1      93.482  92.723 -43.540  1.00  0.00     0.178 HD
HETATM    3  C5  UNL     1      91.771  93.759 -44.275  1.00  0.00     0.677 C
HETATM    4  N2  UNL     1      91.130  94.811 -43.914  1.00  0.00    -0.152 N
ATOM      5  H2  UNL     1      91.243  95.174 -42.967  1.00  0.00     0.188 HD
HETATM    6  C6  UNL     1      90.275  95.465 -44.818  1.00  0.00     0.328 C
HETATM    7  O1  UNL     1      89.859  94.843 -45.820  1.00  0.00    -0.261 OA
HETATM    8  N4  UNL     1      91.686  93.173 -45.572  1.00  0.00    -0.225 N
ATOM      9  H4  UNL     1      92.071  93.648 -46.388  1.00  0.00     0.177 HD
ENDROOT
BRANCH   1  10
HETATM   10  C2  UNL     1      92.236  93.242 -41.887  1.00  0.00     0.036 C
HETATM   11  C1  UNL     1      91.232  94.313 -41.571  1.00  0.00     0.038 C
HETATM   12  C3  UNL     1      93.501  93.570 -41.081  1.00  0.00     0.038 C
HETATM   13  C4  UNL     1      91.727  91.862 -41.518  1.00  0.00     0.038 C
ENDBRANCH   1  10
BRANCH   8  14
HETATM   14  C10 UNL     1      91.042  91.892 -45.697  1.00  0.00     0.165 C
BRANCH  14  15
HETATM   15  C11 UNL     1      91.197  91.251 -47.045  1.00  0.00     0.249 C
BRANCH  15  16
HETATM   16  N5  UNL     1      92.431  90.546 -47.207  1.00  0.00    -0.078 N
ATOM     17  H53 UNL     1      93.184  91.190 -47.451  1.00  0.00     0.274 HD
ATOM     18  H52 UNL     1      92.776  90.212 -46.308  1.00  0.00     0.274 HD
ATOM     19  H51 UNL     1      92.380  89.781 -47.880  1.00  0.00     0.274 HD
ENDBRANCH  15  16
ENDBRANCH  14  15
ENDBRANCH   8  14
BRANCH   6  20
HETATM   20  C7  UNL     1      89.849  96.866 -44.617  1.00  0.00     0.315 C
HETATM   21  O2  UNL     1      89.045  97.440 -45.388  1.00  0.00    -0.262 OA
HETATM   22  N3  UNL     1      90.388  97.573 -43.500  1.00  0.00    -0.312 N
ATOM     23  H3  UNL     1      91.042  97.112 -42.867  1.00  0.00     0.170 HD
BRANCH  22  24
HETATM   24  C8  UNL     1      90.005  98.929 -43.273  1.00  0.00     0.089 C
HETATM   25 BR1  UNL     1      88.371  99.267 -42.383  1.00  0.00    -0.031 Br
HETATM   26  C9  UNL     1      90.771  99.918 -43.675  1.00  0.00     0.093 C
HETATM   27 BR2  UNL     1      92.402  99.515 -44.564  1.00  0.00    -0.061 Br
ENDBRANCH  22  24
ENDBRANCH   6  20
TORSDOF 6
ENDMDL