MODEL 3
REMARK VINA RESULT: -5.272234013      3.476      5.739
REMARK  4 active torsions:
REMARK  status: ('A' for Active; 'I' for Inactive)
REMARK    1  A    between atoms: C2_2  and  N1_5
REMARK       I    between atoms: C4_7  and  N3_9
REMARK       I    between atoms: C5_11  and  N5_13
REMARK    2  A    between atoms: N5_13  and  C8_16
REMARK    3  A    between atoms: C8_16  and  C9_17
REMARK       I    between atoms: C9_17  and  N6_19
REMARK    4  A    between atoms: N6_19  and  C10_21
REMARK       I    between atoms: N7_23  and  C11_25
ROOT
HETATM    1  N1  UNL     1      85.879  99.424 -44.681  1.00  0.00    -0.343 N
ATOM      2  H1  UNL     1      85.678 100.361 -44.332  1.00  0.00     0.164 HD
HETATM    3  C4  UNL     1      87.095  99.048 -44.781  1.00  0.00     0.192 C
HETATM    4  N2  UNL     1      87.409  97.756 -45.259  1.00  0.00    -0.063 NA
HETATM    5  N3  UNL     1      88.192  99.886 -44.423  1.00  0.00    -0.298 N
ATOM      6  H3  UNL     1      88.707 100.361 -45.165  1.00  0.00     0.171 HD
HETATM    7  C5  UNL     1      88.559 100.067 -43.204  1.00  0.00     0.295 C
HETATM    8  N4  UNL     1      87.830  99.397 -42.187  1.00  0.00    -0.057 NA
HETATM    9  N5  UNL     1      89.666 100.922 -42.942  1.00  0.00    -0.008 N
HETATM   10  C6  UNL     1      89.117 102.117 -42.286  1.00  0.00     0.283 C
HETATM   11  C7  UNL     1      90.284 101.349 -44.156  1.00  0.00     0.283 C
ENDROOT
BRANCH   9  12
HETATM   12  C8  UNL     1      90.584 100.338 -41.998  1.00  0.00     0.348 C
BRANCH  12  13
HETATM   13  C9  UNL     1      91.078  99.010 -42.411  1.00  0.00     0.250 C
HETATM   14  O1  UNL     1      91.980  98.842 -43.269  1.00  0.00    -0.271 OA
HETATM   15  N6  UNL     1      90.511  97.863 -41.812  1.00  0.00    -0.305 N
ATOM     16  H6  UNL     1      89.780  98.008 -41.116  1.00  0.00     0.171 HD
BRANCH  15  17
HETATM   17  C10 UNL     1      90.882  96.523 -42.105  1.00  0.00     0.159 C
HETATM   18 BR1  UNL     1      90.711  95.918 -43.902  1.00  0.00    -0.010 Br
HETATM   19  N7  UNL     1      91.322  95.741 -41.163  1.00  0.00    -0.291 N
HETATM   20  C11 UNL     1      91.675  94.425 -41.502  1.00  0.00     0.334 C
ATOM     21  H7  UNL     1      91.409  96.075 -40.203  1.00  0.00     0.172 HD
HETATM   22  N8  UNL     1      90.845  93.637 -42.346  1.00  0.00    -0.040 NA
HETATM   23  O2  UNL     1      92.730  93.930 -41.062  1.00  0.00    -0.251 OA
ENDBRANCH  15  17
ENDBRANCH  12  13
ENDBRANCH   9  12
BRANCH   1  24
HETATM   24  C2  UNL     1      84.787  98.573 -45.042  1.00  0.00     0.102 C
HETATM   25  C1  UNL     1      83.485  99.265 -44.667  1.00  0.00     0.056 C
HETATM   26  C3  UNL     1      84.722  98.278 -46.527  1.00  0.00     0.056 C
HETATM   27 CL1  UNL     1      84.804  97.012 -44.191  1.00  0.00    -0.096 Cl
ENDBRANCH   1  24
TORSDOF 4
ENDMDL