MODEL 5
REMARK VINA RESULT: -5.339585117      2.477      3.677
REMARK  5 active torsions:
REMARK  status: ('A' for Active; 'I' for Inactive)
REMARK    1  A    between atoms: C3_3  and  C4_4
REMARK    2  A    between atoms: C5_5  and  C6_6
REMARK    3  A    between atoms: C6_6  and  C7_7
REMARK    4  A    between atoms: C7_7  and  N1_8
REMARK       I    between atoms: N1_8  and  C8_10
REMARK       I    between atoms: C8_10  and  N3_14
REMARK    5  A    between atoms: N3_14  and  C9_16
ROOT
HETATM    1  C1  UNL     1      90.331  90.061 -49.243  1.00  0.00     0.113 C
HETATM    2  C2  UNL     1      90.615  90.811 -48.011  1.00  0.00    -0.097 C
HETATM    3  C3  UNL     1      90.862  91.436 -47.004  1.00  0.00    -0.015 C
ENDROOT
BRANCH   3   4
HETATM    4  C4  UNL     1      91.146  92.193 -45.833  1.00  0.00    -0.015 C
HETATM    5  C5  UNL     1      91.402  92.841 -44.850  1.00  0.00    -0.091 C
BRANCH   5   6
HETATM    6  C6  UNL     1      91.740  93.634 -43.641  1.00  0.00     0.115 C
BRANCH   6   7
HETATM    7  C7  UNL     1      90.773  94.776 -43.589  1.00  0.00     0.150 C
BRANCH   7   8
HETATM    8  N1  UNL     1      90.996  95.589 -44.773  1.00  0.00    -0.226 N
HETATM    9  C8  UNL     1      89.868  96.142 -45.436  1.00  0.00     0.668 C
HETATM   10  N2  UNL     1      89.276  95.539 -46.394  1.00  0.00    -0.235 N
HETATM   11  N3  UNL     1      89.425  97.411 -44.970  1.00  0.00    -0.211 N
ATOM     12  H22 UNL     1      89.594  94.629 -46.728  1.00  0.00     0.174 HD
ATOM     13  H21 UNL     1      88.466  95.937 -46.870  1.00  0.00     0.174 HD
ATOM     14  H3  UNL     1      88.447  97.518 -44.700  1.00  0.00     0.178 HD
ATOM     15  H1  UNL     1      91.940  95.758 -45.120  1.00  0.00     0.177 HD
BRANCH  11  16
HETATM   16  C9  UNL     1      90.289  98.537 -44.865  1.00  0.00     0.223 C
HETATM   17  C10 UNL     1      90.238  99.017 -43.434  1.00  0.00     0.245 C
HETATM   18  O1  UNL     1      91.101  98.893 -42.537  1.00  0.00    -0.271 OA
HETATM   19  N4  UNL     1      88.978  99.656 -43.299  1.00  0.00    -0.352 N
HETATM   20  C11 UNL     1      88.369  99.972 -42.015  1.00  0.00     0.152 C
HETATM   21  C12 UNL     1      88.424  99.929 -44.627  1.00  0.00     0.160 C
HETATM   22  C13 UNL     1      89.647  99.746 -45.526  1.00  0.00     0.121 C
HETATM   23 BR1  UNL     1      90.783 101.308 -45.278  1.00  0.00    -0.068 Br
HETATM   24 BR2  UNL     1      89.217  99.504 -47.361  1.00  0.00    -0.068 Br
ENDBRANCH  11  16
ENDBRANCH   7   8
ENDBRANCH   6   7
ENDBRANCH   5   6
ENDBRANCH   3   4
TORSDOF 5
ENDMDL