MODEL 4
REMARK VINA RESULT: -7.328757089      1.333      1.731
REMARK  6 active torsions:
REMARK  status: ('A' for Active; 'I' for Inactive)
REMARK       I    between atoms: C1_4  and  N2_5
REMARK       I    between atoms: C1_4  and  N3_8
REMARK    1  A    between atoms: N2_5  and  C2_6
REMARK    2  A    between atoms: N3_8  and  C3_10
REMARK    3  A    between atoms: C3_10  and  C4_11
REMARK    4  A    between atoms: C4_11  and  N4_12
REMARK       I    between atoms: N4_12  and  C5_14
REMARK    5  A    between atoms: C5_14  and  C6_16
REMARK    6  A    between atoms: C9_19  and  N5_20
ROOT
HETATM    1  N4  UNL     1      27.720  50.605 251.643  1.00  0.00    -0.334 N
ATOM      2  H4  UNL     1      28.566  50.046 251.528  1.00  0.00     0.168 HD
HETATM    3  C5  UNL     1      27.536  51.272 252.888  1.00  0.00     0.271 C
HETATM    4  O2  UNL     1      26.538  51.995 253.085  1.00  0.00    -0.266 OA
ENDROOT
BRANCH   1   5
HETATM    5  C4  UNL     1      26.835  50.657 250.575  1.00  0.00     0.084 C
BRANCH   5   6
HETATM    6  C3  UNL     1      26.830  51.969 249.812  1.00  0.00     0.168 C
BRANCH   6   7
HETATM    7  N3  UNL     1      27.346  51.702 248.517  1.00  0.00    -0.346 N
HETATM    8  C1  UNL     1      28.319  52.454 247.824  1.00  0.00     0.251 C
HETATM    9  N1  UNL     1      29.167  53.145 248.519  1.00  0.00    -0.360 N
HETATM   10  N2  UNL     1      28.403  52.411 246.489  1.00  0.00    -0.344 NA
ATOM     11  H12 UNL     1      29.870  53.689 248.017  1.00  0.00     0.160 HD
ATOM     12  H11 UNL     1      29.103  53.178 249.536  1.00  0.00     0.160 HD
ATOM     13  H3  UNL     1      26.976  50.881 248.038  1.00  0.00     0.164 HD
BRANCH  10  14
HETATM   14  C2  UNL     1      28.489  52.365 245.098  1.00  0.00     0.445 C
HETATM   15  O1  UNL     1      29.470  52.798 244.376  1.00  0.00    -0.268 OA
ENDBRANCH  10  14
ENDBRANCH   6   7
ENDBRANCH   5   6
ENDBRANCH   1   5
BRANCH   3  16
HETATM   16  C6  UNL     1      28.557  51.064 253.911  1.00  0.00     0.101 A
HETATM   17  C7  UNL     1      29.501  51.974 254.274  1.00  0.00     0.038 A
HETATM   18  C8  UNL     1      30.409  51.763 255.299  1.00  0.00     0.040 A
HETATM   19  C9  UNL     1      30.349  50.570 255.982  1.00  0.00     0.118 A
HETATM   20  C10 UNL     1      29.386  49.626 255.604  1.00  0.00     0.124 A
HETATM   21  N6  UNL     1      28.558  49.912 254.614  1.00  0.00    -0.359 N
ATOM     22  H6  UNL     1      27.866  49.206 254.361  1.00  0.00     0.165 HD
BRANCH  19  23
HETATM   23  N5  UNL     1      31.253  50.261 257.038  1.00  0.00    -0.114 N
HETATM   24  O3  UNL     1      31.791  51.187 257.678  1.00  0.00    -0.532 OA
HETATM   25  O4  UNL     1      31.563  48.976 257.320  1.00  0.00    -0.532 OA
ENDBRANCH  19  23
ENDBRANCH   3  16
TORSDOF 6
ENDMDL