MODEL 5
REMARK VINA RESULT: -6.418144643      2.490      6.821
REMARK  8 active torsions:
REMARK  status: ('A' for Active; 'I' for Inactive)
REMARK    1  A    between atoms: C2_2  and  C3_3
REMARK    2  A    between atoms: C3_3  and  O1_4
REMARK    3  A    between atoms: O1_4  and  C4_5
REMARK       I    between atoms: N2_12  and  C9_14
REMARK       I    between atoms: C9_14  and  N3_16
REMARK    4  A    between atoms: N3_16  and  C10_18
REMARK    5  A    between atoms: C10_18  and  C11_19
REMARK    6  A    between atoms: C10_18  and  C12_21
REMARK    7  A    between atoms: C12_21  and  N4_22
REMARK    8  A    between atoms: C12_21  and  O4_26
ROOT
HETATM    1  C4  UNL     1      28.945  53.910 252.109  1.00  0.00     0.113 A
HETATM    2  C5  UNL     1      28.793  53.444 253.408  1.00  0.00     0.042 A
HETATM    3  C6  UNL     1      28.349  52.128 253.568  1.00  0.00     0.020 A
HETATM    4  C7  UNL     1      28.086  51.360 252.457  1.00  0.00     0.090 A
HETATM    5  N1  UNL     1      28.244  51.846 251.207  1.00  0.00    -0.350 N
ATOM      6  H1  UNL     1      28.040  51.253 250.402  1.00  0.00     0.166 HD
HETATM    7  C8  UNL     1      28.672  53.114 251.017  1.00  0.00     0.143 A
HETATM    8  N2  UNL     1      28.829  53.593 249.842  1.00  0.00    -0.292 N
ATOM      9  H2  UNL     1      29.154  54.557 249.766  1.00  0.00     0.172 HD
HETATM   10  C9  UNL     1      28.589  52.895 248.648  1.00  0.00     0.322 C
HETATM   11  O2  UNL     1      27.492  53.000 248.062  1.00  0.00    -0.247 OA
HETATM   12  N3  UNL     1      29.605  52.069 248.116  1.00  0.00    -0.328 N
ATOM     13  H3  UNL     1      30.492  52.002 248.616  1.00  0.00     0.165 HD
ENDROOT
BRANCH  12  14
HETATM   14  C10 UNL     1      29.440  51.309 246.883  1.00  0.00     0.203 C
BRANCH  14  15
HETATM   15  C11 UNL     1      28.591  50.128 247.128  1.00  0.00     0.260 C
HETATM   16  O3  UNL     1      28.669  49.500 248.170  1.00  0.00    -0.304 OA
ENDBRANCH  14  15
BRANCH  14  17
HETATM   17  C12 UNL     1      28.838  52.248 245.858  1.00  0.00     0.346 C
BRANCH  17  18
HETATM   18  N4  UNL     1      29.685  52.490 244.745  1.00  0.00    -0.051 N
ATOM     19  H43 UNL     1      30.374  51.744 244.646  1.00  0.00     0.277 HD
ATOM     20  H42 UNL     1      29.175  52.367 243.869  1.00  0.00     0.277 HD
ATOM     21  H41 UNL     1      30.142  53.402 244.771  1.00  0.00     0.277 HD
ENDBRANCH  17  18
BRANCH  17  22
HETATM   22  O4  UNL     1      27.617  51.772 245.384  1.00  0.00    -0.368 OA
ATOM     23  H4  UNL     1      27.526  51.917 244.450  1.00  0.00     0.212 HD
ENDBRANCH  17  22
ENDBRANCH  14  17
ENDBRANCH  12  14
BRANCH   1  24
HETATM   24  O1  UNL     1      29.382  55.206 251.882  1.00  0.00    -0.344 OA
BRANCH  24  25
HETATM   25  C3  UNL     1      30.078  55.909 252.921  1.00  0.00     0.202 C
BRANCH  25  26
HETATM   26  C2  UNL     1      31.503  56.107 252.554  1.00  0.00    -0.011 C
HETATM   27  C1  UNL     1      31.936  57.293 252.168  1.00  0.00     0.009 C
ENDBRANCH  25  26
ENDBRANCH  24  25
ENDBRANCH   1  24
TORSDOF 8
ENDMDL