MODEL 4
REMARK VINA RESULT: -7.018542737      2.017      3.161
REMARK  6 active torsions:
REMARK  status: ('A' for Active; 'I' for Inactive)
REMARK    1  A    between atoms: O1_2  and  C2_3
REMARK    2  A    between atoms: C5_6  and  S1_7
REMARK    3  A    between atoms: S1_7  and  N1_10
REMARK    4  A    between atoms: N1_10  and  C6_12
REMARK    5  A    between atoms: C6_12  and  C7_13
REMARK    6  A    between atoms: C7_13  and  N2_14
REMARK       I    between atoms: N2_14  and  C8_16
REMARK       I    between atoms: C8_16  and  N3_17
REMARK       I    between atoms: C8_16  and  N4_21
ROOT
HETATM    1  N1  UNL     1      27.742  50.557 251.722  1.00  0.00    -0.311 N
ATOM      2  H1  UNL     1      28.368  49.759 251.625  1.00  0.00     0.172 HD
ENDROOT
BRANCH   1   3
HETATM    3  S1  UNL     1      26.589  51.064 250.536  1.00  0.00     0.259 S
HETATM    4  O2  UNL     1      25.450  50.118 250.391  1.00  0.00    -0.201 OA
HETATM    5  O3  UNL     1      26.027  52.395 250.933  1.00  0.00    -0.201 OA
BRANCH   3   6
HETATM    6  C5  UNL     1      27.419  51.233 249.034  1.00  0.00     0.079 A
HETATM    7  C4  UNL     1      28.066  50.154 248.491  1.00  0.00     0.028 A
HETATM    8  C3  UNL     1      28.740  50.271 247.283  1.00  0.00     0.038 A
HETATM    9  C2  UNL     1      28.765  51.461 246.621  1.00  0.00     0.068 A
HETATM   10  C10 UNL     1      28.104  52.538 247.189  1.00  0.00     0.038 A
HETATM   11  C9  UNL     1      27.428  52.442 248.390  1.00  0.00     0.028 A
BRANCH   9  12
HETATM   12  O1  UNL     1      29.439  51.618 245.393  1.00  0.00    -0.356 OA
HETATM   13  C1  UNL     1      29.025  52.713 244.577  1.00  0.00     0.210 C
ENDBRANCH   9  12
ENDBRANCH   3   6
ENDBRANCH   1   3
BRANCH   1  14
HETATM   14  C6  UNL     1      27.686  51.446 252.889  1.00  0.00     0.176 C
BRANCH  14  15
HETATM   15  C7  UNL     1      28.917  52.269 252.891  1.00  0.00     0.079 C
BRANCH  15  16
HETATM   16  N2  UNL     1      29.201  53.047 251.751  1.00  0.00    -0.353 N
HETATM   17  C8  UNL     1      28.826  54.409 251.786  1.00  0.00     0.479 C
HETATM   18  N3  UNL     1      29.616  55.151 252.709  1.00  0.00    -0.033 N
HETATM   19  N4  UNL     1      28.949  54.921 250.421  1.00  0.00    -0.033 N
ATOM     20  H33 UNL     1      29.590  54.734 253.640  1.00  0.00     0.278 HD
ATOM     21  H32 UNL     1      30.612  55.045 252.515  1.00  0.00     0.278 HD
ATOM     22  H31 UNL     1      29.344  56.134 252.734  1.00  0.00     0.278 HD
ATOM     23  H43 UNL     1      29.874  54.770 250.018  1.00  0.00     0.278 HD
ATOM     24  H42 UNL     1      28.419  54.377 249.740  1.00  0.00     0.278 HD
ATOM     25  H41 UNL     1      28.677  55.904 250.447  1.00  0.00     0.278 HD
ATOM     26  H2  UNL     1      29.658  52.644 250.934  1.00  0.00     0.162 HD
ENDBRANCH  15  16
ENDBRANCH  14  15
ENDBRANCH   1  14
TORSDOF 6
ENDMDL