MODEL 1
REMARK VINA RESULT: -6.280951571      0.000      0.000
REMARK  8 active torsions:
REMARK  status: ('A' for Active; 'I' for Inactive)
REMARK    1  A    between atoms: C1_4  and  C2_5
REMARK    2  A    between atoms: C2_5  and  C3_6
REMARK    3  A    between atoms: C3_6  and  N2_7
REMARK    4  A    between atoms: C3_6  and  C4_11
REMARK    5  A    between atoms: C6_13  and  C7_14
REMARK    6  A    between atoms: C7_14  and  N3_15
REMARK    7  A    between atoms: N3_15  and  C8_17
REMARK    8  A    between atoms: C9_21  and  C10_22
ROOT
HETATM    1  C4  UNL     1      28.419  52.987 251.747  1.00  0.00    -0.025 A
HETATM    2  C5  UNL     1      28.582  52.309 250.594  1.00  0.00     0.033 A
HETATM    3  C6  UNL     1      28.113  50.946 250.701  1.00  0.00     0.024 A
HETATM    4  N4  UNL     1      27.671  50.814 251.927  1.00  0.00    -0.383 N
ATOM      5  H4  UNL     1      27.273  49.955 252.308  1.00  0.00     0.160 HD
HETATM    6  C9  UNL     1      27.823  52.045 252.666  1.00  0.00     0.120 A
ENDROOT
BRANCH   1   7
HETATM    7  C3  UNL     1      28.834  54.405 251.848  1.00  0.00     0.219 C
BRANCH   7   8
HETATM    8  C2  UNL     1      30.143  54.622 252.499  1.00  0.00     0.081 C
BRANCH   8   9
HETATM    9  C1  UNL     1      30.385  56.120 252.448  1.00  0.00     0.055 C
HETATM   10  N1  UNL     1      31.486  56.631 252.094  1.00  0.00    -0.411 N
ATOM     11  H12 UNL     1      32.238  55.992 251.833  1.00  0.00     0.155 HD
ATOM     12  H11 UNL     1      31.648  57.637 252.059  1.00  0.00     0.155 HD
ENDBRANCH   8   9
ENDBRANCH   7   8
BRANCH   7  13
HETATM   13  N2  UNL     1      28.794  55.057 250.546  1.00  0.00    -0.071 N
ATOM     14  H23 UNL     1      29.710  55.414 250.273  1.00  0.00     0.275 HD
ATOM     15  H22 UNL     1      28.661  54.385 249.789  1.00  0.00     0.275 HD
ATOM     16  H21 UNL     1      28.083  55.788 250.532  1.00  0.00     0.275 HD
ENDBRANCH   7  13
ENDBRANCH   1   7
BRANCH   6  17
HETATM   17  C10 UNL     1      28.527  51.753 253.952  1.00  0.00     0.048 C
HETATM   18  C11 UNL     1      27.807  52.641 255.004  1.00  0.00     0.129 C
HETATM   19  N5  UNL     1      28.680  52.670 256.166  1.00  0.00    -0.386 N
HETATM   20  C12 UNL     1      29.057  51.501 256.599  1.00  0.00     0.171 C
ATOM     21  H5  UNL     1      28.975  53.539 256.609  1.00  0.00     0.160 HD
HETATM   22  N6  UNL     1      28.582  50.368 255.902  1.00  0.00    -0.386 N
HETATM   23  C13 UNL     1      28.379  50.355 254.457  1.00  0.00     0.129 C
ATOM     24  H6  UNL     1      28.373  49.522 256.431  1.00  0.00     0.160 HD
ENDBRANCH   6  17
BRANCH   3  25
HETATM   25  C7  UNL     1      28.075  49.842 249.680  1.00  0.00     0.178 C
BRANCH  25  26
HETATM   26  N3  UNL     1      27.651  50.238 248.381  1.00  0.00    -0.363 N
ATOM     27  H3  UNL     1      26.641  50.300 248.249  1.00  0.00     0.162 HD
BRANCH  26  28
HETATM   28  C8  UNL     1      28.431  50.555 247.255  1.00  0.00     0.348 C
HETATM   29  O1  UNL     1      28.021  51.175 246.259  1.00  0.00    -0.284 OA
ENDBRANCH  26  28
ENDBRANCH  25  26
ENDBRANCH   3  25
TORSDOF 8
ENDMDL