MODEL 1
REMARK VINA RESULT: -6.975217717      0.000      0.000
REMARK  11 active torsions:
REMARK  status: ('A' for Active; 'I' for Inactive)
REMARK    1  A    between atoms: C1_4  and  O1_6
REMARK    2  A    between atoms: O1_6  and  N3_7
REMARK    3  A    between atoms: C2_9  and  O2_11
REMARK    4  A    between atoms: O2_11  and  C3_12
REMARK    5  A    between atoms: C3_12  and  C4_13
REMARK    6  A    between atoms: C4_13  and  O3_14
REMARK    7  A    between atoms: C4_13  and  C5_16
REMARK    8  A    between atoms: C5_16  and  O4_17
REMARK    9  A    between atoms: O4_17  and  C6_18
REMARK   10  A    between atoms: C6_18  and  C7_19
REMARK   11  A    between atoms: C7_19  and  N5_20
ROOT
HETATM    1  C4  UNL     1      26.403  50.712 250.026  1.00  0.00     0.166 C
ENDROOT
BRANCH   1   2
HETATM    2  C3  UNL     1      27.852  50.214 249.944  1.00  0.00     0.212 C
BRANCH   2   3
HETATM    3  O2  UNL     1      28.651  51.380 249.852  1.00  0.00    -0.321 OA
BRANCH   3   4
HETATM    4  C2  UNL     1      29.367  51.541 248.672  1.00  0.00     0.252 C
HETATM    5  N3  UNL     1      29.069  52.580 247.972  1.00  0.00    -0.224 N
ATOM      6  H3  UNL     1      28.349  53.230 248.284  1.00  0.00     0.198 HD
HETATM    7  N4  UNL     1      30.372  50.632 248.237  1.00  0.00    -0.054 NA
BRANCH   5   8
HETATM    8  O1  UNL     1      29.744  52.792 246.795  1.00  0.00    -0.202 OA
BRANCH   8   9
HETATM    9  C1  UNL     1      29.075  52.505 245.612  1.00  0.00     0.249 C
HETATM   10  N1  UNL     1      29.644  52.806 244.496  1.00  0.00    -0.366 N
ATOM     11  H12 UNL     1      29.153  52.596 243.627  1.00  0.00     0.159 HD
ATOM     12  H11 UNL     1      30.565  53.245 244.520  1.00  0.00     0.159 HD
HETATM   13  N2  UNL     1      27.792  51.893 245.577  1.00  0.00    -0.055 NA
ENDBRANCH   8   9
ENDBRANCH   5   8
ENDBRANCH   3   4
ENDBRANCH   2   3
ENDBRANCH   1   2
BRANCH   1  14
HETATM   14  O3  UNL     1      25.608  49.735 250.579  1.00  0.00    -0.391 OA
ATOM     15  H3  UNL     1      24.901  50.137 251.071  1.00  0.00     0.210 HD
ENDBRANCH   1  14
BRANCH   1  16
HETATM   16  C5  UNL     1      26.365  52.037 250.780  1.00  0.00     0.201 C
BRANCH  16  17
HETATM   17  O4  UNL     1      26.060  52.010 252.048  1.00  0.00    -0.387 OA
BRANCH  17  18
HETATM   18  C6  UNL     1      26.797  51.851 253.119  1.00  0.00     0.187 C
BRANCH  18  19
HETATM   19  C7  UNL     1      28.183  52.306 253.290  1.00  0.00     0.154 C
BRANCH  19  20
HETATM   20  N5  UNL     1      29.059  51.668 254.210  1.00  0.00    -0.364 N
HETATM   21  C8  UNL     1      28.759  50.461 254.776  1.00  0.00     0.090 A
HETATM   22  C9  UNL     1      29.616  49.802 255.615  1.00  0.00     0.017 A
HETATM   23  C10 UNL     1      30.838  50.352 255.920  1.00  0.00     0.003 A
HETATM   24  C11 UNL     1      31.164  51.570 255.361  1.00  0.00     0.017 A
HETATM   25  C12 UNL     1      30.269  52.180 254.531  1.00  0.00     0.090 A
ENDBRANCH  19  20
ENDBRANCH  18  19
ENDBRANCH  17  18
ENDBRANCH  16  17
ENDBRANCH   1  16
TORSDOF 11
ENDMDL