MODEL 3
REMARK VINA RESULT: -7.796066187      1.905      2.558
REMARK  7 active torsions:
REMARK  status: ('A' for Active; 'I' for Inactive)
REMARK    1  A    between atoms: C2_2  and  C3_3
REMARK    2  A    between atoms: C3_3  and  C4_4
REMARK    3  A    between atoms: C4_4  and  N1_5
REMARK    4  A    between atoms: C4_4  and  C13_21
REMARK    5  A    between atoms: N1_5  and  C5_7
REMARK    6  A    between atoms: C5_7  and  C6_8
REMARK    7  A    between atoms: C10_12  and  C11_13
ROOT
HETATM    1  C11 UNL     1      28.374  53.180 253.170  1.00  0.00     0.152 C
HETATM    2  N2  UNL     1      29.818  53.260 252.957  1.00  0.00    -0.080 NA
HETATM    3  N3  UNL     1      28.003  53.632 254.256  1.00  0.00    -0.280 N
ATOM      4  H3  UNL     1      28.785  53.980 254.811  1.00  0.00     0.179 HD
HETATM    5  C12 UNL     1      26.842  53.782 254.886  1.00  0.00     0.183 C
HETATM    6  N4  UNL     1      25.836  53.927 255.469  1.00  0.00    -0.172 NA
ENDROOT
BRANCH   1   7
HETATM    7  C10 UNL     1      27.650  52.585 252.062  1.00  0.00     0.074 A
HETATM    8  C9  UNL     1      26.651  51.652 252.167  1.00  0.00     0.033 A
HETATM    9  C8  UNL     1      25.987  51.122 251.055  1.00  0.00     0.004 A
HETATM   10  C7  UNL     1      26.363  51.563 249.825  1.00  0.00     0.027 A
HETATM   11  C6  UNL     1      27.355  52.492 249.708  1.00  0.00     0.027 A
HETATM   12  N5  UNL     1      27.956  52.966 250.784  1.00  0.00    -0.355 N
ATOM     13  H5  UNL     1      28.693  53.659 250.654  1.00  0.00     0.166 HD
BRANCH  11  14
HETATM   14  C5  UNL     1      27.724  52.948 248.320  1.00  0.00     0.172 C
BRANCH  14  15
HETATM   15  N1  UNL     1      29.134  52.849 248.153  1.00  0.00    -0.404 N
ATOM     16  H1  UNL     1      29.780  53.394 248.726  1.00  0.00     0.154 HD
BRANCH  15  17
HETATM   17  C4  UNL     1      29.595  51.965 247.162  1.00  0.00     0.170 C
BRANCH  17  18
HETATM   18  C3  UNL     1      28.775  51.937 245.908  1.00  0.00     0.060 C
BRANCH  18  19
HETATM   19  C2  UNL     1      29.330  52.697 244.772  1.00  0.00    -0.034 C
HETATM   20  C1  UNL     1      28.869  52.668 243.548  1.00  0.00     0.007 C
ENDBRANCH  18  19
ENDBRANCH  17  18
BRANCH  17  21
HETATM   21  C13 UNL     1      29.656  50.547 247.685  1.00  0.00     0.253 C
HETATM   22  N6  UNL     1      28.602  49.660 247.373  1.00  0.00    -0.060 NA
HETATM   23  O1  UNL     1      30.647  50.220 248.377  1.00  0.00    -0.275 OA
ENDBRANCH  17  21
ENDBRANCH  15  17
ENDBRANCH  14  15
ENDBRANCH  11  14
ENDBRANCH   1   7
TORSDOF 7
ENDMDL