MODEL 2
REMARK VINA RESULT: -7.990641363      0.135      1.066
REMARK  8 active torsions:
REMARK  status: ('A' for Active; 'I' for Inactive)
REMARK    1  A    between atoms: N1_1  and  N2_4
REMARK       I    between atoms: N2_4  and  C1_6
REMARK    2  A    between atoms: N4_8  and  C2_10
REMARK    3  A    between atoms: N5_11  and  N6_13
REMARK    4  A    between atoms: C3_15  and  C4_16
REMARK    5  A    between atoms: C4_16  and  C5_17
REMARK    6  A    between atoms: C5_17  and  O1_18
REMARK    7  A    between atoms: O1_18  and  C6_19
REMARK    8  A    between atoms: C9_22  and  C10_23
ROOT
HETATM    1  N6  UNL     1      26.839  49.765 250.225  1.00  0.00    -0.315 N
ATOM      2  H6  UNL     1      26.345  48.962 249.836  1.00  0.00     0.185 HD
HETATM    3  C3  UNL     1      25.980  50.540 250.623  1.00  0.00     0.082 C
ENDROOT
BRANCH   1   4
HETATM    4  N5  UNL     1      28.090  49.523 250.085  1.00  0.00    -0.297 N
HETATM    5  C2  UNL     1      28.808  49.720 249.042  1.00  0.00     0.199 C
ATOM      6  H5  UNL     1      28.568  49.129 250.895  1.00  0.00     0.187 HD
BRANCH   5   7
HETATM    7  N4  UNL     1      28.251  50.257 247.882  1.00  0.00    -0.324 N
HETATM    8  C1  UNL     1      28.758  51.146 247.119  1.00  0.00     0.207 C
HETATM    9  N2  UNL     1      30.024  51.713 247.388  1.00  0.00    -0.280 N
HETATM   10  N3  UNL     1      28.017  51.565 245.961  1.00  0.00    -0.062 NA
ATOM     11  H2  UNL     1      30.786  51.139 247.747  1.00  0.00     0.189 HD
ATOM     12  H4  UNL     1      27.334  49.900 247.612  1.00  0.00     0.169 HD
BRANCH   9  13
HETATM   13  N1  UNL     1      30.208  53.071 247.152  1.00  0.00    -0.343 N
ATOM     14  H12 UNL     1      29.400  53.668 246.976  1.00  0.00     0.176 HD
ATOM     15  H11 UNL     1      31.157  53.444 247.160  1.00  0.00     0.176 HD
ENDBRANCH   9  13
ENDBRANCH   5   7
ENDBRANCH   1   4
BRANCH   3  16
HETATM   16  C4  UNL     1      26.286  51.854 251.270  1.00  0.00     0.073 C
BRANCH  16  17
HETATM   17  C5  UNL     1      26.660  51.650 252.696  1.00  0.00     0.181 C
BRANCH  17  18
HETATM   18  O1  UNL     1      27.901  52.182 253.071  1.00  0.00    -0.351 OA
BRANCH  18  19
HETATM   19  C6  UNL     1      28.741  51.606 253.952  1.00  0.00     0.068 A
HETATM   20  C7  UNL     1      28.513  50.410 254.554  1.00  0.00     0.037 A
HETATM   21  C8  UNL     1      29.425  49.880 255.445  1.00  0.00     0.017 A
HETATM   22  C9  UNL     1      30.580  50.550 255.744  1.00  0.00     0.002 A
HETATM   23  C11 UNL     1      30.837  51.761 255.154  1.00  0.00     0.017 A
HETATM   24  C12 UNL     1      29.925  52.283 254.265  1.00  0.00     0.037 A
BRANCH  22  25
HETATM   25  C10 UNL     1      31.546  49.991 256.689  1.00  0.00     0.269 C
HETATM   26  O2  UNL     1      31.285  48.942 257.310  1.00  0.00    -0.301 OA
ENDBRANCH  22  25
ENDBRANCH  18  19
ENDBRANCH  17  18
ENDBRANCH  16  17
ENDBRANCH   3  16
TORSDOF 8
ENDMDL