MODEL 4
REMARK VINA RESULT: -6.691940541      0.671      1.089
REMARK  8 active torsions:
REMARK  status: ('A' for Active; 'I' for Inactive)
REMARK    1  A    between atoms: C1_4  and  N2_5
REMARK    2  A    between atoms: N2_5  and  C2_7
REMARK    3  A    between atoms: C4_9  and  N3_10
REMARK    4  A    between atoms: C4_9  and  C5_14
REMARK    5  A    between atoms: C5_14  and  S1_15
REMARK    6  A    between atoms: S1_15  and  N4_18
REMARK    7  A    between atoms: N4_18  and  C6_20
REMARK    8  A    between atoms: C6_20  and  C7_21
ROOT
HETATM    1  C5  UNL     1      27.350  51.800 248.961  1.00  0.00     0.204 C
ENDROOT
BRANCH   1   2
HETATM    2  C4  UNL     1      28.283  51.585 247.838  1.00  0.00     0.160 A
HETATM    3  C2  UNL     1      28.230  52.635 246.730  1.00  0.00     0.121 A
HETATM    4  C3  UNL     1      29.484  52.377 247.534  1.00  0.00     0.069 A
BRANCH   3   5
HETATM    5  N2  UNL     1      28.183  52.199 245.348  1.00  0.00    -0.379 N
ATOM      6  H2  UNL     1      27.420  51.609 245.017  1.00  0.00     0.160 HD
BRANCH   5   7
HETATM    7  C1  UNL     1      29.213  52.604 244.461  1.00  0.00     0.169 C
HETATM    8  N1  UNL     1      28.890  52.782 243.240  1.00  0.00    -0.396 N
ATOM      9  H12 UNL     1      27.929  52.635 242.932  1.00  0.00     0.156 HD
ATOM     10  H11 UNL     1      29.630  53.074 242.602  1.00  0.00     0.156 HD
ENDBRANCH   5   7
ENDBRANCH   3   5
BRANCH   2  11
HETATM   11  N3  UNL     1      28.247  50.219 247.268  1.00  0.00    -0.067 N
ATOM     12  H33 UNL     1      28.691  50.180 246.350  1.00  0.00     0.275 HD
ATOM     13  H32 UNL     1      28.871  49.584 247.766  1.00  0.00     0.275 HD
ATOM     14  H31 UNL     1      27.290  49.864 247.240  1.00  0.00     0.275 HD
ENDBRANCH   2  11
ENDBRANCH   1   2
BRANCH   1  15
HETATM   15  S1  UNL     1      27.135  50.566 250.155  1.00  0.00     0.229 S
HETATM   16  O1  UNL     1      26.208  49.470 249.632  1.00  0.00    -0.206 OA
HETATM   17  O2  UNL     1      28.498  49.868 250.326  1.00  0.00    -0.206 OA
BRANCH  15  18
HETATM   18  N4  UNL     1      26.625  51.018 251.688  1.00  0.00    -0.314 N
ATOM     19  H4  UNL     1      25.869  50.561 252.198  1.00  0.00     0.172 HD
BRANCH  18  20
HETATM   20  C6  UNL     1      27.377  52.118 252.187  1.00  0.00     0.188 C
BRANCH  20  21
HETATM   21  C7  UNL     1      28.326  51.823 253.261  1.00  0.00     0.027 A
HETATM   22  C8  UNL     1      28.175  50.734 254.065  1.00  0.00     0.027 A
HETATM   23  C9  UNL     1      29.081  50.450 255.098  1.00  0.00     0.003 A
HETATM   24  C10 UNL     1      30.149  51.294 255.303  1.00  0.00     0.017 A
HETATM   25  C11 UNL     1      30.266  52.392 254.463  1.00  0.00     0.088 A
HETATM   26  N5  UNL     1      29.369  52.642 253.468  1.00  0.00    -0.368 N
ATOM     27  H5  UNL     1      29.492  53.461 252.872  1.00  0.00     0.165 HD
ENDBRANCH  20  21
ENDBRANCH  18  20
ENDBRANCH  15  18
ENDBRANCH   1  15
TORSDOF 8
ENDMDL