MODEL 3
REMARK VINA RESULT: -7.097450358      0.076      1.056
REMARK  9 active torsions:
REMARK  status: ('A' for Active; 'I' for Inactive)
REMARK    1  A    between atoms: C1_2  and  C2_4
REMARK    2  A    between atoms: C2_4  and  N2_5
REMARK    3  A    between atoms: C2_4  and  N3_9
REMARK    4  A    between atoms: N3_9  and  C3_11
REMARK    5  A    between atoms: C3_11  and  C4_12
REMARK    6  A    between atoms: C3_11  and  C12_22
REMARK    7  A    between atoms: C4_12  and  O2_13
REMARK    8  A    between atoms: O2_13  and  C5_14
REMARK    9  A    between atoms: C5_14  and  C6_16
ROOT
HETATM    1  C3  UNL     1      27.755  52.124 249.166  1.00  0.00     0.205 C
ENDROOT
BRANCH   1   2
HETATM    2  N3  UNL     1      28.113  52.751 247.954  1.00  0.00    -0.373 N
ATOM      3  H3  UNL     1      27.619  53.591 247.651  1.00  0.00     0.156 HD
BRANCH   2   4
HETATM    4  C2  UNL     1      29.149  52.225 247.160  1.00  0.00     0.368 C
BRANCH   4   5
HETATM    5  C1  UNL     1      28.663  52.252 245.733  1.00  0.00     0.281 C
HETATM    6  N1  UNL     1      29.486  52.917 244.790  1.00  0.00    -0.059 NA
HETATM    7  O1  UNL     1      27.599  51.731 245.345  1.00  0.00    -0.273 OA
ENDBRANCH   4   5
BRANCH   4   8
HETATM    8  N2  UNL     1      30.327  53.100 247.151  1.00  0.00    -0.050 N
ATOM      9  H23 UNL     1      30.773  53.211 248.062  1.00  0.00     0.277 HD
ATOM     10  H22 UNL     1      31.139  52.704 246.678  1.00  0.00     0.277 HD
ATOM     11  H21 UNL     1      29.985  53.970 246.742  1.00  0.00     0.277 HD
ENDBRANCH   4   8
ENDBRANCH   2   4
ENDBRANCH   1   2
BRANCH   1  12
HETATM   12  C4  UNL     1      28.548  52.722 250.314  1.00  0.00     0.214 C
BRANCH  12  13
HETATM   13  O2  UNL     1      27.805  53.080 251.420  1.00  0.00    -0.315 OA
BRANCH  13  14
HETATM   14  C5  UNL     1      27.437  52.346 252.511  1.00  0.00     0.293 C
HETATM   15  O3  UNL     1      26.218  52.092 252.646  1.00  0.00    -0.259 OA
BRANCH  14  16
HETATM   16  C6  UNL     1      28.362  51.851 253.513  1.00  0.00     0.039 A
HETATM   17  C7  UNL     1      29.477  52.591 253.811  1.00  0.00     0.017 A
HETATM   18  C8  UNL     1      30.403  52.190 254.750  1.00  0.00     0.001 A
HETATM   19  C9  UNL     1      30.224  51.011 255.424  1.00  0.00     0.000 A
HETATM   20  C10 UNL     1      29.104  50.254 255.134  1.00  0.00     0.001 A
HETATM   21  C11 UNL     1      28.188  50.664 254.196  1.00  0.00     0.017 A
ENDBRANCH  14  16
ENDBRANCH  13  14
ENDBRANCH  12  13
ENDBRANCH   1  12
BRANCH   1  22
HETATM   22  C12 UNL     1      27.857  50.663 249.201  1.00  0.00     0.198 C
HETATM   23  O4  UNL     1      27.001  49.934 248.658  1.00  0.00    -0.646 OA
HETATM   24  O5  UNL     1      28.915  50.056 249.844  1.00  0.00    -0.646 OA
ENDBRANCH   1  22
TORSDOF 9
ENDMDL