MODEL 1
REMARK VINA RESULT: -6.816305494      0.000      0.000
REMARK  9 active torsions:
REMARK  status: ('A' for Active; 'I' for Inactive)
REMARK    1  A    between atoms: N1_1  and  C1_5
REMARK    2  A    between atoms: C1_5  and  C2_6
REMARK    3  A    between atoms: C2_6  and  O1_7
REMARK    4  A    between atoms: C2_6  and  C3_9
REMARK    5  A    between atoms: C3_9  and  C4_10
REMARK    6  A    between atoms: C3_9  and  N3_15
REMARK    7  A    between atoms: C4_10  and  N2_11
REMARK    8  A    between atoms: N2_11  and  C5_13
REMARK    9  A    between atoms: N3_15  and  C6_17
ROOT
HETATM    1  C3  UNL     1      27.389   1.405 289.976  1.00  0.00     0.125 C
ENDROOT
BRANCH   1   2
HETATM    2  C2  UNL     1      27.471   2.914 290.318  1.00  0.00     0.167 C
BRANCH   2   3
HETATM    3  C1  UNL     1      26.414   3.706 289.597  1.00  0.00     0.263 C
BRANCH   3   4
HETATM    4  N1  UNL     1      25.123   3.048 289.714  1.00  0.00    -0.077 N
ATOM      5  H13 UNL     1      25.128   2.122 289.284  1.00  0.00     0.274 HD
ATOM      6  H12 UNL     1      24.924   2.767 290.674  1.00  0.00     0.274 HD
ATOM      7  H11 UNL     1      24.386   3.641 289.331  1.00  0.00     0.274 HD
ENDBRANCH   3   4
ENDBRANCH   2   3
BRANCH   2   8
HETATM    8  O1  UNL     1      27.231   3.118 291.679  1.00  0.00    -0.392 OA
ATOM      9  H1  UNL     1      27.466   2.302 292.105  1.00  0.00     0.210 HD
ENDBRANCH   2   8
ENDBRANCH   1   2
BRANCH   1  10
HETATM   10  C4  UNL     1      27.399   0.744 291.305  1.00  0.00     0.149 C
BRANCH  10  11
HETATM   11  N2  UNL     1      28.627   0.604 291.985  1.00  0.00    -0.366 N
ATOM     12  H2  UNL     1      29.472   0.317 291.491  1.00  0.00     0.161 HD
BRANCH  11  13
HETATM   13  C5  UNL     1      28.652   0.878 293.390  1.00  0.00     0.348 C
HETATM   14  O2  UNL     1      27.605   1.296 293.998  1.00  0.00    -0.284 OA
ENDBRANCH  11  13
ENDBRANCH  10  11
ENDBRANCH   1  10
BRANCH   1  15
HETATM   15  N3  UNL     1      28.427   1.101 289.067  1.00  0.00    -0.402 N
ATOM     16  H3  UNL     1      29.382   1.385 289.288  1.00  0.00     0.154 HD
BRANCH  15  17
HETATM   17  C6  UNL     1      28.176   0.422 287.881  1.00  0.00     0.156 C
HETATM   18  C7  UNL     1      26.981   1.076 287.171  1.00  0.00     0.072 C
HETATM   19  C8  UNL     1      26.680   0.058 286.132  1.00  0.00    -0.042 A
HETATM   20  C9  UNL     1      26.123   0.109 284.873  1.00  0.00     0.008 A
HETATM   21  C13 UNL     1      27.084  -1.196 286.619  1.00  0.00     0.018 A
HETATM   22  C10 UNL     1      25.971  -1.043 284.119  1.00  0.00     0.001 A
HETATM   23  C11 UNL     1      26.371  -2.289 284.595  1.00  0.00     0.001 A
HETATM   24  C12 UNL     1      26.936  -2.348 285.873  1.00  0.00     0.016 A
HETATM   25  C14 UNL     1      27.633  -0.966 287.976  1.00  0.00     0.182 C
HETATM   26  O3  UNL     1      27.589  -1.799 288.878  1.00  0.00    -0.290 OA
ENDBRANCH  15  17
ENDBRANCH   1  15
TORSDOF 9
ENDMDL