MODEL 4
REMARK VINA RESULT: -6.555196325      3.211      8.524
REMARK  8 active torsions:
REMARK  status: ('A' for Active; 'I' for Inactive)
REMARK       I    between atoms: C1_4  and  N3_6
REMARK    1  A    between atoms: N3_6  and  N4_8
REMARK    2  A    between atoms: C2_10  and  C3_11
REMARK    3  A    between atoms: C6_14  and  O1_15
REMARK    4  A    between atoms: O1_15  and  C7_16
REMARK    5  A    between atoms: C7_16  and  C8_18
REMARK    6  A    between atoms: C8_18  and  N5_19
REMARK    7  A    between atoms: N5_19  and  C9_21
REMARK    8  A    between atoms: C9_21  and  C10_22
ROOT
HETATM    1  C3  UNL     1      26.899   1.285 288.947  1.00  0.00    -0.019 A
HETATM    2  C4  UNL     1      25.769   1.589 288.240  1.00  0.00     0.015 A
HETATM    3  C5  UNL     1      25.698   1.371 286.888  1.00  0.00     0.038 A
HETATM    4  C6  UNL     1      26.751   0.842 286.187  1.00  0.00     0.079 A
HETATM    5  C11 UNL     1      27.898   0.536 286.921  1.00  0.00     0.038 A
HETATM    6  C12 UNL     1      27.965   0.756 288.280  1.00  0.00     0.015 A
ENDROOT
BRANCH   1   7
HETATM    7  C2  UNL     1      26.989   1.520 290.387  1.00  0.00     0.118 C
HETATM    8  N4  UNL     1      27.809   2.380 290.870  1.00  0.00    -0.309 N
ATOM      9  H4  UNL     1      28.413   2.916 290.249  1.00  0.00     0.186 HD
BRANCH   8  10
HETATM   10  N3  UNL     1      27.869   2.578 292.236  1.00  0.00    -0.274 N
HETATM   11  C1  UNL     1      28.298   1.545 293.090  1.00  0.00     0.200 C
HETATM   12  N1  UNL     1      29.364   0.842 292.881  1.00  0.00    -0.372 N
HETATM   13  N2  UNL     1      27.540   1.229 294.261  1.00  0.00    -0.062 NA
ATOM     14  H12 UNL     1      29.675   0.093 293.500  1.00  0.00     0.158 HD
ATOM     15  H11 UNL     1      29.905   1.067 292.047  1.00  0.00     0.158 HD
ATOM     16  H3  UNL     1      27.600   3.480 292.628  1.00  0.00     0.189 HD
ENDBRANCH   8  10
ENDBRANCH   1   7
BRANCH   4  17
HETATM   17  O1  UNL     1      26.756   0.593 284.823  1.00  0.00    -0.278 OA
BRANCH  17  18
HETATM   18  C7  UNL     1      27.254   1.561 283.979  1.00  0.00     0.281 C
HETATM   19  O2  UNL     1      27.626   2.660 284.455  1.00  0.00    -0.263 OA
BRANCH  18  20
HETATM   20  C8  UNL     1      27.374   1.359 282.507  1.00  0.00     0.226 C
BRANCH  20  21
HETATM   21  N5  UNL     1      27.225   2.546 281.740  1.00  0.00    -0.407 N
ATOM     22  H5  UNL     1      26.432   3.175 281.864  1.00  0.00     0.154 HD
BRANCH  21  23
HETATM   23  C9  UNL     1      28.255   2.804 280.785  1.00  0.00     0.183 C
BRANCH  23  24
HETATM   24  C10 UNL     1      29.591   2.995 281.417  1.00  0.00     0.250 C
HETATM   25  O3  UNL     1      30.020   4.070 281.746  1.00  0.00    -0.305 OA
ENDBRANCH  23  24
ENDBRANCH  21  23
ENDBRANCH  20  21
ENDBRANCH  18  20
ENDBRANCH  17  18
ENDBRANCH   4  17
TORSDOF 8
ENDMDL