MODEL 1
REMARK VINA RESULT: -6.282402407      0.000      0.000
REMARK  7 active torsions:
REMARK  status: ('A' for Active; 'I' for Inactive)
REMARK    1  A    between atoms: C2_2  and  C3_3
REMARK       I    between atoms: C3_3  and  N1_5
REMARK    2  A    between atoms: N1_5  and  C4_7
REMARK    3  A    between atoms: C4_7  and  C5_8
REMARK    4  A    between atoms: C4_7  and  C9_16
REMARK    5  A    between atoms: C5_8  and  C6_9
REMARK       I    between atoms: C9_16  and  N4_18
REMARK    6  A    between atoms: N4_18  and  C10_20
REMARK    7  A    between atoms: C10_20  and  C12_22
ROOT
HETATM    1  C4  UNL     1      26.742   1.108 285.879  1.00  0.00     0.182 C
ENDROOT
BRANCH   1   2
HETATM    2  N1  UNL     1      26.975  -0.298 285.676  1.00  0.00    -0.344 N
HETATM    3  C3  UNL     1      26.250  -1.101 284.774  1.00  0.00     0.241 C
HETATM    4  O1  UNL     1      25.334  -0.607 284.080  1.00  0.00    -0.269 OA
ATOM      5  H1  UNL     1      27.713  -0.742 286.222  1.00  0.00     0.163 HD
BRANCH   3   6
HETATM    6  C2  UNL     1      26.546  -2.508 284.628  1.00  0.00     0.064 C
HETATM    7  C1  UNL     1      26.771  -3.307 285.673  1.00  0.00     0.017 C
ENDBRANCH   3   6
ENDBRANCH   1   2
BRANCH   1   8
HETATM    8  C5  UNL     1      27.819   2.030 285.529  1.00  0.00     0.093 C
BRANCH   8   9
HETATM    9  C6  UNL     1      28.065   2.410 284.164  1.00  0.00     0.028 A
HETATM   10  C7  UNL     1      29.044   3.149 283.555  1.00  0.00     0.114 A
HETATM   11  N2  UNL     1      28.803   3.191 282.233  1.00  0.00    -0.360 N
HETATM   12  C8  UNL     1      27.672   2.476 282.011  1.00  0.00     0.180 A
ATOM     13  H2  UNL     1      29.365   3.670 281.529  1.00  0.00     0.166 HD
HETATM   14  N3  UNL     1      27.214   2.000 283.165  1.00  0.00    -0.354 N
ATOM     15  H3  UNL     1      26.378   1.429 283.288  1.00  0.00     0.166 HD
ENDBRANCH   8   9
ENDBRANCH   1   8
BRANCH   1  16
HETATM   16  C9  UNL     1      26.164   1.358 287.250  1.00  0.00     0.241 C
HETATM   17  O2  UNL     1      24.947   1.150 287.475  1.00  0.00    -0.271 OA
HETATM   18  N4  UNL     1      26.948   1.831 288.330  1.00  0.00    -0.347 N
ATOM     19  H4  UNL     1      27.940   2.007 288.171  1.00  0.00     0.163 HD
BRANCH  18  20
HETATM   20  C10 UNL     1      26.415   2.070 289.624  1.00  0.00     0.169 C
HETATM   21  C11 UNL     1      26.105   3.560 289.732  1.00  0.00     0.042 C
BRANCH  20  22
HETATM   22  C12 UNL     1      27.256   1.607 290.729  1.00  0.00     0.253 C
HETATM   23  N5  UNL     1      27.784   0.298 290.714  1.00  0.00    -0.060 NA
HETATM   24  O3  UNL     1      27.506   2.376 291.686  1.00  0.00    -0.275 OA
ENDBRANCH  20  22
ENDBRANCH  18  20
ENDBRANCH   1  16
TORSDOF 7
ENDMDL