MODEL 4
REMARK VINA RESULT: -6.497238195      1.575      6.923
REMARK  7 active torsions:
REMARK  status: ('A' for Active; 'I' for Inactive)
REMARK    1  A    between atoms: C2_2  and  C3_3
REMARK    2  A    between atoms: C3_3  and  C4_4
REMARK    3  A    between atoms: C5_5  and  C6_6
REMARK       I    between atoms: C6_6  and  N1_8
REMARK    4  A    between atoms: N5_16  and  C9_17
REMARK    5  A    between atoms: C9_17  and  C10_18
REMARK    6  A    between atoms: C10_18  and  C11_19
REMARK    7  A    between atoms: C11_19  and  C12_20
ROOT
HETATM    1  C4  UNL     1      27.435   1.350 288.553  1.00  0.00     0.052 A
HETATM    2  C5  UNL     1      27.323   0.665 287.400  1.00  0.00     0.125 A
HETATM    3  N4  UNL     1      27.445  -0.632 287.678  1.00  0.00    -0.346 N
ATOM      4  H4  UNL     1      27.399  -1.383 286.989  1.00  0.00     0.167 HD
HETATM    5  C8  UNL     1      27.638  -0.811 289.001  1.00  0.00     0.188 A
HETATM    6  N5  UNL     1      27.636   0.404 289.556  1.00  0.00    -0.320 N
ENDROOT
BRANCH   2   7
HETATM    7  C6  UNL     1      27.125   1.158 286.043  1.00  0.00     0.276 C
HETATM    8  O1  UNL     1      27.845   1.999 285.471  1.00  0.00    -0.266 OA
HETATM    9  N1  UNL     1      26.025   0.674 285.247  1.00  0.00    -0.298 N
HETATM   10  C7  UNL     1      26.158  -0.260 284.375  1.00  0.00     0.203 C
ATOM     11  H1  UNL     1      25.104   1.090 285.382  1.00  0.00     0.171 HD
HETATM   12  N2  UNL     1      27.363  -0.919 284.083  1.00  0.00    -0.066 NA
HETATM   13  N3  UNL     1      24.996  -0.644 283.661  1.00  0.00    -0.066 NA
ENDBRANCH   2   7
BRANCH   1  14
HETATM   14  C3  UNL     1      27.338   2.799 288.817  1.00  0.00     0.086 C
BRANCH  14  15
HETATM   15  C2  UNL     1      26.126   3.210 289.560  1.00  0.00    -0.031 C
HETATM   16  C1  UNL     1      24.922   2.970 289.090  1.00  0.00     0.007 C
ENDBRANCH  14  15
ENDBRANCH   1  14
BRANCH   6  17
HETATM   17  C9  UNL     1      27.753   0.688 290.924  1.00  0.00     0.094 C
BRANCH  17  18
HETATM   18  C10 UNL     1      28.672   1.143 291.690  1.00  0.00    -0.000 C
BRANCH  18  19
HETATM   19  C11 UNL     1      29.327   0.602 292.884  1.00  0.00     0.128 C
BRANCH  19  20
HETATM   20  C12 UNL     1      28.422   0.932 294.074  1.00  0.00     0.234 C
HETATM   21  N6  UNL     1      28.889   0.552 295.340  1.00  0.00    -0.062 NA
HETATM   22  O2  UNL     1      27.326   1.511 293.903  1.00  0.00    -0.277 OA
ENDBRANCH  19  20
ENDBRANCH  18  19
ENDBRANCH  17  18
ENDBRANCH   6  17
TORSDOF 7
ENDMDL