MODEL 3
REMARK VINA RESULT: -6.582543728      1.753      2.387
REMARK  9 active torsions:
REMARK  status: ('A' for Active; 'I' for Inactive)
REMARK    1  A    between atoms: N1_2  and  C3_4
REMARK    2  A    between atoms: C3_4  and  C4_5
REMARK    3  A    between atoms: C4_5  and  O1_6
REMARK    4  A    between atoms: O1_6  and  C5_7
REMARK    5  A    between atoms: C6_10  and  N3_11
REMARK    6  A    between atoms: N3_11  and  C7_13
REMARK    7  A    between atoms: C7_13  and  C8_14
REMARK    8  A    between atoms: C11_17  and  C12_18
REMARK    9  A    between atoms: C12_18  and  N4_19
ROOT
HETATM    1  C5  UNL     1      26.016   1.482 287.461  1.00  0.00     0.253 A
HETATM    2  N2  UNL     1      26.872   2.450 287.825  1.00  0.00    -0.152 N
ATOM      3  H2  UNL     1      27.725   2.708 287.329  1.00  0.00     0.188 HD
HETATM    4  C6  UNL     1      26.416   3.023 288.952  1.00  0.00     0.696 A
HETATM    5  N6  UNL     1      25.282   2.395 289.262  1.00  0.00    -0.129 N
ATOM      6  H6  UNL     1      24.701   2.609 290.072  1.00  0.00     0.205 HD
HETATM    7  N7  UNL     1      25.020   1.455 288.370  1.00  0.00    -0.250 N
ATOM      8  H7  UNL     1      24.215   0.828 288.369  1.00  0.00     0.191 HD
ENDROOT
BRANCH   4   9
HETATM    9  N3  UNL     1      27.023   3.991 289.552  1.00  0.00    -0.219 N
ATOM     10  H3  UNL     1      26.499   4.855 289.693  1.00  0.00     0.178 HD
BRANCH   9  11
HETATM   11  C7  UNL     1      28.371   3.957 290.040  1.00  0.00     0.195 C
BRANCH  11  12
HETATM   12  C8  UNL     1      28.553   2.840 291.006  1.00  0.00     0.028 A
HETATM   13  C9  UNL     1      29.396   1.758 290.840  1.00  0.00     0.028 A
HETATM   14  C10 UNL     1      29.291   0.939 291.947  1.00  0.00     0.028 A
HETATM   15  C11 UNL     1      28.378   1.527 292.791  1.00  0.00     0.035 A
HETATM   16  N5  UNL     1      27.966   2.650 292.197  1.00  0.00    -0.360 N
ATOM     17  H5  UNL     1      27.284   3.290 292.602  1.00  0.00     0.165 HD
BRANCH  15  18
HETATM   18  C12 UNL     1      27.947   0.982 294.126  1.00  0.00     0.286 C
BRANCH  18  19
HETATM   19  N4  UNL     1      29.099   0.622 294.919  1.00  0.00    -0.074 N
ATOM     20  H43 UNL     1      29.419  -0.325 294.716  1.00  0.00     0.274 HD
ATOM     21  H42 UNL     1      29.934   1.131 294.628  1.00  0.00     0.274 HD
ATOM     22  H41 UNL     1      28.902   0.751 295.912  1.00  0.00     0.274 HD
ENDBRANCH  18  19
ENDBRANCH  15  18
ENDBRANCH  11  12
ENDBRANCH   9  11
ENDBRANCH   4   9
BRANCH   1  23
HETATM   23  O1  UNL     1      26.084   0.652 286.392  1.00  0.00    -0.319 OA
BRANCH  23  24
HETATM   24  C4  UNL     1      27.161  -0.111 285.925  1.00  0.00     0.209 C
BRANCH  24  25
HETATM   25  C3  UNL     1      26.653  -1.402 285.387  1.00  0.00     0.298 C
BRANCH  25  26
HETATM   26  N1  UNL     1      27.065  -2.555 286.144  1.00  0.00     0.082 N
HETATM   27  C1  UNL     1      26.936  -2.400 287.557  1.00  0.00     0.309 C
HETATM   28  C2  UNL     1      26.469  -3.775 285.699  1.00  0.00     0.309 C
ENDBRANCH  25  26
ENDBRANCH  24  25
ENDBRANCH  23  24
ENDBRANCH   1  23
TORSDOF 9
ENDMDL