MODEL 3
REMARK VINA RESULT: -7.005479972      1.668      2.176
REMARK  7 active torsions:
REMARK  status: ('A' for Active; 'I' for Inactive)
REMARK    1  A    between atoms: C1_2  and  C2_4
REMARK    2  A    between atoms: C2_4  and  C3_5
REMARK    3  A    between atoms: N2_6  and  N3_8
REMARK    4  A    between atoms: N3_8  and  C4_10
REMARK    5  A    between atoms: C7_13  and  C8_14
REMARK       I    between atoms: C8_14  and  N4_16
REMARK    6  A    between atoms: N4_16  and  C9_18
REMARK    7  A    between atoms: C9_18  and  C10_19
ROOT
HETATM    1  C4  UNL     1      26.675   2.441 289.264  1.00  0.00     0.048 A
HETATM    2  C5  UNL     1      27.754   2.418 288.408  1.00  0.00     0.032 A
HETATM    3  C6  UNL     1      27.743   1.882 287.143  1.00  0.00     0.019 A
HETATM    4  C7  UNL     1      26.548   1.317 286.687  1.00  0.00     0.032 A
HETATM    5  C11 UNL     1      25.448   1.319 287.509  1.00  0.00     0.019 A
HETATM    6  C12 UNL     1      25.509   1.871 288.775  1.00  0.00     0.032 A
ENDROOT
BRANCH   1   7
HETATM    7  N3  UNL     1      26.754   3.016 290.570  1.00  0.00    -0.301 N
ATOM      8  H3  UNL     1      26.121   3.782 290.798  1.00  0.00     0.187 HD
BRANCH   7   9
HETATM    9  N2  UNL     1      27.637   2.593 291.539  1.00  0.00    -0.315 N
HETATM   10  C3  UNL     1      28.038   1.361 291.554  1.00  0.00     0.089 C
ATOM     11  H2  UNL     1      27.974   3.248 292.244  1.00  0.00     0.185 HD
BRANCH  10  12
HETATM   12  C2  UNL     1      28.984   0.840 292.561  1.00  0.00     0.145 C
BRANCH  12  13
HETATM   13  C1  UNL     1      28.393   0.931 293.926  1.00  0.00     0.235 C
HETATM   14  N1  UNL     1      29.058   0.487 295.080  1.00  0.00    -0.062 NA
HETATM   15  O1  UNL     1      27.246   1.426 294.059  1.00  0.00    -0.277 OA
ENDBRANCH  12  13
ENDBRANCH  10  12
ENDBRANCH   7   9
ENDBRANCH   1   7
BRANCH   4  16
HETATM   16  C8  UNL     1      26.555   0.759 285.350  1.00  0.00     0.252 C
HETATM   17  O2  UNL     1      26.872   1.491 284.363  1.00  0.00    -0.268 OA
HETATM   18  N4  UNL     1      26.219  -0.586 285.100  1.00  0.00    -0.348 N
ATOM     19  H4  UNL     1      25.957  -1.196 285.874  1.00  0.00     0.163 HD
BRANCH  18  20
HETATM   20  C9  UNL     1      26.244  -1.102 283.765  1.00  0.00     0.222 C
BRANCH  20  21
HETATM   21  C10 UNL     1      24.986  -1.738 283.323  1.00  0.00     0.248 C
HETATM   22  N5  UNL     1      23.812  -0.936 283.338  1.00  0.00    -0.061 NA
HETATM   23  O3  UNL     1      24.881  -2.924 282.940  1.00  0.00    -0.275 OA
ENDBRANCH  20  21
ENDBRANCH  18  20
ENDBRANCH   4  16
TORSDOF 7
ENDMDL