MODEL 1
REMARK VINA RESULT: -6.696263009      0.000      0.000
REMARK  9 active torsions:
REMARK  status: ('A' for Active; 'I' for Inactive)
REMARK    1  A    between atoms: C1_4  and  C2_5
REMARK    2  A    between atoms: C1_4  and  N3_13
REMARK    3  A    between atoms: C2_5  and  C3_6
REMARK    4  A    between atoms: C8_15  and  C9_16
REMARK    5  A    between atoms: C8_15  and  C10_21
REMARK    6  A    between atoms: C10_21  and  O2_23
REMARK    7  A    between atoms: O2_23  and  C11_24
REMARK    8  A    between atoms: C11_24  and  C12_25
REMARK    9  A    between atoms: C12_25  and  N6_26
ROOT
HETATM    1  N3  UNL     1      28.366   1.289 288.974  1.00  0.00    -0.338 N
ATOM      2  H3  UNL     1      29.378   1.194 289.064  1.00  0.00     0.167 HD
HETATM    3  C8  UNL     1      27.888   2.342 289.497  1.00  0.00     0.150 C
ENDROOT
BRANCH   3   4
HETATM    4  C9  UNL     1      26.489   2.703 289.502  1.00  0.00     0.143 C
HETATM    5  N4  UNL     1      25.979   3.737 288.989  1.00  0.00    -0.386 N
ATOM      6  H42 UNL     1      26.664   4.344 288.539  1.00  0.00     0.157 HD
ATOM      7  H41 UNL     1      24.991   3.991 288.992  1.00  0.00     0.157 HD
HETATM    8  N5  UNL     1      25.512   1.839 290.143  1.00  0.00    -0.081 NA
ENDBRANCH   3   4
BRANCH   3   9
HETATM    9  C10 UNL     1      28.939   3.198 290.125  1.00  0.00     0.313 C
HETATM   10  O1  UNL     1      29.172   4.338 289.707  1.00  0.00    -0.257 OA
BRANCH   9  11
HETATM   11  O2  UNL     1      29.694   2.755 291.196  1.00  0.00    -0.315 OA
BRANCH  11  12
HETATM   12  C11 UNL     1      29.118   2.427 292.407  1.00  0.00     0.206 C
BRANCH  12  13
HETATM   13  C12 UNL     1      28.815   0.985 292.653  1.00  0.00     0.256 C
BRANCH  13  14
HETATM   14  N6  UNL     1      29.896   0.230 291.990  1.00  0.00    -0.077 N
ATOM     15  H63 UNL     1      29.560  -0.494 291.355  1.00  0.00     0.274 HD
ATOM     16  H62 UNL     1      30.407   0.774 291.295  1.00  0.00     0.274 HD
ATOM     17  H61 UNL     1      30.485  -0.127 292.743  1.00  0.00     0.274 HD
ENDBRANCH  13  14
ENDBRANCH  12  13
ENDBRANCH  11  12
ENDBRANCH   9  11
ENDBRANCH   3   9
BRANCH   1  18
HETATM   18  C1  UNL     1      27.755   0.257 288.308  1.00  0.00     0.081 C
HETATM   19  N1  UNL     1      28.014  -0.965 288.702  1.00  0.00    -0.389 N
ATOM     20  H12 UNL     1      27.559  -1.732 288.207  1.00  0.00     0.157 HD
ATOM     21  H11 UNL     1      28.634  -1.126 289.496  1.00  0.00     0.157 HD
BRANCH  18  22
HETATM   22  C2  UNL     1      26.840   0.494 287.137  1.00  0.00     0.133 C
BRANCH  22  23
HETATM   23  C3  UNL     1      27.662   1.064 286.036  1.00  0.00     0.015 A
HETATM   24  C4  UNL     1      28.756   0.365 285.525  1.00  0.00     0.025 A
HETATM   25  C5  UNL     1      29.553   0.823 284.512  1.00  0.00     0.003 A
HETATM   26  C6  UNL     1      29.242   2.055 283.973  1.00  0.00     0.017 A
HETATM   27  C7  UNL     1      28.159   2.726 284.492  1.00  0.00     0.088 A
HETATM   28  N2  UNL     1      27.393   2.259 285.484  1.00  0.00    -0.369 N
ATOM     29  H2  UNL     1      26.604   2.809 285.821  1.00  0.00     0.165 HD
ENDBRANCH  22  23
ENDBRANCH  18  22
ENDBRANCH   1  18
TORSDOF 9
ENDMDL