MODEL 4
REMARK VINA RESULT: -7.049902543      4.233      4.682
REMARK  7 active torsions:
REMARK  status: ('A' for Active; 'I' for Inactive)
REMARK    1  A    between atoms: N1_3  and  N2_5
REMARK    2  A    between atoms: N2_5  and  C3_7
REMARK    3  A    between atoms: C3_7  and  C4_8
REMARK    4  A    between atoms: C3_7  and  C6_12
REMARK    5  A    between atoms: C4_8  and  C5_9
REMARK       I    between atoms: C6_12  and  N4_14
REMARK    6  A    between atoms: N4_14  and  N5_16
REMARK    7  A    between atoms: C7_18  and  C8_19
ROOT
HETATM    1  C6  UNL     1      27.473  -0.064 288.589  1.00  0.00     0.260 C
HETATM    2  O2  UNL     1      26.386   0.026 287.936  1.00  0.00    -0.269 OA
HETATM    3  N4  UNL     1      28.204  -1.265 288.551  1.00  0.00    -0.269 N
ATOM      4  H4  UNL     1      29.076  -1.371 289.069  1.00  0.00     0.190 HD
ENDROOT
BRANCH   1   5
HETATM    5  C3  UNL     1      27.960   1.103 289.392  1.00  0.00     0.201 C
BRANCH   5   6
HETATM    6  N2  UNL     1      28.679   0.463 290.523  1.00  0.00    -0.323 N
ATOM      7  H2  UNL     1      29.536  -0.062 290.352  1.00  0.00     0.181 HD
BRANCH   6   8
HETATM    8  N1  UNL     1      28.188   0.579 291.797  1.00  0.00    -0.320 N
HETATM    9  C2  UNL     1      28.831   0.889 292.849  1.00  0.00     0.075 C
HETATM   10  C1  UNL     1      28.155   0.974 294.169  1.00  0.00     0.056 C
ATOM     11  H1  UNL     1      27.192   0.396 291.916  1.00  0.00     0.185 HD
ENDBRANCH   6   8
ENDBRANCH   5   6
BRANCH   5  12
HETATM   12  C4  UNL     1      26.759   1.817 289.942  1.00  0.00     0.135 C
BRANCH  12  13
HETATM   13  C5  UNL     1      26.868   3.236 290.183  1.00  0.00     0.233 C
HETATM   14  N3  UNL     1      28.021   3.736 290.833  1.00  0.00    -0.062 NA
HETATM   15  O1  UNL     1      25.998   4.052 289.848  1.00  0.00    -0.277 OA
ENDBRANCH  12  13
ENDBRANCH   5  12
ENDBRANCH   1   5
BRANCH   3  16
HETATM   16  N5  UNL     1      27.683  -2.325 287.763  1.00  0.00    -0.308 N
HETATM   17  C7  UNL     1      28.237  -2.503 286.613  1.00  0.00     0.118 C
ATOM     18  H5  UNL     1      26.915  -2.912 288.089  1.00  0.00     0.186 HD
BRANCH  17  19
HETATM   19  C8  UNL     1      27.712  -3.602 285.772  1.00  0.00    -0.019 A
HETATM   20  C9  UNL     1      26.377  -3.725 285.506  1.00  0.00     0.013 A
HETATM   21  C10 UNL     1      25.856  -4.751 284.716  1.00  0.00     0.001 A
HETATM   22  C11 UNL     1      26.740  -5.666 284.193  1.00  0.00     0.000 A
HETATM   23  C12 UNL     1      28.088  -5.550 284.457  1.00  0.00     0.001 A
HETATM   24  C13 UNL     1      28.598  -4.526 285.243  1.00  0.00     0.013 A
ENDBRANCH  17  19
ENDBRANCH   3  16
TORSDOF 7
ENDMDL