MODEL 3
REMARK VINA RESULT: -6.800152065      1.857      2.327
REMARK  10 active torsions:
REMARK  status: ('A' for Active; 'I' for Inactive)
REMARK    1  A    between atoms: N1_1  and  C1_5
REMARK    2  A    between atoms: C1_5  and  C2_6
REMARK    3  A    between atoms: C2_6  and  O1_7
REMARK    4  A    between atoms: O1_7  and  C3_8
REMARK    5  A    between atoms: C3_8  and  C4_10
REMARK    6  A    between atoms: C5_11  and  C6_12
REMARK    7  A    between atoms: C10_16  and  C11_17
REMARK    8  A    between atoms: C11_17  and  C12_18
REMARK    9  A    between atoms: C12_18  and  N2_19
REMARK   10  A    between atoms: C12_18  and  C13_23
ROOT
HETATM    1  C6  UNL     1      26.383   1.606 287.831  1.00  0.00    -0.036 A
HETATM    2  C7  UNL     1      25.126   2.096 288.184  1.00  0.00     0.011 A
HETATM    3  C8  UNL     1      24.994   3.034 289.162  1.00  0.00     0.001 A
HETATM    4  C9  UNL     1      26.136   3.508 289.817  1.00  0.00     0.007 A
HETATM    5  C10 UNL     1      27.387   3.047 289.494  1.00  0.00    -0.055 A
HETATM    6  C14 UNL     1      27.470   2.094 288.494  1.00  0.00     0.018 A
ENDROOT
BRANCH   1   7
HETATM    7  C5  UNL     1      26.446   0.605 286.778  1.00  0.00     0.017 C
HETATM    8  C4  UNL     1      26.113   0.863 285.539  1.00  0.00     0.083 C
BRANCH   8   9
HETATM    9  C3  UNL     1      26.200  -0.197 284.520  1.00  0.00     0.282 C
HETATM   10  O2  UNL     1      27.303  -0.535 284.083  1.00  0.00    -0.260 OA
BRANCH   9  11
HETATM   11  O1  UNL     1      25.079  -0.798 284.060  1.00  0.00    -0.317 OA
BRANCH  11  12
HETATM   12  C2  UNL     1      24.572  -0.992 282.809  1.00  0.00     0.206 C
BRANCH  12  13
HETATM   13  C1  UNL     1      23.095  -0.847 282.659  1.00  0.00     0.256 C
BRANCH  13  14
HETATM   14  N1  UNL     1      22.665   0.066 281.674  1.00  0.00    -0.077 N
ATOM     15  H13 UNL     1      21.664   0.237 281.772  1.00  0.00     0.274 HD
ATOM     16  H12 UNL     1      23.029   0.996 281.880  1.00  0.00     0.274 HD
ATOM     17  H11 UNL     1      22.882  -0.186 280.710  1.00  0.00     0.274 HD
ENDBRANCH  13  14
ENDBRANCH  12  13
ENDBRANCH  11  12
ENDBRANCH   9  11
ENDBRANCH   8   9
ENDBRANCH   1   7
BRANCH   5  18
HETATM   18  C11 UNL     1      28.591   3.530 290.167  1.00  0.00     0.080 C
BRANCH  18  19
HETATM   19  C12 UNL     1      29.137   2.619 291.226  1.00  0.00     0.276 C
BRANCH  19  20
HETATM   20  N2  UNL     1      30.181   1.742 290.704  1.00  0.00    -0.067 N
ATOM     21  H23 UNL     1      30.811   2.246 290.081  1.00  0.00     0.275 HD
ATOM     22  H22 UNL     1      30.847   1.485 291.433  1.00  0.00     0.275 HD
ATOM     23  H21 UNL     1      29.792   0.917 290.249  1.00  0.00     0.275 HD
ENDBRANCH  19  20
BRANCH  19  24
HETATM   24  C13 UNL     1      28.136   1.893 292.003  1.00  0.00     0.262 C
HETATM   25  N3  UNL     1      27.726   0.577 291.678  1.00  0.00    -0.060 NA
HETATM   26  O3  UNL     1      27.606   2.440 293.001  1.00  0.00    -0.275 OA
ENDBRANCH  19  24
ENDBRANCH  18  19
ENDBRANCH   5  18
TORSDOF 10
ENDMDL