MODEL 5
REMARK VINA RESULT: -7.641015925      1.054      1.641
REMARK  6 active torsions:
REMARK  status: ('A' for Active; 'I' for Inactive)
REMARK    1  A    between atoms: C2_2  and  C5_5
REMARK    2  A    between atoms: C5_5  and  C6_6
REMARK       I    between atoms: C6_6  and  N1_8
REMARK       I    between atoms: C7_10  and  N2_11
REMARK       I    between atoms: C7_10  and  N4_25
REMARK    3  A    between atoms: N2_11  and  C8_13
REMARK    4  A    between atoms: N3_20  and  C15_21
REMARK    5  A    between atoms: C15_21  and  C16_22
REMARK    6  A    between atoms: N4_25  and  C19_27
ROOT
HETATM    1  C6  UNL     1       1.589 -12.213  23.787  1.00  0.00     0.236 C
HETATM    2  O1  UNL     1       1.483 -12.206  25.033  1.00  0.00    -0.273 OA
HETATM    3  N1  UNL     1       0.551 -11.972  22.878  1.00  0.00    -0.160 N
ATOM      4  H1  UNL     1       0.561 -12.482  21.995  1.00  0.00     0.187 HD
HETATM    5  C7  UNL     1      -0.435 -11.131  23.091  1.00  0.00     0.677 C
HETATM    6  N2  UNL     1      -1.412 -10.987  22.087  1.00  0.00    -0.222 N
ATOM      7  H2  UNL     1      -2.325 -11.426  22.199  1.00  0.00     0.178 HD
HETATM    8  N4  UNL     1      -0.416 -10.446  24.316  1.00  0.00    -0.217 N
ATOM      9  H4  UNL     1       0.457  -9.994  24.587  1.00  0.00     0.178 HD
ENDROOT
BRANCH   6  10
HETATM   10  C8  UNL     1      -1.121 -10.214  20.891  1.00  0.00     0.103 C
HETATM   11  C9  UNL     1      -2.125  -9.137  20.735  1.00  0.00     0.061 C
HETATM   12  C10 UNL     1      -2.058  -8.600  19.297  1.00  0.00     0.225 C
HETATM   13  C11 UNL     1      -0.637  -8.266  18.915  1.00  0.00     0.038 C
HETATM   14  N3  UNL     1      -2.472  -9.724  18.470  1.00  0.00     0.098 N
HETATM   15  C12 UNL     1      -0.187  -9.456  18.103  1.00  0.00     0.038 C
HETATM   16  C13 UNL     1      -1.266 -10.479  18.399  1.00  0.00     0.225 C
HETATM   17  C14 UNL     1      -1.039 -11.163  19.730  1.00  0.00     0.061 C
BRANCH  14  18
HETATM   18  C15 UNL     1      -3.053  -9.320  17.239  1.00  0.00     0.278 C
BRANCH  18  19
HETATM   19  C16 UNL     1      -4.338  -8.573  17.510  1.00  0.00     0.014 A
HETATM   20  C17 UNL     1      -5.176  -8.117  16.368  1.00  0.00     0.007 A
HETATM   21  C18 UNL     1      -4.390  -7.104  17.116  1.00  0.00     0.007 A
ENDBRANCH  18  19
ENDBRANCH  14  18
ENDBRANCH   6  10
BRANCH   8  22
HETATM   22  C19 UNL     1      -1.518 -10.330  25.215  1.00  0.00     0.048 C
HETATM   23  C20 UNL     1      -2.393  -9.170  24.889  1.00  0.00     0.036 C
HETATM   24  C21 UNL     1      -3.484  -9.010  25.950  1.00  0.00    -0.012 C
HETATM   25  C22 UNL     1      -2.894  -8.890  27.323  1.00  0.00     0.009 C
HETATM   26  C26 UNL     1      -4.353 -10.245  25.858  1.00  0.00     0.009 C
HETATM   27  C23 UNL     1      -2.082 -10.145  27.610  1.00  0.00    -0.012 C
HETATM   28  C24 UNL     1      -2.990 -11.334  27.548  1.00  0.00     0.009 C
HETATM   29  C28 UNL     1      -0.964 -10.189  26.623  1.00  0.00     0.036 C
HETATM   30  C25 UNL     1      -3.520 -11.461  26.128  1.00  0.00    -0.012 C
HETATM   31  C27 UNL     1      -2.342 -11.607  25.221  1.00  0.00     0.036 C
ENDBRANCH   8  22
BRANCH   1  32
HETATM   32  C5  UNL     1       2.955 -12.508  23.248  1.00  0.00     0.112 C
BRANCH  32  33
HETATM   33  C2  UNL     1       3.897 -11.356  23.391  1.00  0.00    -0.043 C
HETATM   34  C1  UNL     1       5.291 -11.866  23.060  1.00  0.00     0.015 C
HETATM   35  C3  UNL     1       3.560 -10.241  22.451  1.00  0.00     0.015 C
HETATM   36  C4  UNL     1       3.878 -10.833  24.811  1.00  0.00     0.015 C
ENDBRANCH  32  33
ENDBRANCH   1  32
TORSDOF 6
ENDMDL