MODEL 1
REMARK VINA RESULT: -7.497307746      0.000      0.000
REMARK  7 active torsions:
REMARK  status: ('A' for Active; 'I' for Inactive)
REMARK    1  A    between atoms: C2_2  and  C3_3
REMARK    2  A    between atoms: C3_3  and  C4_4
REMARK    3  A    between atoms: C4_4  and  C5_5
REMARK    4  A    between atoms: C5_5  and  N1_6
REMARK    5  A    between atoms: N1_6  and  C6_8
REMARK    6  A    between atoms: C6_8  and  N2_10
REMARK    7  A    between atoms: N2_10  and  C8_12
ROOT
HETATM    1  C8  UNL     1      -1.634  -8.254  21.199  1.00  0.00     0.086 C
HETATM    2  N3  UNL     1      -2.041  -7.122  21.975  1.00  0.00    -0.369 N
ATOM      3  H3  UNL     1      -2.449  -6.248  21.644  1.00  0.00     0.161 HD
HETATM    4  C9  UNL     1      -1.731  -7.514  23.375  1.00  0.00     0.041 A
HETATM    5  C10 UNL     1      -2.835  -7.954  24.188  1.00  0.00     0.033 C
HETATM    6  C11 UNL     1      -2.882  -9.421  24.235  1.00  0.00     0.013 C
HETATM    7  C12 UNL     1      -1.623 -10.204  24.577  1.00  0.00    -0.031 C
HETATM    8  C13 UNL     1      -1.916 -10.483  26.058  1.00  0.00     0.016 C
HETATM    9  C14 UNL     1      -1.765 -11.435  23.741  1.00  0.00     0.010 C
HETATM   10  C15 UNL     1      -1.693 -11.179  22.279  1.00  0.00     0.007 C
HETATM   11  C16 UNL     1      -0.625 -10.371  21.692  1.00  0.00     0.013 C
HETATM   12  C17 UNL     1      -0.511  -8.927  21.966  1.00  0.00     0.065 C
HETATM   13  C18 UNL     1      -0.630  -8.436  23.340  1.00  0.00     0.006 A
HETATM   14  C19 UNL     1      -0.408  -7.053  23.763  1.00  0.00     0.045 A
HETATM   15  C20 UNL     1      -0.410  -9.401  24.465  1.00  0.00    -0.025 C
HETATM   16  C21 UNL     1      -0.150  -8.676  25.810  1.00  0.00     0.017 C
HETATM   17  C22 UNL     1       0.920 -10.014  24.228  1.00  0.00     0.018 C
HETATM   18  C23 UNL     1       1.123 -11.415  24.642  1.00  0.00     0.080 C
HETATM   19  C24 UNL     1       0.389 -12.463  23.959  1.00  0.00     0.135 C
HETATM   20  O1  UNL     1       0.937 -13.250  23.202  1.00  0.00    -0.297 OA
HETATM   21  C25 UNL     1      -1.065 -12.682  24.108  1.00  0.00     0.017 C
HETATM   22  C26 UNL     1      -1.273 -13.286  25.456  1.00  0.00     0.023 C
HETATM   23  C27 UNL     1      -1.548 -13.787  23.142  1.00  0.00     0.023 C
ENDROOT
BRANCH   1  24
HETATM   24  N2  UNL     1      -1.582  -8.141  19.815  1.00  0.00    -0.318 N
HETATM   25  C7  UNL     1      -1.152  -6.791  19.261  1.00  0.00     0.160 C
BRANCH  24  26
HETATM   26  C6  UNL     1      -1.879  -9.037  18.813  1.00  0.00     0.178 C
HETATM   27  S1  UNL     1      -0.457  -9.701  18.094  1.00  0.00    -0.040 SA
BRANCH  26  28
HETATM   28  N1  UNL     1      -3.035  -9.542  18.232  1.00  0.00    -0.346 N
ATOM     29  H1  UNL     1      -3.532 -10.196  18.836  1.00  0.00     0.167 HD
BRANCH  28  30
HETATM   30  C5  UNL     1      -3.669  -9.347  16.990  1.00  0.00     0.063 C
BRANCH  30  31
HETATM   31  C4  UNL     1      -4.240  -7.931  16.909  1.00  0.00     0.044 C
BRANCH  31  32
HETATM   32  C3  UNL     1      -5.370  -7.962  15.901  1.00  0.00     0.005 C
BRANCH  32  33
HETATM   33  C2  UNL     1      -5.144  -6.782  14.962  1.00  0.00    -0.004 C
HETATM   34  C1  UNL     1      -4.941  -5.568  15.835  1.00  0.00     0.005 C
ENDBRANCH  32  33
ENDBRANCH  31  32
ENDBRANCH  30  31
ENDBRANCH  28  30
ENDBRANCH  26  28
ENDBRANCH  24  26
ENDBRANCH   1  24
TORSDOF 7
ENDMDL