MODEL 2
REMARK VINA RESULT: -8.133119878      2.337      3.395
REMARK  7 active torsions:
REMARK  status: ('A' for Active; 'I' for Inactive)
REMARK    1  A    between atoms: C2_2  and  C3_3
REMARK    2  A    between atoms: C2_2  and  N2_29
REMARK    3  A    between atoms: C3_3  and  C4_4
REMARK       I    between atoms: C4_4  and  N1_6
REMARK    4  A    between atoms: N1_6  and  C5_8
REMARK    5  A    between atoms: C8_11  and  C10_13
REMARK    6  A    between atoms: C14_17  and  C16_19
REMARK       I    between atoms: N2_29  and  C24_30
REMARK    7  A    between atoms: C24_30  and  C25_32
ROOT
HETATM    1  C5  UNL     1      -0.903  -5.421  20.068  1.00  0.00     0.084 C
HETATM    2  C6  UNL     1      -0.391  -4.382  19.113  1.00  0.00     0.026 C
HETATM    3  C7  UNL     1       0.828  -3.731  19.663  1.00  0.00     0.011 C
HETATM    4  C8  UNL     1       0.597  -3.062  21.023  1.00  0.00    -0.040 C
HETATM    5  C9  UNL     1       1.388  -3.860  22.024  1.00  0.00     0.015 C
HETATM    6  C22 UNL     1      -0.868  -3.273  21.337  1.00  0.00     0.011 C
HETATM    7  C23 UNL     1      -1.220  -4.736  21.376  1.00  0.00     0.026 C
ENDROOT
BRANCH   4   8
HETATM    8  C10 UNL     1       0.978  -1.663  20.867  1.00  0.00     0.002 C
HETATM    9  C11 UNL     1       1.961  -1.540  19.709  1.00  0.00     0.006 C
HETATM   10  C12 UNL     1       2.948  -0.454  20.166  1.00  0.00     0.007 C
HETATM   11  C13 UNL     1       2.092   0.283  21.155  1.00  0.00     0.013 C
HETATM   12  C14 UNL     1       2.679   1.436  21.828  1.00  0.00     0.049 C
HETATM   13  C20 UNL     1       1.533  -0.857  21.972  1.00  0.00    -0.035 C
HETATM   14  C15 UNL     1       4.147   1.338  22.149  1.00  0.00     0.027 C
HETATM   15  C17 UNL     1       1.854   1.795  23.046  1.00  0.00     0.020 C
HETATM   16  C18 UNL     1       0.478   1.220  22.928  1.00  0.00     0.002 C
HETATM   17  C19 UNL     1       0.448  -0.269  22.870  1.00  0.00     0.010 C
HETATM   18  C21 UNL     1       2.543  -1.497  22.839  1.00  0.00     0.016 C
BRANCH  12  19
HETATM   19  C16 UNL     1       2.572   2.601  20.898  1.00  0.00     0.181 C
HETATM   20  O2  UNL     1       3.431   3.514  20.917  1.00  0.00    -0.647 OA
HETATM   21  O3  UNL     1       1.546   2.752  19.975  1.00  0.00    -0.647 OA
ENDBRANCH  12  19
ENDBRANCH   4   8
BRANCH   1  22
HETATM   22  N1  UNL     1      -2.044  -6.100  19.513  1.00  0.00    -0.356 N
HETATM   23  C4  UNL     1      -2.345  -7.418  19.935  1.00  0.00     0.224 C
HETATM   24  O1  UNL     1      -1.649  -8.029  20.787  1.00  0.00    -0.273 OA
ATOM     25  H1  UNL     1      -2.631  -5.636  18.820  1.00  0.00     0.162 HD
BRANCH  23  26
HETATM   26  C3  UNL     1      -3.518  -8.107  19.360  1.00  0.00     0.170 C
BRANCH  26  27
HETATM   27  C2  UNL     1      -3.191  -8.468  17.938  1.00  0.00     0.071 C
HETATM   28  C1  UNL     1      -1.905  -9.249  17.767  1.00  0.00     0.080 C
BRANCH  27  29
HETATM   29  N2  UNL     1      -3.882  -8.165  17.041  1.00  0.00    -0.379 NA
HETATM   30  C24 UNL     1      -4.650  -7.821  16.024  1.00  0.00     0.295 C
HETATM   31  O4  UNL     1      -4.959  -8.709  15.129  1.00  0.00    -0.257 OA
BRANCH  30  32
HETATM   32  C25 UNL     1      -5.244  -6.459  15.760  1.00  0.00     0.093 A
HETATM   33  C26 UNL     1      -4.379  -5.432  15.070  1.00  0.00     0.016 A
HETATM   34  C27 UNL     1      -4.642  -5.328  16.568  1.00  0.00     0.016 A
ENDBRANCH  30  32
ENDBRANCH  27  29
ENDBRANCH  26  27
ENDBRANCH  23  26
ENDBRANCH   1  22
TORSDOF 7
ENDMDL