MODEL 4
REMARK VINA RESULT: -7.651643683      2.287      3.980
REMARK  6 active torsions:
REMARK  status: ('A' for Active; 'I' for Inactive)
REMARK    1  A    between atoms: C2_2  and  N1_3
REMARK       I    between atoms: N1_3  and  C3_5
REMARK       I    between atoms: C3_5  and  N3_9
REMARK    2  A    between atoms: C9_15  and  C10_16
REMARK       I    between atoms: C10_16  and  N4_18
REMARK    3  A    between atoms: N4_18  and  C11_20
REMARK    4  A    between atoms: C11_20  and  C12_21
REMARK    5  A    between atoms: N5_24  and  C15_25
REMARK    6  A    between atoms: C15_25  and  C16_26
ROOT
HETATM    1  N1  UNL     1       3.003   2.695  19.515  1.00  0.00    -0.227 N
ATOM      2  H1  UNL     1       2.114   3.181  19.631  1.00  0.00     0.177 HD
HETATM    3  C3  UNL     1       2.987   1.317  19.215  1.00  0.00     0.669 C
HETATM    4  N2  UNL     1       2.967   0.924  17.996  1.00  0.00    -0.235 N
ATOM      5  H21 UNL     1       2.956  -0.073  17.779  1.00  0.00     0.174 HD
ATOM      6  H22 UNL     1       2.962   1.609  17.240  1.00  0.00     0.174 HD
HETATM    7  N3  UNL     1       2.995   0.371  20.259  1.00  0.00    -0.218 N
HETATM    8  C4  UNL     1       4.007  -0.653  20.426  1.00  0.00     0.142 C
HETATM    9  C5  UNL     1       3.564  -1.566  21.553  1.00  0.00     0.030 C
HETATM   10  C6  UNL     1       2.138  -2.074  21.347  1.00  0.00    -0.037 C
HETATM   11  C7  UNL     1       1.795  -2.902  22.546  1.00  0.00     0.010 C
HETATM   12  C8  UNL     1       0.693  -3.868  22.334  1.00  0.00     0.015 C
HETATM   13  C9  UNL     1      -0.071  -3.751  21.064  1.00  0.00     0.078 C
HETATM   14  C24 UNL     1       0.736  -3.428  19.858  1.00  0.00     0.015 C
HETATM   15  C25 UNL     1       2.132  -2.997  20.135  1.00  0.00     0.010 C
HETATM   16  C26 UNL     1       1.204  -0.917  21.153  1.00  0.00     0.030 C
HETATM   17  C27 UNL     1       1.936   0.399  21.240  1.00  0.00     0.142 C
ENDROOT
BRANCH  13  18
HETATM   18  C10 UNL     1      -0.889  -5.015  20.850  1.00  0.00     0.221 C
HETATM   19  O1  UNL     1      -1.384  -5.551  21.844  1.00  0.00    -0.273 OA
HETATM   20  N4  UNL     1      -1.050  -5.521  19.561  1.00  0.00    -0.360 N
ATOM     21  H4  UNL     1      -0.572  -4.981  18.839  1.00  0.00     0.162 HD
BRANCH  20  22
HETATM   22  C11 UNL     1      -1.756  -6.648  19.071  1.00  0.00     0.127 C
BRANCH  22  23
HETATM   23  C12 UNL     1      -1.522  -7.982  19.629  1.00  0.00     0.007 C
HETATM   24  C13 UNL     1      -0.933  -8.999  18.655  1.00  0.00     0.036 C
HETATM   25  C14 UNL     1      -1.010 -10.325  19.361  1.00  0.00     0.273 C
HETATM   26  N5  UNL     1      -0.767 -10.183  20.821  1.00  0.00     0.088 N
HETATM   27  C22 UNL     1      -2.003  -9.655  21.352  1.00  0.00     0.273 C
HETATM   28  C23 UNL     1      -2.628  -8.629  20.368  1.00  0.00     0.036 C
BRANCH  26  29
HETATM   29  C15 UNL     1      -0.527 -11.493  21.319  1.00  0.00     0.277 C
BRANCH  29  30
HETATM   30  C16 UNL     1      -1.165 -11.907  22.584  1.00  0.00     0.014 C
HETATM   31  C17 UNL     1      -0.521 -11.499  23.861  1.00  0.00     0.006 C
HETATM   32  C18 UNL     1      -1.651 -11.411  24.913  1.00  0.00     0.000 C
HETATM   33  C19 UNL     1      -2.603 -12.544  24.680  1.00  0.00     0.000 C
HETATM   34  C20 UNL     1      -1.893 -13.740  24.034  1.00  0.00     0.000 C
HETATM   35  C21 UNL     1      -1.387 -13.412  22.659  1.00  0.00     0.006 C
ENDBRANCH  29  30
ENDBRANCH  26  29
ENDBRANCH  22  23
ENDBRANCH  20  22
ENDBRANCH  13  18
BRANCH   1  36
HETATM   36  C2  UNL     1       4.233   3.447  19.666  1.00  0.00     0.133 C
HETATM   37  C1  UNL     1       4.748   3.263  21.064  1.00  0.00     0.027 C
ENDBRANCH   1  36
TORSDOF 6
ENDMDL