MODEL 2
REMARK VINA RESULT: -8.493811004      4.869      7.948
REMARK  5 active torsions:
REMARK  status: ('A' for Active; 'I' for Inactive)
REMARK       I    between atoms: C2_2  and  N1_4
REMARK    1  A    between atoms: N1_4  and  C3_6
REMARK    2  A    between atoms: C17_20  and  C18_21
REMARK    3  A    between atoms: C18_21  and  C20_23
REMARK       I    between atoms: C20_23  and  N2_25
REMARK    4  A    between atoms: N2_25  and  C21_27
REMARK    5  A    between atoms: C21_27  and  C23_29
ROOT
HETATM    1  C3  UNL     1      -3.558  -7.684  17.639  1.00  0.00     0.088 C
HETATM    2  C4  UNL     1      -4.123  -7.980  18.992  1.00  0.00     0.026 C
HETATM    3  C5  UNL     1      -3.135  -8.186  20.080  1.00  0.00     0.016 C
HETATM    4  C6  UNL     1      -1.718  -8.381  19.636  1.00  0.00    -0.017 C
HETATM    5  C7  UNL     1      -1.145  -7.012  19.285  1.00  0.00     0.020 C
HETATM    6  C8  UNL     1      -1.720  -9.194  18.410  1.00  0.00    -0.073 C
HETATM    7  C9  UNL     1      -1.026 -10.314  18.266  1.00  0.00    -0.023 C
HETATM    8  C10 UNL     1      -0.163 -10.861  19.359  1.00  0.00     0.033 C
HETATM    9  C11 UNL     1      -0.798 -10.445  20.668  1.00  0.00    -0.001 C
HETATM   10  C12 UNL     1      -0.844  -8.952  20.729  1.00  0.00     0.003 C
HETATM   11  C13 UNL     1      -1.405  -8.650  22.104  1.00  0.00     0.007 C
HETATM   12  C14 UNL     1      -0.281  -8.962  23.093  1.00  0.00     0.010 C
HETATM   13  C15 UNL     1       0.309 -10.306  22.977  1.00  0.00    -0.032 C
HETATM   14  C16 UNL     1       1.763 -10.178  22.463  1.00  0.00     0.016 C
HETATM   15  C17 UNL     1       0.186 -11.246  24.095  1.00  0.00     0.028 C
HETATM   16  C26 UNL     1      -1.294 -11.642  24.002  1.00  0.00     0.010 C
HETATM   17  C27 UNL     1      -1.398 -11.992  22.540  1.00  0.00     0.006 C
HETATM   18  C28 UNL     1      -0.340 -11.151  21.861  1.00  0.00    -0.001 C
HETATM   19  C29 UNL     1      -2.546  -8.718  17.274  1.00  0.00     0.059 C
ENDROOT
BRANCH  15  20
HETATM   20  C18 UNL     1       0.565 -11.047  25.468  1.00  0.00    -0.011 C
HETATM   21  C19 UNL     1       1.620 -11.946  26.079  1.00  0.00     0.050 C
BRANCH  20  22
HETATM   22  C20 UNL     1      -0.434 -10.823  26.514  1.00  0.00     0.244 C
HETATM   23  O2  UNL     1      -0.754 -11.716  27.312  1.00  0.00    -0.268 OA
HETATM   24  N2  UNL     1      -1.124  -9.561  26.710  1.00  0.00    -0.353 N
ATOM     25  H2  UNL     1      -0.910  -8.780  26.089  1.00  0.00     0.163 HD
BRANCH  24  26
HETATM   26  C21 UNL     1      -2.094  -9.375  27.743  1.00  0.00     0.084 C
HETATM   27  C22 UNL     1      -1.624  -8.253  28.679  1.00  0.00     0.032 C
BRANCH  26  28
HETATM   28  C23 UNL     1      -3.453  -8.991  27.250  1.00  0.00    -0.000 C
HETATM   29  C24 UNL     1      -3.703  -9.319  25.797  1.00  0.00     0.011 C
HETATM   30  C25 UNL     1      -4.547  -9.720  28.044  1.00  0.00     0.011 C
ENDBRANCH  26  28
ENDBRANCH  24  26
ENDBRANCH  20  22
ENDBRANCH  15  20
BRANCH   1  31
HETATM   31  N1  UNL     1      -4.708  -7.712  16.719  1.00  0.00    -0.356 N
HETATM   32  C2  UNL     1      -4.994  -6.694  15.801  1.00  0.00     0.213 C
HETATM   33  C1  UNL     1      -6.174  -6.787  14.901  1.00  0.00     0.117 C
HETATM   34  O1  UNL     1      -4.258  -5.666  15.710  1.00  0.00    -0.274 OA
ATOM     35  H1  UNL     1      -5.331  -8.518  16.753  1.00  0.00     0.162 HD
ENDBRANCH   1  31
TORSDOF 5
ENDMDL