MODEL 1
REMARK VINA RESULT: -7.589050920      0.000      0.000
REMARK  6 active torsions:
REMARK  status: ('A' for Active; 'I' for Inactive)
REMARK    1  A    between atoms: C2_2  and  C4_4
REMARK    2  A    between atoms: C14_14  and  N1_16
REMARK       I    between atoms: N1_16  and  C16_18
REMARK    3  A    between atoms: C16_18  and  C17_20
REMARK    4  A    between atoms: C17_20  and  N2_21
REMARK    5  A    between atoms: N2_21  and  C20_24
REMARK    6  A    between atoms: C20_24  and  O2_25
ROOT
HETATM    1  C4  UNL     1      -2.489  -8.217  17.757  1.00  0.00     0.022 C
HETATM    2  C5  UNL     1      -1.261  -9.163  17.673  1.00  0.00     0.010 C
HETATM    3  C6  UNL     1      -1.299  -9.949  18.952  1.00  0.00     0.006 C
HETATM    4  C7  UNL     1      -2.321  -9.298  19.840  1.00  0.00    -0.001 C
HETATM    5  C8  UNL     1      -1.933  -9.205  21.294  1.00  0.00    -0.005 C
HETATM    6  C9  UNL     1      -1.889 -10.596  21.805  1.00  0.00     0.005 C
HETATM    7  C10 UNL     1      -1.361 -10.810  23.167  1.00  0.00     0.001 C
HETATM    8  C11 UNL     1       0.002 -10.301  23.426  1.00  0.00     0.005 C
HETATM    9  C12 UNL     1       0.175  -8.863  23.730  1.00  0.00    -0.004 C
HETATM   10  C13 UNL     1       0.067  -8.513  25.203  1.00  0.00     0.036 C
HETATM   11  C14 UNL     1       0.822  -7.244  25.389  1.00  0.00     0.029 C
HETATM   12  C15 UNL     1       0.449  -6.720  26.784  1.00  0.00     0.038 C
HETATM   13  C21 UNL     1       0.478  -6.165  24.417  1.00  0.00     0.031 C
HETATM   14  C22 UNL     1       0.230  -6.577  23.001  1.00  0.00     0.012 C
HETATM   15  C23 UNL     1      -0.590  -7.879  22.902  1.00  0.00    -0.036 C
HETATM   16  C24 UNL     1      -1.902  -7.465  23.515  1.00  0.00     0.016 C
HETATM   17  C25 UNL     1      -0.699  -8.397  21.512  1.00  0.00    -0.002 C
HETATM   18  C26 UNL     1      -0.509  -7.417  20.405  1.00  0.00     0.006 C
HETATM   19  C27 UNL     1      -1.750  -6.910  19.744  1.00  0.00     0.010 C
HETATM   20  C28 UNL     1      -2.664  -7.979  19.210  1.00  0.00    -0.033 C
HETATM   21  C29 UNL     1      -4.066  -7.524  19.570  1.00  0.00     0.016 C
ENDROOT
BRANCH  11  22
HETATM   22  N1  UNL     1       2.257  -7.421  25.402  1.00  0.00    -0.351 N
HETATM   23  C16 UNL     1       2.946  -8.486  26.040  1.00  0.00     0.244 C
HETATM   24  O1  UNL     1       2.273  -9.350  26.649  1.00  0.00    -0.272 OA
ATOM     25  H1  UNL     1       2.820  -6.724  24.914  1.00  0.00     0.163 HD
BRANCH  23  26
HETATM   26  C17 UNL     1       4.404  -8.627  26.022  1.00  0.00     0.341 C
BRANCH  26  27
HETATM   27  N2  UNL     1       4.975  -8.864  24.721  1.00  0.00    -0.046 N
HETATM   28  C18 UNL     1       5.726  -7.688  24.301  1.00  0.00     0.275 C
HETATM   29  C19 UNL     1       4.041  -9.274  23.718  1.00  0.00     0.275 C
BRANCH  27  30
HETATM   30  C20 UNL     1       5.972  -9.927  24.872  1.00  0.00     0.401 C
BRANCH  30  31
HETATM   31  O2  UNL     1       7.097  -9.658  24.097  1.00  0.00    -0.374 OA
ATOM     32  H2  UNL     1       7.139 -10.245  23.352  1.00  0.00     0.211 HD
ENDBRANCH  30  31
ENDBRANCH  27  30
ENDBRANCH  26  27
ENDBRANCH  23  26
ENDBRANCH  11  22
BRANCH   1  33
HETATM   33  C2  UNL     1      -3.515  -8.904  16.990  1.00  0.00    -0.088 C
HETATM   34  C1  UNL     1      -3.670 -10.159  16.706  1.00  0.00     0.014 C
HETATM   35  C3  UNL     1      -4.619  -7.987  16.441  1.00  0.00     0.043 C
ENDBRANCH   1  33
TORSDOF 6
ENDMDL