MODEL 5
REMARK VINA RESULT: -7.570999603      3.396      8.916
REMARK  7 active torsions:
REMARK  status: ('A' for Active; 'I' for Inactive)
REMARK    1  A    between atoms: C2_2  and  C3_3
REMARK    2  A    between atoms: C2_2  and  C10_13
REMARK    3  A    between atoms: C3_3  and  N1_4
REMARK       I    between atoms: N1_4  and  C4_6
REMARK    4  A    between atoms: C4_6  and  C5_8
REMARK    5  A    between atoms: C5_8  and  C6_9
REMARK    6  A    between atoms: C13_16  and  O2_17
REMARK    7  A    between atoms: C15_20  and  N2_21
ROOT
HETATM    1  C10 UNL     1       1.260  -2.519  21.980  1.00  0.00     0.002 C
HETATM    2  C11 UNL     1       1.214  -2.017  20.558  1.00  0.00     0.009 C
HETATM    3  C12 UNL     1       0.899  -3.351  19.857  1.00  0.00     0.039 C
HETATM    4  C13 UNL     1      -0.126  -4.048  20.748  1.00  0.00     0.067 C
HETATM    5  C14 UNL     1      -0.121  -5.490  20.524  1.00  0.00     0.072 C
HETATM    6  C15 UNL     1      -0.193  -6.416  21.663  1.00  0.00     0.193 C
HETATM    7  C26 UNL     1      -0.391  -5.711  23.010  1.00  0.00     0.034 C
HETATM    8  C27 UNL     1       0.616  -4.616  23.062  1.00  0.00     0.014 C
HETATM    9  C28 UNL     1       0.155  -3.508  22.117  1.00  0.00    -0.009 C
HETATM   10  C29 UNL     1      -1.136  -2.985  22.668  1.00  0.00     0.019 C
ENDROOT
BRANCH   1  11
HETATM   11  C2  UNL     1       1.563  -1.563  23.032  1.00  0.00     0.004 C
HETATM   12  C1  UNL     1       3.116  -1.540  23.230  1.00  0.00     0.012 C
BRANCH  11  13
HETATM   13  C3  UNL     1       1.261  -0.108  22.792  1.00  0.00     0.127 C
BRANCH  13  14
HETATM   14  N1  UNL     1       2.434   0.597  22.280  1.00  0.00    -0.361 N
HETATM   15  C4  UNL     1       2.250   1.731  21.450  1.00  0.00     0.218 C
HETATM   16  O1  UNL     1       1.070   2.100  21.172  1.00  0.00    -0.274 OA
ATOM     17  H1  UNL     1       3.374   0.278  22.517  1.00  0.00     0.162 HD
BRANCH  15  18
HETATM   18  C5  UNL     1       3.389   2.506  20.890  1.00  0.00     0.111 C
BRANCH  18  19
HETATM   19  C6  UNL     1       3.818   1.921  19.553  1.00  0.00    -0.043 C
HETATM   20  C7  UNL     1       3.917   0.409  19.630  1.00  0.00     0.015 C
HETATM   21  C8  UNL     1       5.187   2.478  19.252  1.00  0.00     0.015 C
HETATM   22  C9  UNL     1       2.876   2.280  18.439  1.00  0.00     0.015 C
ENDBRANCH  18  19
ENDBRANCH  15  18
ENDBRANCH  13  14
ENDBRANCH  11  13
ENDBRANCH   1  11
BRANCH   4  23
HETATM   23  O2  UNL     1      -1.344  -3.456  20.312  1.00  0.00    -0.389 OA
ATOM     24  H2  UNL     1      -1.972  -4.146  20.489  1.00  0.00     0.210 HD
ENDBRANCH   4  23
BRANCH   6  25
HETATM   25  N2  UNL     1      -1.120  -7.511  21.504  1.00  0.00    -0.061 N
HETATM   26  C16 UNL     1      -2.161  -7.236  20.554  1.00  0.00     0.273 C
HETATM   27  C17 UNL     1      -1.793  -7.785  22.784  1.00  0.00     0.239 C
HETATM   28  C18 UNL     1      -2.386  -9.158  22.677  1.00  0.00     0.039 C
HETATM   29  C19 UNL     1      -1.448  -9.844  21.713  1.00  0.00    -0.010 C
HETATM   30  C20 UNL     1      -2.186 -10.511  20.580  1.00  0.00     0.018 C
HETATM   31  C21 UNL     1      -0.628 -10.828  22.487  1.00  0.00    -0.008 C
HETATM   32  C25 UNL     1      -0.512  -8.761  21.212  1.00  0.00     0.199 C
HETATM   33  C22 UNL     1      -1.068 -12.252  22.318  1.00  0.00     0.011 C
HETATM   34  C23 UNL     1       0.772 -10.564  21.996  1.00  0.00     0.007 C
HETATM   35  C24 UNL     1       0.767  -9.030  21.957  1.00  0.00     0.035 C
ENDBRANCH   6  25
TORSDOF 7
ENDMDL