MODEL 2
REMARK VINA RESULT: -7.809584936      1.935      3.004
REMARK  5 active torsions:
REMARK  status: ('A' for Active; 'I' for Inactive)
REMARK    1  A    between atoms: C2_2  and  C3_3
REMARK    2  A    between atoms: C3_3  and  C4_4
REMARK    3  A    between atoms: C4_4  and  N1_5
REMARK       I    between atoms: N1_5  and  C6_7
REMARK       I    between atoms: C6_7  and  N2_9
REMARK    4  A    between atoms: N2_9  and  C7_11
REMARK    5  A    between atoms: C20_24  and  C22_26
ROOT
HETATM    1  C7  UNL     1      -0.621  -6.614  19.884  1.00  0.00     0.086 C
HETATM    2  C8  UNL     1      -0.973  -6.789  21.326  1.00  0.00     0.026 C
HETATM    3  C9  UNL     1      -1.171  -5.439  22.033  1.00  0.00     0.008 C
HETATM    4  C10 UNL     1      -0.077  -4.558  21.499  1.00  0.00    -0.002 C
HETATM    5  C11 UNL     1      -0.304  -4.111  20.085  1.00  0.00    -0.008 C
HETATM    6  C12 UNL     1       1.076  -3.737  19.542  1.00  0.00     0.005 C
HETATM    7  C13 UNL     1       1.929  -3.091  20.656  1.00  0.00     0.006 C
HETATM    8  C14 UNL     1       1.004  -2.412  21.588  1.00  0.00     0.003 C
HETATM    9  C15 UNL     1       0.291  -3.420  22.437  1.00  0.00    -0.036 C
HETATM   10  C16 UNL     1       1.083  -4.040  23.538  1.00  0.00     0.016 C
HETATM   11  C17 UNL     1      -0.942  -2.686  22.940  1.00  0.00     0.010 C
HETATM   12  C18 UNL     1      -0.528  -1.417  23.628  1.00  0.00     0.007 C
HETATM   13  C19 UNL     1       0.229  -0.447  22.732  1.00  0.00     0.011 C
HETATM   14  C20 UNL     1       0.438   0.838  23.421  1.00  0.00     0.039 C
HETATM   15  C21 UNL     1       0.383   1.979  22.384  1.00  0.00     0.025 C
HETATM   16  C23 UNL     1       1.693   0.976  24.212  1.00  0.00     0.019 C
HETATM   17  C24 UNL     1       2.835   0.130  23.771  1.00  0.00     0.002 C
HETATM   18  C25 UNL     1       2.414  -1.300  23.396  1.00  0.00     0.010 C
HETATM   19  C26 UNL     1       1.478  -1.171  22.271  1.00  0.00    -0.035 C
HETATM   20  C27 UNL     1       2.227  -0.431  21.169  1.00  0.00     0.016 C
HETATM   21  C28 UNL     1      -0.913  -5.256  19.320  1.00  0.00     0.030 C
ENDROOT
BRANCH   1  22
HETATM   22  N2  UNL     1      -1.348  -7.571  19.041  1.00  0.00    -0.338 N
HETATM   23  C6  UNL     1      -2.683  -7.429  18.644  1.00  0.00     0.318 C
HETATM   24  N1  UNL     1      -3.281  -8.403  17.828  1.00  0.00    -0.339 N
HETATM   25  O1  UNL     1      -3.346  -6.438  19.013  1.00  0.00    -0.247 OA
HETATM   26  C5  UNL     1      -2.511  -9.565  17.360  1.00  0.00     0.154 C
ATOM     27  H2  UNL     1      -0.845  -8.399  18.721  1.00  0.00     0.164 HD
BRANCH  24  28
HETATM   28  C4  UNL     1      -4.667  -8.245  17.441  1.00  0.00     0.127 C
BRANCH  28  29
HETATM   29  C3  UNL     1      -4.885  -8.327  15.950  1.00  0.00     0.020 C
BRANCH  29  30
HETATM   30  C2  UNL     1      -5.712  -7.122  15.553  1.00  0.00    -0.003 C
HETATM   31  C1  UNL     1      -4.841  -5.902  15.807  1.00  0.00     0.005 C
ENDBRANCH  29  30
ENDBRANCH  28  29
ENDBRANCH  24  28
ENDBRANCH   1  22
BRANCH  14  32
HETATM   32  C22 UNL     1      -0.705   1.124  24.337  1.00  0.00     0.239 C
HETATM   33  N3  UNL     1      -2.024   1.394  23.931  1.00  0.00    -0.061 NA
HETATM   34  O2  UNL     1      -0.504   1.127  25.584  1.00  0.00    -0.276 OA
ENDBRANCH  14  32
TORSDOF 5
ENDMDL