MODEL 1
REMARK VINA RESULT: -8.063623415      0.000      0.000
REMARK  7 active torsions:
REMARK  status: ('A' for Active; 'I' for Inactive)
REMARK    1  A    between atoms: C4_4  and  C5_5
REMARK    2  A    between atoms: C5_5  and  C6_6
REMARK    3  A    between atoms: C6_6  and  C7_7
REMARK    4  A    between atoms: C7_7  and  N1_8
REMARK    5  A    between atoms: C8_10  and  O1_12
REMARK    6  A    between atoms: C18_23  and  C20_25
REMARK       I    between atoms: C20_25  and  N3_27
REMARK    7  A    between atoms: N3_27  and  C21_29
ROOT
HETATM    1  C1  UNL     1      -3.695  -9.208  17.439  1.00  0.00     0.043 C
HETATM    2  C2  UNL     1      -2.632  -8.788  18.419  1.00  0.00    -0.083 C
HETATM    3  C3  UNL     1      -2.420  -7.548  18.765  1.00  0.00    -0.019 C
HETATM    4  C4  UNL     1      -1.314  -7.484  19.740  1.00  0.00     0.013 C
HETATM    5  C9  UNL     1      -0.619  -8.805  19.584  1.00  0.00     0.002 C
HETATM    6  C10 UNL     1       0.161  -9.279  20.737  1.00  0.00     0.016 C
HETATM    7  C11 UNL     1      -0.032 -10.724  21.087  1.00  0.00    -0.032 C
HETATM    8  C12 UNL     1      -1.509 -10.982  21.254  1.00  0.00     0.011 C
HETATM    9  C13 UNL     1      -2.322 -10.599  20.066  1.00  0.00     0.010 C
HETATM   10  C14 UNL     1      -1.694  -9.709  19.084  1.00  0.00     0.018 C
HETATM   11  C15 UNL     1       0.499 -11.684  20.093  1.00  0.00     0.011 C
HETATM   12  C16 UNL     1       0.957 -12.871  20.882  1.00  0.00     0.007 C
HETATM   13  C17 UNL     1       0.807 -12.546  22.336  1.00  0.00     0.012 C
HETATM   14  C18 UNL     1       1.909 -13.192  23.098  1.00  0.00     0.042 C
HETATM   15  C19 UNL     1       2.213 -14.545  22.426  1.00  0.00     0.026 C
HETATM   16  C24 UNL     1       3.197 -12.446  23.103  1.00  0.00     0.019 C
HETATM   17  C25 UNL     1       3.085 -10.956  23.207  1.00  0.00     0.002 C
HETATM   18  C26 UNL     1       2.073 -10.386  22.242  1.00  0.00     0.010 C
HETATM   19  C27 UNL     1       0.731 -11.069  22.351  1.00  0.00    -0.032 C
HETATM   20  C28 UNL     1       0.036 -10.517  23.582  1.00  0.00     0.016 C
ENDROOT
BRANCH   4  21
HETATM   21  C5  UNL     1      -1.992  -7.293  21.087  1.00  0.00     0.010 C
BRANCH  21  22
HETATM   22  C6  UNL     1      -1.330  -6.107  21.817  1.00  0.00     0.020 C
BRANCH  22  23
HETATM   23  C7  UNL     1      -0.377  -5.396  20.874  1.00  0.00     0.123 C
BRANCH  23  24
HETATM   24  N1  UNL     1      -1.096  -4.423  20.076  1.00  0.00    -0.359 N
HETATM   25  C8  UNL     1      -0.485  -3.621  19.256  1.00  0.00     0.225 C
HETATM   26  N2  UNL     1       0.924  -3.621  19.068  1.00  0.00    -0.057 NA
ATOM     27  H1  UNL     1      -2.110  -4.366  20.160  1.00  0.00     0.162 HD
BRANCH  25  28
HETATM   28  O1  UNL     1      -1.234  -2.713  18.523  1.00  0.00    -0.335 OA
ATOM     29  H1  UNL     1      -1.422  -1.861  18.900  1.00  0.00     0.220 HD
ENDBRANCH  25  28
ENDBRANCH  23  24
ENDBRANCH  22  23
ENDBRANCH  21  22
ENDBRANCH   4  21
BRANCH  14  30
HETATM   30  C20 UNL     1       1.547 -13.551  24.494  1.00  0.00     0.226 C
HETATM   31  O2  UNL     1       2.369 -13.576  25.442  1.00  0.00    -0.273 OA
HETATM   32  N3  UNL     1       0.220 -13.897  24.868  1.00  0.00    -0.357 N
ATOM     33  H3  UNL     1      -0.498 -13.895  24.144  1.00  0.00     0.162 HD
BRANCH  32  34
HETATM   34  C21 UNL     1      -0.172 -14.250  26.212  1.00  0.00     0.076 C
HETATM   35  C22 UNL     1      -1.317 -13.432  26.739  1.00  0.00     0.032 C
HETATM   36  C23 UNL     1      -0.581 -15.716  26.303  1.00  0.00     0.032 C
ENDBRANCH  32  34
ENDBRANCH  14  30
TORSDOF 7
ENDMDL