MODEL 4
REMARK VINA RESULT: -5.753589827      2.993      7.010
REMARK  10 active torsions:
REMARK  status: ('A' for Active; 'I' for Inactive)
REMARK    1  A    between atoms: C2_2  and  C3_3
REMARK    2  A    between atoms: C3_3  and  C4_4
REMARK    3  A    between atoms: C4_4  and  C5_5
REMARK    4  A    between atoms: C6_6  and  C7_7
REMARK    5  A    between atoms: C12_14  and  O3_15
REMARK    6  A    between atoms: C16_19  and  O4_20
REMARK    7  A    between atoms: C22_29  and  C23_30
REMARK    8  A    between atoms: C22_29  and  C24_33
REMARK    9  A    between atoms: C24_33  and  C26_35
REMARK   10  A    between atoms: C26_35  and  O9_38
ROOT
HETATM    1  C7  UNL     1      -2.496 -34.413  21.782  1.00  0.00     0.194 C
HETATM    2  O1  UNL     1      -1.477 -33.499  21.879  1.00  0.00    -0.338 OA
HETATM    3  C8  UNL     1      -0.385 -33.795  22.643  1.00  0.00     0.223 C
HETATM    4  C9  UNL     1      -0.831 -33.556  24.100  1.00  0.00     0.085 C
HETATM    5  O2  UNL     1       0.539 -32.836  22.409  1.00  0.00    -0.332 OA
HETATM    6  C10 UNL     1       1.860 -33.020  22.535  1.00  0.00     0.116 C
HETATM    7  C11 UNL     1       2.553 -32.160  23.550  1.00  0.00     0.054 C
HETATM    8  C12 UNL     1       2.437 -32.574  21.228  1.00  0.00     0.077 C
HETATM    9  C14 UNL     1       2.100 -33.320  20.196  1.00  0.00     0.012 C
HETATM   10  C15 UNL     1       1.206 -34.514  20.359  1.00  0.00     0.074 C
HETATM   11  C16 UNL     1       1.365 -35.199  21.687  1.00  0.00     0.130 C
HETATM   12  C17 UNL     1       2.305 -34.470  22.605  1.00  0.00     0.069 C
HETATM   13  C18 UNL     1       2.359 -35.051  23.956  1.00  0.00     0.043 C
HETATM   14  C19 UNL     1       1.309 -36.159  24.114  1.00  0.00     0.122 C
HETATM   15  C20 UNL     1       1.202 -36.373  25.636  1.00  0.00     0.040 C
HETATM   16  O5  UNL     1       0.093 -35.812  23.649  1.00  0.00    -0.343 OA
HETATM   17  C21 UNL     1      -0.004 -35.220  22.401  1.00  0.00     0.256 C
HETATM   18  O6  UNL     1      -0.745 -35.973  21.595  1.00  0.00    -0.322 OA
HETATM   19  C22 UNL     1      -2.106 -35.801  21.417  1.00  0.00     0.187 C
ENDROOT
BRANCH  19  20
HETATM   20  C23 UNL     1      -2.735 -36.799  22.374  1.00  0.00     0.213 C
HETATM   21  O7  UNL     1      -2.062 -37.649  23.007  1.00  0.00    -0.646 OA
HETATM   22  O8  UNL     1      -4.096 -36.849  22.624  1.00  0.00    -0.646 OA
ENDBRANCH  19  20
BRANCH  19  23
HETATM   23  C24 UNL     1      -2.303 -36.216  20.004  1.00  0.00     0.064 C
HETATM   24  C25 UNL     1      -2.252 -34.920  19.128  1.00  0.00     0.017 C
BRANCH  23  25
HETATM   25  C26 UNL     1      -1.503 -37.151  19.252  1.00  0.00     0.057 C
HETATM   26  C27 UNL     1      -0.891 -38.356  19.855  1.00  0.00     0.045 C
HETATM   27  C28 UNL     1      -0.558 -36.534  18.210  1.00  0.00     0.045 C
BRANCH  25  28
HETATM   28  O9  UNL     1      -2.496 -37.764  18.390  1.00  0.00    -0.390 OA
ATOM     29  H9  UNL     1      -3.249 -37.203  18.532  1.00  0.00     0.210 HD
ENDBRANCH  25  28
ENDBRANCH  23  25
ENDBRANCH  19  23
BRANCH   1  30
HETATM   30  C6  UNL     1      -3.414 -34.368  22.980  1.00  0.00     0.004 C
HETATM   31  C5  UNL     1      -4.178 -33.297  23.211  1.00  0.00    -0.028 C
BRANCH  31  32
HETATM   32  C4  UNL     1      -5.095 -33.202  24.369  1.00  0.00     0.027 C
BRANCH  32  33
HETATM   33  C3  UNL     1      -5.733 -31.834  24.444  1.00  0.00     0.003 C
BRANCH  33  34
HETATM   34  C2  UNL     1      -4.925 -30.982  25.416  1.00  0.00    -0.004 C
HETATM   35  C1  UNL     1      -5.242 -29.523  25.264  1.00  0.00     0.005 C
ENDBRANCH  33  34
ENDBRANCH  32  33
ENDBRANCH  31  32
ENDBRANCH   1  30
BRANCH  11  36
HETATM   36  O4  UNL     1       1.788 -36.503  21.403  1.00  0.00    -0.383 OA
ATOM     37  H4  UNL     1       1.063 -37.071  21.634  1.00  0.00     0.210 HD
ENDBRANCH  11  36
BRANCH   8  38
HETATM   38  O3  UNL     1       3.252 -31.492  21.050  1.00  0.00    -0.357 OA
HETATM   39  C13 UNL     1       4.221 -31.322  20.069  1.00  0.00     0.209 C
ENDBRANCH   8  38
TORSDOF 10
ENDMDL