MODEL 5
REMARK VINA RESULT: -5.980889301      7.658     11.978
REMARK  15 active torsions:
REMARK  status: ('A' for Active; 'I' for Inactive)
REMARK    1  A    between atoms: C2_2  and  C3_3
REMARK    2  A    between atoms: C3_3  and  C4_4
REMARK    3  A    between atoms: C4_4  and  C5_5
REMARK    4  A    between atoms: C9_10  and  O2_11
REMARK    5  A    between atoms: O2_11  and  C10_12
REMARK    6  A    between atoms: C12_15  and  O4_16
REMARK    7  A    between atoms: O4_16  and  C13_17
REMARK    8  A    between atoms: C16_21  and  O6_22
REMARK    9  A    between atoms: C17_24  and  C18_25
REMARK   10  A    between atoms: C18_25  and  C20_27
REMARK   11  A    between atoms: C18_25  and  C23_32
REMARK   12  A    between atoms: C20_27  and  O7_28
REMARK   13  A    between atoms: O7_28  and  C21_29
REMARK   14  A    between atoms: C23_32  and  C24_33
REMARK   15  A    between atoms: C24_33  and  O9_34
ROOT
HETATM    1  C5  UNL     1      -1.588 -34.245  22.417  1.00  0.00     0.074 C
HETATM    2  C6  UNL     1      -3.093 -34.256  22.299  1.00  0.00     0.047 C
HETATM    3  O1  UNL     1      -1.452 -33.313  23.517  1.00  0.00    -0.371 OA
HETATM    4  C7  UNL     1      -0.145 -33.539  23.859  1.00  0.00     0.160 C
HETATM    5  C8  UNL     1       0.176 -32.811  25.169  1.00  0.00     0.070 C
HETATM    6  C9  UNL     1       1.522 -33.399  25.612  1.00  0.00     0.164 C
HETATM    7  C12 UNL     1       1.230 -34.812  25.974  1.00  0.00     0.164 C
HETATM    8  C15 UNL     1       0.943 -35.579  24.660  1.00  0.00     0.076 C
HETATM    9  C16 UNL     1      -0.273 -35.057  24.103  1.00  0.00     0.093 C
HETATM   10  C17 UNL     1      -0.957 -35.506  22.897  1.00  0.00     0.068 C
ENDROOT
BRANCH  10  11
HETATM   11  C18 UNL     1      -0.393 -36.461  21.941  1.00  0.00    -0.010 C
HETATM   12  C19 UNL     1       0.010 -37.773  22.682  1.00  0.00     0.018 C
BRANCH  11  13
HETATM   13  C20 UNL     1       0.911 -36.109  21.264  1.00  0.00     0.188 C
BRANCH  13  14
HETATM   14  O7  UNL     1       0.723 -36.179  19.822  1.00  0.00    -0.321 OA
BRANCH  14  15
HETATM   15  C21 UNL     1       1.363 -35.315  18.986  1.00  0.00     0.254 C
HETATM   16  C22 UNL     1       2.198 -34.224  19.562  1.00  0.00     0.126 C
HETATM   17  O8  UNL     1       1.270 -35.409  17.750  1.00  0.00    -0.266 OA
ENDBRANCH  14  15
ENDBRANCH  13  14
ENDBRANCH  11  13
BRANCH  11  18
HETATM   18  C23 UNL     1      -1.310 -36.960  20.872  1.00  0.00     0.050 C
BRANCH  18  19
HETATM   19  C24 UNL     1      -2.333 -37.920  20.916  1.00  0.00     0.065 C
HETATM   20  C25 UNL     1      -3.638 -37.558  20.138  1.00  0.00     0.065 C
HETATM   21  C26 UNL     1      -4.539 -38.576  20.765  1.00  0.00    -0.028 C
HETATM   22  C27 UNL     1      -3.806 -39.632  21.078  1.00  0.00    -0.028 C
HETATM   23  C28 UNL     1      -2.370 -39.345  20.665  1.00  0.00     0.065 C
BRANCH  19  24
HETATM   24  O9  UNL     1      -2.903 -37.801  22.249  1.00  0.00    -0.389 OA
ATOM     25  H9  UNL     1      -3.745 -37.381  22.120  1.00  0.00     0.210 HD
ENDBRANCH  19  24
ENDBRANCH  18  19
ENDBRANCH  11  18
ENDBRANCH  10  11
BRANCH   1  26
HETATM   26  C4  UNL     1      -0.996 -33.477  21.353  1.00  0.00     0.118 C
BRANCH  26  27
HETATM   27  C3  UNL     1      -1.614 -33.442  20.213  1.00  0.00    -0.180 C
BRANCH  27  28
HETATM   28  C2  UNL     1      -2.096 -33.374  18.978  1.00  0.00     0.075 C
HETATM   29  C1  UNL     1      -2.268 -34.634  18.268  1.00  0.00     0.017 C
ENDBRANCH  27  28
ENDBRANCH  26  27
ENDBRANCH   1  26
BRANCH   9  30
HETATM   30  O6  UNL     1      -1.204 -35.048  25.194  1.00  0.00    -0.387 OA
ATOM     31  H6  UNL     1      -1.237 -35.978  25.383  1.00  0.00     0.210 HD
ENDBRANCH   9  30
BRANCH   7  32
HETATM   32  O4  UNL     1       2.225 -35.448  26.709  1.00  0.00    -0.314 OA
BRANCH  32  33
HETATM   33  C13 UNL     1       1.991 -35.943  27.980  1.00  0.00     0.255 C
HETATM   34  C14 UNL     1       1.978 -37.395  28.281  1.00  0.00     0.126 C
HETATM   35  O5  UNL     1       1.784 -35.072  28.890  1.00  0.00    -0.266 OA
ENDBRANCH  32  33
ENDBRANCH   7  32
BRANCH   6  36
HETATM   36  O2  UNL     1       2.142 -32.640  26.598  1.00  0.00    -0.314 OA
BRANCH  36  37
HETATM   37  C10 UNL     1       3.339 -31.944  26.397  1.00  0.00     0.255 C
HETATM   38  C11 UNL     1       3.736 -31.556  25.013  1.00  0.00     0.126 C
HETATM   39  O3  UNL     1       4.010 -31.690  27.420  1.00  0.00    -0.266 OA
ENDBRANCH  36  37
ENDBRANCH   6  36
TORSDOF 15
ENDMDL