MODEL 4
REMARK VINA RESULT: -7.868864039      3.811      7.297
REMARK  9 active torsions:
REMARK  status: ('A' for Active; 'I' for Inactive)
REMARK    1  A    between atoms: C5_5  and  C6_6
REMARK    2  A    between atoms: C6_6  and  N1_7
REMARK    3  A    between atoms: C7_8  and  C8_9
REMARK    4  A    between atoms: C12_15  and  N3_16
REMARK    5  A    between atoms: C18_25  and  N5_26
REMARK    6  A    between atoms: C23_31  and  C24_32
REMARK    7  A    between atoms: C24_32  and  O2_33
REMARK    8  A    between atoms: C24_32  and  C25_35
REMARK    9  A    between atoms: C25_35  and  O3_36
ROOT
HETATM    1  N1  UNL     1     -10.388 -31.969  21.902  1.00  0.00    -0.320 N
HETATM    2  C7  UNL     1     -11.679 -31.524  21.847  1.00  0.00     0.089 A
HETATM    3  N2  UNL     1     -12.467 -32.595  21.681  1.00  0.00    -0.339 N
ATOM      4  H2  UNL     1     -13.484 -32.573  21.606  1.00  0.00     0.167 HD
HETATM    5  C11 UNL     1     -11.704 -33.712  21.629  1.00  0.00     0.124 A
HETATM    6  C12 UNL     1     -11.950 -35.052  21.472  1.00  0.00     0.150 A
HETATM    7  N4  UNL     1     -10.957 -35.941  21.456  1.00  0.00    -0.174 N
ATOM      8  H4  UNL     1     -11.184 -36.929  21.338  1.00  0.00     0.186 HD
HETATM    9  C18 UNL     1      -9.654 -35.580  21.590  1.00  0.00     0.684 A
HETATM   10  N6  UNL     1      -9.448 -34.260  21.741  1.00  0.00    -0.174 N
ATOM     11  H6  UNL     1      -8.480 -33.953  21.845  1.00  0.00     0.186 HD
HETATM   12  C26 UNL     1     -10.389 -33.309  21.769  1.00  0.00     0.155 A
ENDROOT
BRANCH   9  13
HETATM   13  N5  UNL     1      -8.598 -36.521  21.567  1.00  0.00    -0.206 N
HETATM   14  C19 UNL     1      -8.101 -37.190  20.418  1.00  0.00     0.098 C
HETATM   15  C20 UNL     1      -8.311 -36.440  19.122  1.00  0.00     0.033 C
HETATM   16  C21 UNL     1      -6.625 -37.353  20.640  1.00  0.00     0.027 C
HETATM   17  C22 UNL     1      -6.483 -37.143  22.137  1.00  0.00     0.030 C
HETATM   18  C23 UNL     1      -7.848 -36.966  22.707  1.00  0.00     0.133 C
BRANCH  18  19
HETATM   19  C24 UNL     1      -8.416 -38.165  23.386  1.00  0.00     0.165 C
BRANCH  19  20
HETATM   20  O2  UNL     1      -9.766 -38.382  23.181  1.00  0.00    -0.391 OA
ATOM     21  H2  UNL     1     -10.169 -39.027  23.751  1.00  0.00     0.210 HD
ENDBRANCH  19  20
BRANCH  19  22
HETATM   22  C25 UNL     1      -7.667 -39.447  23.168  1.00  0.00     0.197 C
BRANCH  22  23
HETATM   23  O3  UNL     1      -7.848 -40.408  24.129  1.00  0.00    -0.398 OA
ATOM     24  H3  UNL     1      -7.306 -41.183  24.040  1.00  0.00     0.209 HD
ENDBRANCH  22  23
ENDBRANCH  19  22
ENDBRANCH  18  19
ENDBRANCH   9  13
BRANCH   6  25
HETATM   25  N3  UNL     1     -13.283 -35.491  21.322  1.00  0.00    -0.356 N
HETATM   26  C13 UNL     1     -13.913 -35.407  19.995  1.00  0.00     0.151 C
HETATM   27  C14 UNL     1     -14.622 -36.723  19.705  1.00  0.00     0.187 C
HETATM   28  O1  UNL     1     -15.562 -36.927  20.703  1.00  0.00    -0.388 OA
HETATM   29  C15 UNL     1     -14.872 -37.237  21.878  1.00  0.00     0.192 C
HETATM   30  C16 UNL     1     -14.097 -36.020  22.380  1.00  0.00     0.105 C
HETATM   31  C17 UNL     1     -13.303 -36.465  23.582  1.00  0.00     0.034 C
ENDBRANCH   6  25
BRANCH   1  32
HETATM   32  C6  UNL     1      -9.249 -31.129  22.055  1.00  0.00     0.136 C
BRANCH  32  33
HETATM   33  C5  UNL     1      -8.863 -30.789  23.471  1.00  0.00     0.004 C
HETATM   34  C4  UNL     1      -8.897 -29.281  23.597  1.00  0.00     0.006 C
HETATM   35  C3  UNL     1      -7.627 -28.739  24.219  1.00  0.00     0.005 C
HETATM   36  C2  UNL     1      -7.491 -29.451  25.554  1.00  0.00    -0.019 C
HETATM   37  C1  UNL     1      -8.745 -29.339  26.378  1.00  0.00     0.010 C
HETATM   38  C28 UNL     1      -7.077 -30.848  25.248  1.00  0.00     0.005 C
HETATM   39  C27 UNL     1      -7.591 -31.398  23.947  1.00  0.00     0.006 C
ENDBRANCH  32  33
ENDBRANCH   1  32
BRANCH   2  40
HETATM   40  C8  UNL     1     -12.186 -30.131  21.947  1.00  0.00     0.054 A
HETATM   41  C9  UNL     1     -12.577 -29.594  23.301  1.00  0.00     0.013 A
HETATM   42  C10 UNL     1     -13.595 -29.873  22.250  1.00  0.00     0.013 A
ENDBRANCH   2  40
TORSDOF 9
ENDMDL