MODEL 5
REMARK VINA RESULT: -6.349497404      3.685      9.358
REMARK  10 active torsions:
REMARK  status: ('A' for Active; 'I' for Inactive)
REMARK    1  A    between atoms: C2_2  and  N1_4
REMARK       I    between atoms: N1_4  and  C4_6
REMARK    2  A    between atoms: C4_6  and  C5_8
REMARK    3  A    between atoms: C5_8  and  S1_9
REMARK    4  A    between atoms: S1_9  and  C6_10
REMARK    5  A    between atoms: C9_16  and  C10_17
REMARK    6  A    between atoms: N3_20  and  C13_21
REMARK    7  A    between atoms: C13_21  and  O2_22
REMARK    8  A    between atoms: C13_21  and  C14_24
REMARK    9  A    between atoms: C14_24  and  O3_25
REMARK   10  A    between atoms: N4_32  and  C19_33
ROOT
HETATM    1  C6  UNL     1      -5.966 -36.882  22.163  1.00  0.00     0.151 A
HETATM    2  N2  UNL     1      -6.111 -35.780  22.979  1.00  0.00    -0.330 N
ATOM      3  H2  UNL     1      -7.048 -35.514  23.281  1.00  0.00     0.168 HD
HETATM    4  C7  UNL     1      -5.055 -35.036  23.396  1.00  0.00     0.092 A
HETATM    5  S2  UNL     1      -4.953 -33.568  24.249  1.00  0.00    -0.082 SA
HETATM    6  C8  UNL     1      -3.271 -33.366  24.143  1.00  0.00     0.064 A
HETATM    7  C9  UNL     1      -2.774 -34.483  23.427  1.00  0.00    -0.009 A
HETATM    8  C17 UNL     1      -3.772 -35.343  23.034  1.00  0.00     0.077 A
HETATM    9  C18 UNL     1      -3.699 -36.477  22.201  1.00  0.00     0.263 A
HETATM   10  O4  UNL     1      -2.601 -36.836  21.811  1.00  0.00    -0.267 OA
HETATM   11  N4  UNL     1      -4.737 -37.210  21.785  1.00  0.00    -0.289 N
ENDROOT
BRANCH   7  12
HETATM   12  C10 UNL     1      -1.294 -34.712  23.431  1.00  0.00    -0.065 C
HETATM   13  C11 UNL     1      -0.462 -33.968  22.469  1.00  0.00     0.055 C
HETATM   14  C12 UNL     1       0.787 -33.371  23.075  1.00  0.00     0.129 C
HETATM   15  N3  UNL     1       0.805 -33.705  24.479  1.00  0.00    -0.363 N
HETATM   16  C15 UNL     1       0.562 -35.069  24.947  1.00  0.00     0.129 C
HETATM   17  C16 UNL     1      -0.597 -35.746  24.174  1.00  0.00     0.055 C
BRANCH  15  18
HETATM   18  C13 UNL     1       1.072 -32.698  25.442  1.00  0.00     0.137 C
BRANCH  18  19
HETATM   19  O2  UNL     1       2.234 -32.802  26.027  1.00  0.00    -0.348 OA
ATOM     20  H2  UNL     1       2.974 -32.585  25.473  1.00  0.00     0.219 HD
ENDBRANCH  18  19
BRANCH  18  21
HETATM   21  C14 UNL     1       0.233 -31.580  25.856  1.00  0.00     0.247 C
BRANCH  21  22
HETATM   22  O3  UNL     1      -0.547 -31.686  26.958  1.00  0.00    -0.393 OA
ATOM     23  H3  UNL     1      -0.764 -30.912  27.465  1.00  0.00     0.210 HD
ENDBRANCH  21  22
ENDBRANCH  18  21
ENDBRANCH  15  18
ENDBRANCH   7  12
BRANCH  11  24
HETATM   24  C19 UNL     1      -4.566 -38.302  20.846  1.00  0.00     0.095 C
HETATM   25  C20 UNL     1      -3.451 -39.251  21.091  1.00  0.00     0.026 C
HETATM   26  C21 UNL     1      -3.621 -40.324  19.971  1.00  0.00     0.002 C
HETATM   27  C22 UNL     1      -3.066 -39.684  18.705  1.00  0.00     0.000 C
HETATM   28  C23 UNL     1      -3.110 -38.193  18.784  1.00  0.00     0.002 C
HETATM   29  C24 UNL     1      -4.329 -37.659  19.467  1.00  0.00     0.026 C
ENDBRANCH  11  24
BRANCH   1  30
HETATM   30  S1  UNL     1      -7.478 -37.692  21.690  1.00  0.00    -0.084 SA
BRANCH  30  31
HETATM   31  C5  UNL     1      -8.734 -37.502  22.920  1.00  0.00     0.185 C
BRANCH  31  32
HETATM   32  C4  UNL     1      -9.623 -36.341  22.835  1.00  0.00     0.227 C
HETATM   33  N1  UNL     1     -11.018 -36.533  22.900  1.00  0.00    -0.357 N
ATOM     34  H1  UNL     1     -11.378 -37.485  22.956  1.00  0.00     0.162 HD
HETATM   35  O1  UNL     1      -9.150 -35.156  22.709  1.00  0.00    -0.273 OA
BRANCH  33  36
HETATM   36  C2  UNL     1     -11.943 -35.457  22.891  1.00  0.00     0.076 C
HETATM   37  C1  UNL     1     -13.129 -35.718  23.781  1.00  0.00     0.032 C
HETATM   38  C3  UNL     1     -12.442 -35.036  21.513  1.00  0.00     0.032 C
ENDBRANCH  33  36
ENDBRANCH  31  32
ENDBRANCH  30  31
ENDBRANCH   1  30
TORSDOF 10
ENDMDL