MODEL 5
REMARK VINA RESULT: -7.541819238      1.579      2.448
REMARK  11 active torsions:
REMARK  status: ('A' for Active; 'I' for Inactive)
REMARK    1  A    between atoms: C2_2  and  C3_3
REMARK    2  A    between atoms: C3_3  and  C4_4
REMARK    3  A    between atoms: C4_4  and  C5_5
REMARK    4  A    between atoms: C5_5  and  C6_6
REMARK    5  A    between atoms: C6_6  and  O2_8
REMARK    6  A    between atoms: O2_8  and  C7_9
REMARK    7  A    between atoms: C9_11  and  O3_12
REMARK    8  A    between atoms: O3_12  and  C10_13
REMARK    9  A    between atoms: C25_32  and  C26_33
REMARK   10  A    between atoms: C26_33  and  O8_34
REMARK   11  A    between atoms: C27_36  and  O9_37
ROOT
HETATM    1  C7  UNL     1     -10.024 -32.466  21.841  1.00  0.00     0.167 C
HETATM    2  C8  UNL     1      -9.688 -33.938  21.804  1.00  0.00     0.096 C
HETATM    3  C9  UNL     1      -9.738 -34.319  20.322  1.00  0.00     0.266 C
HETATM    4  O7  UNL     1     -10.477 -33.461  19.563  1.00  0.00    -0.351 OA
HETATM    5  C25 UNL     1     -11.611 -32.921  20.066  1.00  0.00     0.179 C
HETATM    6  C27 UNL     1     -11.483 -32.355  21.473  1.00  0.00     0.179 C
ENDROOT
BRANCH   3   7
HETATM    7  O3  UNL     1     -10.046 -35.637  20.136  1.00  0.00    -0.331 OA
BRANCH   7   8
HETATM    8  C10 UNL     1      -9.091 -36.539  20.680  1.00  0.00     0.267 C
HETATM    9  C11 UNL     1      -9.533 -37.916  20.408  1.00  0.00     0.065 C
HETATM   10  C12 UNL     1      -8.649 -38.966  19.935  1.00  0.00    -0.009 C
HETATM   11  C13 UNL     1      -8.751 -38.963  18.385  1.00  0.00     0.010 C
HETATM   12  C14 UNL     1      -7.230 -39.052  20.285  1.00  0.00     0.010 C
HETATM   13  C15 UNL     1      -7.049 -40.425  20.938  1.00  0.00    -0.013 C
HETATM   14  C20 UNL     1      -6.627 -38.051  21.165  1.00  0.00     0.053 C
HETATM   15  C16 UNL     1      -5.607 -40.858  20.943  1.00  0.00     0.010 C
HETATM   16  C17 UNL     1      -7.694 -40.558  22.265  1.00  0.00     0.005 C
HETATM   17  C18 UNL     1      -7.721 -39.319  23.084  1.00  0.00     0.001 C
HETATM   18  C19 UNL     1      -6.892 -38.196  22.627  1.00  0.00     0.018 C
HETATM   19  C21 UNL     1      -5.186 -37.632  20.979  1.00  0.00     0.183 C
HETATM   20  C22 UNL     1      -6.782 -36.622  20.688  1.00  0.00     0.216 C
HETATM   21  O4  UNL     1      -5.140 -36.699  22.064  1.00  0.00    -0.231 OA
HETATM   22  C23 UNL     1      -5.488 -36.651  19.901  1.00  0.00     0.081 C
HETATM   23  O5  UNL     1      -6.283 -36.012  21.836  1.00  0.00    -0.199 OA
HETATM   24  C24 UNL     1      -5.438 -36.971  18.493  1.00  0.00     0.018 C
HETATM   25  O6  UNL     1      -7.896 -36.291  20.094  1.00  0.00    -0.321 OA
ENDBRANCH   7   8
ENDBRANCH   3   7
BRANCH   1  26
HETATM   26  O2  UNL     1      -9.699 -31.847  23.043  1.00  0.00    -0.313 OA
BRANCH  26  27
HETATM   27  C6  UNL     1      -8.920 -30.744  23.212  1.00  0.00     0.259 C
HETATM   28  O1  UNL     1      -9.365 -29.635  22.831  1.00  0.00    -0.265 OA
BRANCH  27  29
HETATM   29  C5  UNL     1      -7.598 -30.827  23.820  1.00  0.00     0.111 C
BRANCH  29  30
HETATM   30  C4  UNL     1      -7.484 -30.398  25.237  1.00  0.00     0.010 C
BRANCH  30  31
HETATM   31  C3  UNL     1      -6.132 -30.024  25.721  1.00  0.00     0.000 C
BRANCH  31  32
HETATM   32  C2  UNL     1      -6.327 -29.298  27.059  1.00  0.00    -0.005 C
HETATM   33  C1  UNL     1      -7.646 -28.557  27.091  1.00  0.00     0.005 C
ENDBRANCH  31  32
ENDBRANCH  30  31
ENDBRANCH  29  30
ENDBRANCH  27  29
ENDBRANCH  26  27
ENDBRANCH   1  26
BRANCH   5  34
HETATM   34  C26 UNL     1     -12.861 -33.761  19.945  1.00  0.00     0.198 C
BRANCH  34  35
HETATM   35  O8  UNL     1     -14.003 -33.177  20.421  1.00  0.00    -0.398 OA
ATOM     36  H8  UNL     1     -14.812 -33.603  20.163  1.00  0.00     0.209 HD
ENDBRANCH  34  35
ENDBRANCH   5  34
BRANCH   6  37
HETATM   37  O9  UNL     1     -11.909 -31.057  21.585  1.00  0.00    -0.390 OA
ATOM     38  H9  UNL     1     -12.856 -31.011  21.523  1.00  0.00     0.210 HD
ENDBRANCH   6  37
TORSDOF 11
ENDMDL