MODEL 3
REMARK VINA RESULT: -8.398338297      0.976      1.797
REMARK  10 active torsions:
REMARK  status: ('A' for Active; 'I' for Inactive)
REMARK    1  A    between atoms: C2_2  and  C3_3
REMARK    2  A    between atoms: C3_3  and  C4_5
REMARK    3  A    between atoms: C4_5  and  O2_6
REMARK    4  A    between atoms: C9_15  and  C11_17
REMARK    5  A    between atoms: C11_17  and  O7_19
REMARK    6  A    between atoms: O7_19  and  C12_20
REMARK    7  A    between atoms: C12_20  and  C14_22
REMARK    8  A    between atoms: C15_23  and  C17_26
REMARK    9  A    between atoms: C17_26  and  C18_27
REMARK   10  A    between atoms: C28_37  and  O8_38
ROOT
HETATM    1  C14 UNL     1     -11.918 -29.851  22.385  1.00  0.00     0.023 C
HETATM    2  C15 UNL     1     -11.619 -29.639  23.636  1.00  0.00     0.021 C
HETATM    3  C16 UNL     1     -12.398 -28.644  24.340  1.00  0.00     0.095 C
HETATM    4  N1  UNL     1     -13.034 -27.822  24.881  1.00  0.00    -0.192 NA
ENDROOT
BRANCH   2   5
HETATM    5  C17 UNL     1     -10.543 -30.326  24.325  1.00  0.00     0.053 C
BRANCH   5   6
HETATM    6  C18 UNL     1      -9.195 -29.749  24.034  1.00  0.00    -0.018 C
HETATM    7  C19 UNL     1      -8.655 -29.106  25.332  1.00  0.00     0.010 C
HETATM    8  C20 UNL     1      -8.167 -30.742  23.590  1.00  0.00     0.010 C
ENDBRANCH   5   6
ENDBRANCH   2   5
BRANCH   1   9
HETATM    9  C12 UNL     1     -11.291 -30.792  21.457  1.00  0.00     0.151 C
HETATM   10  C13 UNL     1     -10.566 -30.052  20.359  1.00  0.00     0.044 C
BRANCH   9  11
HETATM   11  O7  UNL     1     -12.277 -31.620  20.870  1.00  0.00    -0.312 OA
BRANCH  11  12
HETATM   12  C11 UNL     1     -11.978 -32.793  20.205  1.00  0.00     0.270 C
HETATM   13  O6  UNL     1     -11.498 -32.686  19.050  1.00  0.00    -0.264 OA
BRANCH  12  14
HETATM   14  C9  UNL     1     -12.240 -34.073  20.890  1.00  0.00     0.072 C
HETATM   15  C8  UNL     1     -11.260 -35.154  20.600  1.00  0.00     0.158 C
HETATM   16  O5  UNL     1     -10.392 -34.870  19.541  1.00  0.00    -0.312 OA
HETATM   17  C24 UNL     1     -10.421 -35.545  21.816  1.00  0.00    -0.009 C
HETATM   18  C7  UNL     1      -9.376 -35.749  19.234  1.00  0.00     0.289 C
HETATM   19  C6  UNL     1      -8.722 -36.520  20.284  1.00  0.00     0.233 C
HETATM   20  O4  UNL     1      -8.994 -35.899  18.035  1.00  0.00    -0.262 OA
HETATM   21  O3  UNL     1      -8.212 -37.769  19.847  1.00  0.00    -0.336 OA
HETATM   22  C26 UNL     1      -9.694 -36.790  21.398  1.00  0.00     0.038 C
HETATM   23  C5  UNL     1      -7.789 -38.718  20.744  1.00  0.00     0.085 C
HETATM   24  C2  UNL     1      -6.697 -39.452  20.631  1.00  0.00     0.018 C
HETATM   25  C28 UNL     1      -8.681 -38.906  21.948  1.00  0.00     0.175 C
HETATM   26  C1  UNL     1      -6.393 -40.449  21.719  1.00  0.00     0.055 C
HETATM   27  C27 UNL     1      -8.956 -37.497  22.483  1.00  0.00     0.047 C
HETATM   28  C23 UNL     1     -11.307 -35.912  22.986  1.00  0.00     0.012 C
HETATM   29  C25 UNL     1      -9.472 -34.472  22.249  1.00  0.00     0.018 C
HETATM   30  C22 UNL     1     -12.545 -35.086  23.092  1.00  0.00     0.002 C
HETATM   31  C21 UNL     1     -12.430 -33.790  22.362  1.00  0.00     0.022 C
HETATM   32  C10 UNL     1     -13.611 -34.541  20.374  1.00  0.00     0.029 C
BRANCH  24  33
HETATM   33  C3  UNL     1      -5.756 -39.379  19.540  1.00  0.00     0.180 C
HETATM   34  O1  UNL     1      -5.462 -40.376  18.847  1.00  0.00    -0.290 OA
BRANCH  33  35
HETATM   35  C4  UNL     1      -5.112 -38.087  19.220  1.00  0.00     0.247 C
BRANCH  35  36
HETATM   36  O2  UNL     1      -5.761 -37.446  18.152  1.00  0.00    -0.393 OA
ATOM     37  H2  UNL     1      -5.603 -37.900  17.333  1.00  0.00     0.209 HD
ENDBRANCH  35  36
ENDBRANCH  33  35
ENDBRANCH  24  33
BRANCH  25  38
HETATM   38  O8  UNL     1      -9.895 -39.369  21.451  1.00  0.00    -0.389 OA
ATOM     39  H8  UNL     1     -10.208 -40.005  22.084  1.00  0.00     0.210 HD
ENDBRANCH  25  38
ENDBRANCH  12  14
ENDBRANCH  11  12
ENDBRANCH   9  11
ENDBRANCH   1   9
TORSDOF 10
ENDMDL