MODEL 3
REMARK VINA RESULT: -5.716634542      8.567     13.312
REMARK  11 active torsions:
REMARK  status: ('A' for Active; 'I' for Inactive)
REMARK    1  A    between atoms: C2_2  and  C3_3
REMARK    2  A    between atoms: C3_3  and  C4_4
REMARK    3  A    between atoms: C4_4  and  O2_6
REMARK    4  A    between atoms: C8_10  and  O3_11
REMARK    5  A    between atoms: N1_13  and  C9_14
REMARK    6  A    between atoms: C9_14  and  C10_15
REMARK    7  A    between atoms: C13_18  and  O4_19
REMARK    8  A    between atoms: C19_26  and  C20_27
REMARK    9  A    between atoms: C19_26  and  C22_30
REMARK   10  A    between atoms: C22_30  and  O7_32
REMARK   11  A    between atoms: O7_32  and  C23_33
ROOT
HETATM    1  C3  UNL     1      -1.757 -35.502  21.970  1.00  0.00     0.158 C
HETATM    2  C6  UNL     1      -3.238 -35.602  22.199  1.00  0.00     0.046 A
HETATM    3  C7  UNL     1      -3.864 -34.838  23.096  1.00  0.00     0.031 A
HETATM    4  C8  UNL     1      -5.248 -35.121  23.046  1.00  0.00     0.155 A
HETATM    5  N1  UNL     1      -5.435 -36.053  22.118  1.00  0.00    -0.307 N
HETATM    6  C13 UNL     1      -4.224 -36.359  21.593  1.00  0.00     0.154 A
HETATM    7  C14 UNL     1      -3.207 -33.933  24.009  1.00  0.00     0.046 C
HETATM    8  C15 UNL     1      -1.870 -33.907  23.895  1.00  0.00     0.038 C
HETATM    9  C16 UNL     1      -1.153 -33.009  24.815  1.00  0.00     0.034 C
HETATM   10  C17 UNL     1       0.151 -32.923  24.811  1.00  0.00    -0.049 C
HETATM   11  C18 UNL     1       0.827 -32.007  25.766  1.00  0.00     0.046 C
HETATM   12  C19 UNL     1       0.994 -33.640  23.856  1.00  0.00     0.183 C
HETATM   13  C26 UNL     1       0.317 -34.645  23.023  1.00  0.00     0.112 C
HETATM   14  S1  UNL     1       1.280 -35.727  22.202  1.00  0.00    -0.063 SA
HETATM   15  N2  UNL     1      -1.133 -34.711  22.990  1.00  0.00    -0.316 N
ENDROOT
BRANCH  12  16
HETATM   16  C20 UNL     1       1.601 -32.611  22.938  1.00  0.00     0.152 C
HETATM   17  C21 UNL     1       1.510 -32.659  21.472  1.00  0.00     0.093 C
HETATM   18  O5  UNL     1       2.206 -31.677  23.434  1.00  0.00    -0.296 OA
ENDBRANCH  12  16
BRANCH  12  19
HETATM   19  C22 UNL     1       2.097 -34.303  24.613  1.00  0.00     0.286 C
HETATM   20  O6  UNL     1       3.271 -33.998  24.359  1.00  0.00    -0.263 OA
BRANCH  19  21
HETATM   21  O7  UNL     1       1.829 -35.245  25.588  1.00  0.00    -0.315 OA
BRANCH  21  22
HETATM   22  C23 UNL     1       2.674 -35.470  26.695  1.00  0.00     0.123 C
HETATM   23  C24 UNL     1       2.652 -36.898  27.177  1.00  0.00     0.040 C
HETATM   24  C25 UNL     1       2.339 -34.583  27.872  1.00  0.00     0.040 C
ENDBRANCH  21  22
ENDBRANCH  19  21
ENDBRANCH  12  19
BRANCH   1  25
HETATM   25  C2  UNL     1      -1.745 -34.885  20.596  1.00  0.00     0.043 C
HETATM   26  C1  UNL     1      -1.851 -33.458  20.341  1.00  0.00     0.008 C
ENDBRANCH   1  25
BRANCH   1  27
HETATM   27  C4  UNL     1      -1.188 -36.848  21.914  1.00  0.00     0.292 C
HETATM   28  O1  UNL     1      -0.715 -37.467  20.940  1.00  0.00    -0.262 OA
BRANCH  27  29
HETATM   29  O2  UNL     1      -1.161 -37.552  23.108  1.00  0.00    -0.324 OA
HETATM   30  C5  UNL     1      -0.833 -38.929  23.187  1.00  0.00     0.213 C
ENDBRANCH  27  29
ENDBRANCH   1  27
BRANCH   6  31
HETATM   31  O4  UNL     1      -4.024 -37.279  20.614  1.00  0.00    -0.345 OA
ATOM     32  H4  UNL     1      -3.635 -37.106  19.765  1.00  0.00     0.219 HD
ENDBRANCH   6  31
BRANCH   4  33
HETATM   33  O3  UNL     1      -6.244 -34.530  23.825  1.00  0.00    -0.345 OA
ATOM     34  H3  UNL     1      -6.760 -34.956  24.499  1.00  0.00     0.219 HD
ENDBRANCH   4  33
BRANCH   5  35
HETATM   35  C9  UNL     1      -6.692 -36.652  21.727  1.00  0.00     0.137 C
BRANCH  35  36
HETATM   36  C10 UNL     1      -7.171 -37.742  22.623  1.00  0.00    -0.004 C
HETATM   37  C11 UNL     1      -6.826 -39.064  21.928  1.00  0.00     0.011 C
HETATM   38  C12 UNL     1      -8.652 -37.656  22.858  1.00  0.00     0.011 C
ENDBRANCH  35  36
ENDBRANCH   5  35
TORSDOF 11
ENDMDL