MODEL 1
REMARK VINA RESULT: -7.270678138      0.000      0.000
REMARK  12 active torsions:
REMARK  status: ('A' for Active; 'I' for Inactive)
REMARK    1  A    between atoms: C8_8  and  O1_9
REMARK    2  A    between atoms: O1_9  and  C9_10
REMARK    3  A    between atoms: C9_10  and  C10_12
REMARK    4  A    between atoms: C10_12  and  C12_14
REMARK    5  A    between atoms: C12_14  and  C13_15
REMARK    6  A    between atoms: C13_15  and  O3_16
REMARK    7  A    between atoms: C13_15  and  C14_18
REMARK    8  A    between atoms: C19_24  and  O5_25
REMARK    9  A    between atoms: O5_25  and  C20_26
REMARK   10  A    between atoms: C23_31  and  C24_32
REMARK   11  A    between atoms: C24_32  and  O8_33
REMARK   12  A    between atoms: C26_35  and  O9_36
ROOT
HETATM    1  C1  UNL     1     -13.342 -38.214  22.380  1.00  0.00     0.014 C
HETATM    2  C2  UNL     1     -13.106 -37.565  21.253  1.00  0.00    -0.087 C
HETATM    3  C3  UNL     1     -13.576 -36.129  21.186  1.00  0.00     0.033 C
HETATM    4  C4  UNL     1     -13.124 -35.317  22.334  1.00  0.00     0.005 C
HETATM    5  C5  UNL     1     -12.208 -34.186  22.101  1.00  0.00     0.007 C
HETATM    6  C6  UNL     1     -11.547 -34.081  20.774  1.00  0.00     0.011 C
HETATM    7  C7  UNL     1     -12.385 -33.105  19.929  1.00  0.00     0.012 C
HETATM    8  C8  UNL     1     -10.111 -33.623  20.814  1.00  0.00     0.138 C
HETATM    9  C17 UNL     1      -9.120 -34.685  20.454  1.00  0.00     0.068 C
HETATM   10  C18 UNL     1      -9.237 -35.959  21.229  1.00  0.00     0.173 A
HETATM   11  O4  UNL     1      -8.082 -36.245  22.001  1.00  0.00    -0.321 OA
HETATM   12  C19 UNL     1      -7.934 -37.419  21.264  1.00  0.00     0.327 A
HETATM   13  O7  UNL     1      -7.645 -37.108  19.814  1.00  0.00    -0.307 OA
HETATM   14  C22 UNL     1      -8.932 -37.200  20.458  1.00  0.00     0.185 A
HETATM   15  C23 UNL     1     -10.006 -37.803  19.688  1.00  0.00     0.084 C
HETATM   16  C26 UNL     1     -11.004 -38.665  20.411  1.00  0.00     0.131 C
HETATM   17  C27 UNL     1     -12.429 -38.234  20.152  1.00  0.00     0.065 C
ENDROOT
BRANCH   8  18
HETATM   18  O1  UNL     1      -9.883 -33.066  22.095  1.00  0.00    -0.315 OA
BRANCH  18  19
HETATM   19  C9  UNL     1      -9.620 -31.714  22.300  1.00  0.00     0.263 C
HETATM   20  O2  UNL     1      -9.533 -31.044  21.243  1.00  0.00    -0.265 OA
BRANCH  19  21
HETATM   21  C10 UNL     1      -9.463 -31.122  23.647  1.00  0.00     0.084 C
HETATM   22  C11 UNL     1      -7.962 -30.948  23.966  1.00  0.00     0.020 C
BRANCH  21  23
HETATM   23  C12 UNL     1     -10.147 -29.794  23.770  1.00  0.00     0.046 C
BRANCH  23  24
HETATM   24  C13 UNL     1     -11.598 -29.798  24.042  1.00  0.00     0.122 C
BRANCH  24  25
HETATM   25  O3  UNL     1     -11.990 -29.131  25.176  1.00  0.00    -0.395 OA
ATOM     26  H3  UNL     1     -12.920 -28.952  25.246  1.00  0.00     0.210 HD
ENDBRANCH  24  25
BRANCH  24  27
HETATM   27  C14 UNL     1     -12.417 -29.218  22.901  1.00  0.00     0.006 C
HETATM   28  C15 UNL     1     -13.498 -28.347  23.529  1.00  0.00     0.012 C
HETATM   29  C16 UNL     1     -13.088 -30.264  22.078  1.00  0.00     0.012 C
ENDBRANCH  24  27
ENDBRANCH  23  24
ENDBRANCH  21  23
ENDBRANCH  19  21
ENDBRANCH  18  19
ENDBRANCH   8  18
BRANCH  12  30
HETATM   30  O5  UNL     1      -7.022 -38.392  21.646  1.00  0.00    -0.256 OA
BRANCH  30  31
HETATM   31  C20 UNL     1      -7.297 -39.511  22.391  1.00  0.00     0.259 C
HETATM   32  C21 UNL     1      -7.480 -40.855  21.779  1.00  0.00     0.126 C
HETATM   33  O6  UNL     1      -7.389 -39.350  23.642  1.00  0.00    -0.266 OA
ENDBRANCH  30  31
ENDBRANCH  12  30
BRANCH  15  34
HETATM   34  C24 UNL     1      -9.399 -38.519  18.468  1.00  0.00     0.177 C
BRANCH  34  35
HETATM   35  O8  UNL     1      -9.359 -39.879  18.689  1.00  0.00    -0.395 OA
HETATM   36  C25 UNL     1      -8.071 -40.302  18.288  1.00  0.00     0.201 C
ENDBRANCH  34  35
ENDBRANCH  15  34
BRANCH  16  37
HETATM   37  O9  UNL     1     -10.701 -38.931  21.714  1.00  0.00    -0.395 OA
ATOM     38  H9  UNL     1     -11.412 -38.793  22.329  1.00  0.00     0.210 HD
ENDBRANCH  16  37
TORSDOF 12
ENDMDL