MODEL 1
REMARK VINA RESULT: -8.453902627      0.000      0.000
REMARK  8 active torsions:
REMARK  status: ('A' for Active; 'I' for Inactive)
REMARK    1  A    between atoms: N1_1  and  C1_5
REMARK       I    between atoms: N2_10  and  C5_11
REMARK    2  A    between atoms: C5_11  and  C6_13
REMARK    3  A    between atoms: C6_13  and  S2_14
REMARK    4  A    between atoms: S2_14  and  C7_15
REMARK    5  A    between atoms: C8_20  and  C9_21
REMARK    6  A    between atoms: N5_24  and  C12_25
REMARK    7  A    between atoms: N6_33  and  N7_34
REMARK    8  A    between atoms: N7_34  and  C20_36
ROOT
HETATM    1  C7  UNL     1      -7.270 -34.385  23.607  1.00  0.00     0.182 A
HETATM    2  N3  UNL     1      -8.015 -35.330  23.052  1.00  0.00    -0.277 N
ATOM      3  H3  UNL     1      -7.791 -36.326  23.047  1.00  0.00     0.189 HD
HETATM    4  N4  UNL     1      -9.075 -34.801  22.515  1.00  0.00    -0.282 N
ATOM      5  H4  UNL     1      -9.805 -35.321  22.026  1.00  0.00     0.188 HD
HETATM    6  C8  UNL     1      -9.067 -33.415  22.704  1.00  0.00     0.146 A
HETATM    7  N6  UNL     1      -7.944 -33.177  23.379  1.00  0.00    -0.219 N
ENDROOT
BRANCH   1   8
HETATM    8  S2  UNL     1      -5.688 -34.552  24.432  1.00  0.00    -0.081 SA
BRANCH   8   9
HETATM    9  C6  UNL     1      -4.342 -33.972  23.329  1.00  0.00     0.185 C
BRANCH   9  10
HETATM   10  C5  UNL     1      -3.854 -35.061  22.484  1.00  0.00     0.231 C
HETATM   11  N2  UNL     1      -2.835 -34.917  21.506  1.00  0.00    -0.322 N
HETATM   12  C1  UNL     1      -2.438 -36.023  20.677  1.00  0.00     0.295 C
HETATM   13  C4  UNL     1      -2.180 -33.636  21.369  1.00  0.00     0.138 C
HETATM   14  C2  UNL     1      -0.954 -36.160  20.514  1.00  0.00     0.128 C
HETATM   15  S1  UNL     1      -0.388 -34.659  19.658  1.00  0.00    -0.164 SA
HETATM   16  C3  UNL     1      -1.647 -33.383  19.966  1.00  0.00     0.094 C
HETATM   17  O1  UNL     1      -4.363 -36.217  22.617  1.00  0.00    -0.272 OA
BRANCH  12  18
HETATM   18  N1  UNL     1      -3.006 -35.978  19.343  1.00  0.00    -0.057 N
ATOM     19  H13 UNL     1      -2.340 -36.235  18.614  1.00  0.00     0.276 HD
ATOM     20  H12 UNL     1      -3.682 -36.722  19.169  1.00  0.00     0.276 HD
ATOM     21  H11 UNL     1      -3.396 -35.044  19.218  1.00  0.00     0.276 HD
ENDBRANCH  12  18
ENDBRANCH   9  10
ENDBRANCH   8   9
ENDBRANCH   1   8
BRANCH   7  22
HETATM   22  N7  UNL     1      -7.440 -32.019  23.898  1.00  0.00    -0.321 N
ATOM     23  H7  UNL     1      -6.703 -31.632  23.308  1.00  0.00     0.181 HD
BRANCH  22  24
HETATM   24  C20 UNL     1      -7.672 -31.215  25.040  1.00  0.00     0.100 C
HETATM   25  C21 UNL     1      -6.363 -30.587  25.522  1.00  0.00     0.026 C
HETATM   26  C22 UNL     1      -6.432 -29.112  25.654  1.00  0.00     0.002 C
HETATM   27  C23 UNL     1      -7.666 -28.649  26.404  1.00  0.00     0.000 C
HETATM   28  C24 UNL     1      -8.852 -29.031  25.580  1.00  0.00     0.002 C
HETATM   29  C25 UNL     1      -8.601 -30.083  24.558  1.00  0.00     0.026 C
ENDBRANCH  22  24
ENDBRANCH   7  22
BRANCH   6  30
HETATM   30  C9  UNL     1     -10.181 -32.598  22.224  1.00  0.00    -0.029 C
HETATM   31  C10 UNL     1     -11.541 -33.194  22.260  1.00  0.00     0.058 C
HETATM   32  C11 UNL     1     -12.523 -32.141  21.798  1.00  0.00     0.127 C
HETATM   33  N5  UNL     1     -12.001 -30.800  21.787  1.00  0.00    -0.380 N
HETATM   34  C18 UNL     1     -10.754 -30.489  21.123  1.00  0.00     0.127 C
HETATM   35  C19 UNL     1      -9.954 -31.774  21.001  1.00  0.00     0.058 C
BRANCH  33  36
HETATM   36  C12 UNL     1     -12.666 -29.692  22.419  1.00  0.00     0.030 A
HETATM   37  C13 UNL     1     -12.171 -29.220  23.604  1.00  0.00     0.029 A
HETATM   38  C14 UNL     1     -12.782 -28.165  24.233  1.00  0.00     0.002 A
HETATM   39  C15 UNL     1     -13.906 -27.544  23.703  1.00  0.00     0.000 A
HETATM   40  C16 UNL     1     -14.377 -28.043  22.512  1.00  0.00     0.002 A
HETATM   41  C17 UNL     1     -13.776 -29.108  21.862  1.00  0.00     0.029 A
ENDBRANCH  33  36
ENDBRANCH   6  30
TORSDOF 8
ENDMDL