MODEL 3
REMARK VINA RESULT: -7.200254276      1.319      1.510
REMARK  13 active torsions:
REMARK  status: ('A' for Active; 'I' for Inactive)
REMARK    1  A    between atoms: C2_2  and  C3_3
REMARK    2  A    between atoms: C3_3  and  C4_4
REMARK    3  A    between atoms: C4_4  and  C5_5
REMARK    4  A    between atoms: C5_5  and  O2_7
REMARK    5  A    between atoms: O2_7  and  C6_8
REMARK    6  A    between atoms: C6_8  and  C7_9
REMARK    7  A    between atoms: C7_9  and  O4_11
REMARK    8  A    between atoms: O4_11  and  C8_12
REMARK    9  A    between atoms: C9_13  and  O5_14
REMARK   10  A    between atoms: C10_16  and  O6_17
REMARK   11  A    between atoms: O6_17  and  C11_18
REMARK   12  A    between atoms: C17_25  and  C19_27
REMARK   13  A    between atoms: C27_36  and  O9_37
ROOT
HETATM    1  C8  UNL     1     -10.119 -35.879  21.479  1.00  0.00     0.192 C
HETATM    2  C9  UNL     1     -11.336 -35.992  20.647  1.00  0.00     0.180 C
HETATM    3  C10 UNL     1     -12.027 -34.679  20.552  1.00  0.00     0.167 C
HETATM    4  C13 UNL     1     -11.857 -33.825  21.799  1.00  0.00     0.025 C
HETATM    5  C14 UNL     1     -12.664 -32.599  21.586  1.00  0.00     0.008 C
HETATM    6  C15 UNL     1     -12.449 -31.531  22.623  1.00  0.00     0.007 C
HETATM    7  C16 UNL     1     -11.054 -31.405  23.158  1.00  0.00     0.010 C
HETATM    8  C17 UNL     1     -10.704 -29.992  23.437  1.00  0.00     0.021 C
HETATM    9  C18 UNL     1      -9.681 -29.875  24.604  1.00  0.00     0.024 C
HETATM   10  C21 UNL     1     -10.080 -29.283  22.253  1.00  0.00     0.017 C
HETATM   11  C22 UNL     1     -10.235 -29.989  20.956  1.00  0.00     0.002 C
HETATM   12  C23 UNL     1      -9.846 -31.437  20.941  1.00  0.00     0.010 C
HETATM   13  C24 UNL     1     -10.040 -32.121  22.257  1.00  0.00    -0.033 C
HETATM   14  C25 UNL     1      -8.700 -32.079  22.954  1.00  0.00     0.016 C
HETATM   15  C26 UNL     1     -10.438 -33.569  22.191  1.00  0.00     0.032 C
HETATM   16  C27 UNL     1      -9.554 -34.447  21.402  1.00  0.00     0.155 C
ENDROOT
BRANCH   1  17
HETATM   17  O4  UNL     1      -9.145 -36.774  20.918  1.00  0.00    -0.309 OA
BRANCH  17  18
HETATM   18  C7  UNL     1      -8.039 -37.214  21.597  1.00  0.00     0.283 C
HETATM   19  O3  UNL     1      -8.207 -38.054  22.519  1.00  0.00    -0.263 OA
BRANCH  18  20
HETATM   20  C6  UNL     1      -6.657 -36.736  21.290  1.00  0.00     0.289 C
BRANCH  20  21
HETATM   21  O2  UNL     1      -6.293 -35.678  22.129  1.00  0.00    -0.312 OA
BRANCH  21  22
HETATM   22  C5  UNL     1      -5.180 -35.758  22.931  1.00  0.00     0.259 C
HETATM   23  O1  UNL     1      -4.921 -36.760  23.660  1.00  0.00    -0.265 OA
BRANCH  22  24
HETATM   24  C4  UNL     1      -4.178 -34.629  22.988  1.00  0.00     0.111 C
BRANCH  24  25
HETATM   25  C3  UNL     1      -3.193 -34.866  21.859  1.00  0.00     0.009 C
BRANCH  25  26
HETATM   26  C2  UNL     1      -2.154 -33.765  21.821  1.00  0.00    -0.004 C
HETATM   27  C1  UNL     1      -1.784 -33.435  20.383  1.00  0.00     0.005 C
ENDBRANCH  25  26
ENDBRANCH  24  25
ENDBRANCH  22  24
ENDBRANCH  21  22
ENDBRANCH  20  21
ENDBRANCH  18  20
ENDBRANCH  17  18
ENDBRANCH   1  17
BRANCH   2  28
HETATM   28  O5  UNL     1     -12.157 -37.002  21.156  1.00  0.00    -0.390 OA
ATOM     29  H5  UNL     1     -11.637 -37.779  21.325  1.00  0.00     0.210 HD
ENDBRANCH   2  28
BRANCH  16  30
HETATM   30  O9  UNL     1      -9.412 -34.166  20.070  1.00  0.00    -0.392 OA
ATOM     31  H9  UNL     1     -10.011 -33.451  19.886  1.00  0.00     0.210 HD
ENDBRANCH  16  30
BRANCH   3  32
HETATM   32  O6  UNL     1     -13.435 -34.991  20.516  1.00  0.00    -0.313 OA
BRANCH  32  33
HETATM   33  C11 UNL     1     -14.200 -34.749  19.399  1.00  0.00     0.255 C
HETATM   34  C12 UNL     1     -15.296 -35.670  19.048  1.00  0.00     0.126 C
HETATM   35  O7  UNL     1     -13.913 -33.720  18.715  1.00  0.00    -0.266 OA
ENDBRANCH  32  33
ENDBRANCH   3  32
BRANCH   8  36
HETATM   36  C19 UNL     1     -11.829 -29.224  23.993  1.00  0.00     0.131 C
HETATM   37  C20 UNL     1     -12.836 -28.586  23.060  1.00  0.00     0.091 C
HETATM   38  O8  UNL     1     -12.011 -29.057  25.152  1.00  0.00    -0.298 OA
ENDBRANCH   8  36
TORSDOF 13
ENDMDL