MODEL 5
REMARK VINA RESULT: -6.014605292      3.918      5.684
REMARK  3 active torsions:
REMARK  status: ('A' for Active; 'I' for Inactive)
REMARK    1  A    between atoms: O1_2  and  C2_3
REMARK    2  A    between atoms: C2_3  and  C3_5
REMARK    3  A    between atoms: C8_21  and  N6_22
REMARK       I    between atoms: N6_22  and  C9_24
ROOT
HETATM    1  C3  UNL     1      -8.437  -9.742  20.647  1.00  0.00     0.086 C
HETATM    2  C4  UNL     1      -8.456 -10.927  21.224  1.00  0.00     0.025 C
HETATM    3  C5  UNL     1      -7.196 -11.570  21.448  1.00  0.00     0.069 C
HETATM    4  N1  UNL     1      -9.670 -11.669  21.647  1.00  0.00    -0.339 N
ATOM      5  H1  UNL     1      -9.568 -12.287  22.452  1.00  0.00     0.168 HD
HETATM    6  C6  UNL     1     -10.857 -11.615  21.099  1.00  0.00     0.164 C
HETATM    7  N2  UNL     1     -11.464 -10.952  20.023  1.00  0.00    -0.345 N
ATOM      8  H2  UNL     1     -11.490 -11.371  19.093  1.00  0.00     0.163 HD
HETATM    9  C7  UNL     1     -12.065  -9.630  20.281  1.00  0.00     0.229 C
HETATM   10  N3  UNL     1     -13.128  -9.685  21.198  1.00  0.00    -0.296 N
ATOM     11  H3  UNL     1     -13.803  -8.964  20.942  1.00  0.00     0.184 HD
HETATM   12  N4  UNL     1     -13.557 -10.273  22.195  1.00  0.00    -0.239 N
ATOM     13  H4  UNL     1     -14.455  -9.941  22.549  1.00  0.00     0.208 HD
HETATM   14  N5  UNL     1     -12.990 -11.322  22.903  1.00  0.00    -0.253 N
ATOM     15  H5  UNL     1     -13.324 -11.431  23.860  1.00  0.00     0.197 HD
HETATM   16  S1  UNL     1     -11.735 -12.534  22.372  1.00  0.00     0.040 SA
HETATM   17  C8  UNL     1     -10.988  -8.735  20.825  1.00  0.00     0.178 C
HETATM   18  C11 UNL     1      -9.633  -8.879  20.333  1.00  0.00     0.048 C
HETATM   19  N7  UNL     1      -9.324  -8.068  19.392  1.00  0.00    -0.400 N
ATOM     20  H71 UNL     1     -10.133  -7.484  19.180  1.00  0.00     0.156 HD
ATOM     21  H72 UNL     1      -8.370  -8.169  19.045  1.00  0.00     0.156 HD
ENDROOT
BRANCH  17  22
HETATM   22  N6  UNL     1     -11.434  -7.341  20.875  1.00  0.00    -0.348 N
HETATM   23  C9  UNL     1     -12.077  -6.774  22.009  1.00  0.00     0.214 C
HETATM   24  C10 UNL     1     -12.525  -5.363  22.050  1.00  0.00     0.117 C
HETATM   25  O3  UNL     1     -12.263  -7.520  23.004  1.00  0.00    -0.274 OA
ATOM     26  H6  UNL     1     -11.276  -6.750  20.059  1.00  0.00     0.163 HD
ENDBRANCH  17  22
BRANCH   1  27
HETATM   27  C2  UNL     1      -7.175  -9.181  20.282  1.00  0.00     0.296 C
HETATM   28  O2  UNL     1      -6.700  -9.596  19.162  1.00  0.00    -0.259 OA
BRANCH  27  29
HETATM   29  O1  UNL     1      -6.382  -8.266  20.929  1.00  0.00    -0.322 OA
HETATM   30  C1  UNL     1      -6.403  -6.879  20.620  1.00  0.00     0.213 C
ENDBRANCH  27  29
ENDBRANCH   1  27
TORSDOF 3
ENDMDL