MODEL 5
REMARK VINA RESULT: -6.513072062      3.597      6.744
REMARK  4 active torsions:
REMARK  status: ('A' for Active; 'I' for Inactive)
REMARK    1  A    between atoms: C2_2  and  O2_4
REMARK    2  A    between atoms: O2_4  and  C3_5
REMARK    3  A    between atoms: C9_21  and  N6_22
REMARK    4  A    between atoms: N7_27  and  O4_28
ROOT
HETATM    1  C3  UNL     1      -8.619 -11.846  20.361  1.00  0.00     0.229 C
HETATM    2  C4  UNL     1      -9.796 -11.445  21.184  1.00  0.00     0.205 C
HETATM    3  N1  UNL     1     -10.926 -11.855  20.375  1.00  0.00    -0.136 NA
HETATM    4  N2  UNL     1     -10.476 -11.932  19.065  1.00  0.00    -0.301 N
ATOM      5  H2  UNL     1     -11.092 -11.985  18.254  1.00  0.00     0.182 HD
HETATM    6  C5  UNL     1      -9.208 -11.928  18.995  1.00  0.00     0.109 C
HETATM    7  C6  UNL     1      -8.234 -11.954  17.913  1.00  0.00     0.078 A
HETATM    8  N3  UNL     1      -8.508 -12.474  16.709  1.00  0.00    -0.332 N
ATOM      9  H3  UNL     1      -9.430 -12.871  16.529  1.00  0.00     0.168 HD
HETATM   10  C7  UNL     1      -7.564 -12.478  15.714  1.00  0.00     0.177 A
HETATM   11  S1  UNL     1      -7.575 -13.045  14.100  1.00  0.00     0.011 SA
HETATM   12  C8  UNL     1      -5.980 -12.607  13.700  1.00  0.00     0.306 A
HETATM   13  O3  UNL     1      -5.335 -12.758  12.597  1.00  0.00    -0.258 OA
HETATM   14  N4  UNL     1      -5.536 -12.055  14.824  1.00  0.00    -0.250 N
ATOM     15  H4  UNL     1      -4.586 -11.690  14.884  1.00  0.00     0.191 HD
HETATM   16  N5  UNL     1      -6.337 -11.989  15.844  1.00  0.00    -0.213 N
HETATM   17  C9  UNL     1      -6.020 -11.447  17.071  1.00  0.00     0.137 A
HETATM   18  C10 UNL     1      -6.968 -11.440  18.072  1.00  0.00     0.056 A
HETATM   19  C11 UNL     1      -6.627 -10.846  19.396  1.00  0.00     0.138 C
HETATM   20  N7  UNL     1      -7.604 -10.820  20.377  1.00  0.00    -0.227 N
ENDROOT
BRANCH   1  21
HETATM   21  O2  UNL     1      -8.047 -12.992  20.853  1.00  0.00    -0.280 OA
BRANCH  21  22
HETATM   22  C2  UNL     1      -8.305 -13.725  21.974  1.00  0.00     0.257 C
HETATM   23  C1  UNL     1      -9.375 -14.779  21.917  1.00  0.00     0.126 C
HETATM   24  O1  UNL     1      -7.657 -13.502  22.996  1.00  0.00    -0.266 OA
ENDBRANCH  21  22
ENDBRANCH   1  21
BRANCH  20  25
HETATM   25  O4  UNL     1      -7.968  -9.674  20.901  1.00  0.00    -0.285 OA
ATOM     26  H4  UNL     1      -7.271  -9.038  21.017  1.00  0.00     0.245 HD
ENDBRANCH  20  25
BRANCH  17  27
HETATM   27  N6  UNL     1      -4.868 -10.947  17.317  1.00  0.00    -0.383 N
ATOM     28  H62 UNL     1      -4.070 -11.265  16.766  1.00  0.00     0.157 HD
ATOM     29  H61 UNL     1      -4.725 -10.244  18.042  1.00  0.00     0.157 HD
ENDBRANCH  17  27
TORSDOF 4
ENDMDL