MODEL 5
REMARK VINA RESULT: -6.177918034      3.792      7.266
REMARK  2 active torsions:
REMARK  status: ('A' for Active; 'I' for Inactive)
REMARK    1  A    between atoms: N1_2  and  N2_3
REMARK    2  A    between atoms: C2_4  and  O1_5
ROOT
HETATM    1  N2  UNL     1      -7.524  -9.206  19.654  1.00  0.00    -0.241 N
HETATM    2  C2  UNL     1      -6.616 -10.067  18.982  1.00  0.00     0.249 C
HETATM    3  N3  UNL     1      -6.882 -11.304  19.175  1.00  0.00    -0.330 N
ATOM      4  H3  UNL     1      -6.354 -12.083  18.784  1.00  0.00     0.165 HD
HETATM    5  C3  UNL     1      -8.014 -11.432  20.006  1.00  0.00     0.220 C
HETATM    6  N4  UNL     1      -7.813 -12.336  21.142  1.00  0.00    -0.352 N
ATOM      7  H4  UNL     1      -6.938 -12.854  21.211  1.00  0.00     0.163 HD
HETATM    8  C4  UNL     1      -8.812 -12.514  22.162  1.00  0.00     0.119 A
HETATM    9  N5  UNL     1      -8.325 -13.240  23.189  1.00  0.00    -0.294 N
ATOM     10  H5  UNL     1      -7.362 -13.576  23.157  1.00  0.00     0.172 HD
HETATM   11  C5  UNL     1      -9.089 -13.525  24.249  1.00  0.00     0.330 A
HETATM   12  O2  UNL     1      -8.595 -14.212  25.199  1.00  0.00    -0.246 OA
HETATM   13  N6  UNL     1     -10.374 -13.112  24.356  1.00  0.00    -0.270 N
HETATM   14  C6  UNL     1     -11.116 -13.473  25.543  1.00  0.00     0.164 C
HETATM   15  C7  UNL     1     -10.879 -12.389  23.346  1.00  0.00     0.262 A
HETATM   16  O3  UNL     1     -12.082 -11.991  23.426  1.00  0.00    -0.267 OA
HETATM   17  C8  UNL     1     -10.118 -12.078  22.239  1.00  0.00     0.063 A
HETATM   18  C9  UNL     1     -10.834 -11.276  21.224  1.00  0.00     0.124 C
HETATM   19  S2  UNL     1      -9.939  -9.753  20.788  1.00  0.00    -0.133 SA
HETATM   20  C10 UNL     1      -8.188 -10.052  20.607  1.00  0.00     0.211 C
ENDROOT
BRANCH   1  21
HETATM   21  N1  UNL     1      -7.667  -7.848  19.377  1.00  0.00    -0.139 NA
HETATM   22  C1  UNL     1      -6.793  -7.035  20.187  1.00  0.00     0.159 C
ENDBRANCH   1  21
BRANCH   2  23
HETATM   23  O1  UNL     1      -5.528  -9.663  18.183  1.00  0.00    -0.231 OA
HETATM   24  S1  UNL     1      -4.963 -10.620  16.857  1.00  0.00     0.103 SA
ENDBRANCH   2  23
TORSDOF 2
ENDMDL