MODEL 3
REMARK VINA RESULT: -6.943772240      2.435      4.386
REMARK  3 active torsions:
REMARK  status: ('A' for Active; 'I' for Inactive)
REMARK    1  A    between atoms: C5_11  and  C6_12
REMARK    2  A    between atoms: C7_17  and  N6_18
REMARK    3  A    between atoms: C8_23  and  N8_24
ROOT
HETATM    1  C1  UNL     1      -8.318 -13.930  13.903  1.00  0.00     0.074 C
HETATM    2  C2  UNL     1      -7.851 -12.817  14.732  1.00  0.00     0.067 A
HETATM    3  N1  UNL     1      -6.944 -11.960  14.233  1.00  0.00    -0.298 N
ATOM      4  H1  UNL     1      -6.599 -12.102  13.284  1.00  0.00     0.187 HD
HETATM    5  N2  UNL     1      -6.494 -10.953  14.928  1.00  0.00    -0.251 N
ATOM      6  H2  UNL     1      -5.805 -10.331  14.503  1.00  0.00     0.191 HD
HETATM    7  C3  UNL     1      -6.915 -10.699  16.214  1.00  0.00     0.347 A
HETATM    8  O1  UNL     1      -6.410  -9.722  16.758  1.00  0.00    -0.245 OA
HETATM    9  N3  UNL     1      -7.813 -11.515  16.755  1.00  0.00    -0.241 N
HETATM   10  C4  UNL     1      -8.420 -11.553  18.005  1.00  0.00     0.111 A
HETATM   11  C5  UNL     1      -8.403 -10.845  19.171  1.00  0.00     0.085 A
HETATM   12  S1  UNL     1      -9.519 -11.760  20.157  1.00  0.00    -0.008 SA
HETATM   13  N9  UNL     1      -9.932 -12.932  19.088  1.00  0.00    -0.310 N
ATOM     14  H9  UNL     1     -10.577 -13.710  19.227  1.00  0.00     0.176 HD
HETATM   15  C9  UNL     1      -9.229 -12.634  17.990  1.00  0.00     0.144 A
HETATM   16  N10 UNL     1      -9.154 -13.263  16.787  1.00  0.00    -0.319 N
HETATM   17  C10 UNL     1      -9.861 -14.450  16.362  1.00  0.00     0.159 C
HETATM   18  C11 UNL     1      -8.286 -12.579  16.026  1.00  0.00     0.144 A
ENDROOT
BRANCH  11  19
HETATM   19  C6  UNL     1      -7.740  -9.672  19.710  1.00  0.00     0.113 A
HETATM   20  N4  UNL     1      -6.511  -9.489  20.065  1.00  0.00    -0.281 N
HETATM   21  N5  UNL     1      -5.988  -8.366  20.444  1.00  0.00    -0.132 N
ATOM     22  H4  UNL     1      -5.896 -10.302  20.045  1.00  0.00     0.187 HD
HETATM   23  C7  UNL     1      -6.701  -7.217  20.510  1.00  0.00     0.692 A
ATOM     24  H5  UNL     1      -5.002  -8.347  20.702  1.00  0.00     0.205 HD
HETATM   25  N7  UNL     1      -7.989  -7.340  20.153  1.00  0.00    -0.174 N
HETATM   26  C8  UNL     1      -8.528  -8.494  19.765  1.00  0.00     0.144 A
ATOM     27  H7  UNL     1      -8.582  -6.511  20.181  1.00  0.00     0.186 HD
BRANCH  23  28
HETATM   28  N6  UNL     1      -6.180  -6.102  20.887  1.00  0.00    -0.233 N
ATOM     29  H62 UNL     1      -6.620  -5.485  21.569  1.00  0.00     0.174 HD
ATOM     30  H61 UNL     1      -5.289  -5.765  20.523  1.00  0.00     0.174 HD
ENDBRANCH  23  28
BRANCH  26  31
HETATM   31  N8  UNL     1      -9.799  -8.544  19.436  1.00  0.00    -0.383 N
ATOM     32  H82 UNL     1     -10.282  -9.442  19.409  1.00  0.00     0.157 HD
ATOM     33  H81 UNL     1     -10.296  -7.684  19.203  1.00  0.00     0.157 HD
ENDBRANCH  26  31
ENDBRANCH  11  19
TORSDOF 3
ENDMDL