MODEL 2
REMARK VINA RESULT: -6.957676490      3.606      5.222
REMARK  4 active torsions:
REMARK  status: ('A' for Active; 'I' for Inactive)
REMARK    1  A    between atoms: O1_2  and  C2_3
REMARK    2  A    between atoms: C3_4  and  O2_5
REMARK    3  A    between atoms: N5_21  and  O4_22
REMARK    4  A    between atoms: C9_24  and  N6_25
REMARK       I    between atoms: N6_25  and  C10_27
ROOT
HETATM    1  C2  UNL     1      -7.686 -10.493  18.781  1.00  0.00     0.149 A
HETATM    2  C3  UNL     1      -8.424 -11.667  18.933  1.00  0.00     0.122 A
HETATM    3  C4  UNL     1      -8.373 -12.307  20.154  1.00  0.00     0.116 A
HETATM    4  C5  UNL     1      -9.059 -13.472  20.420  1.00  0.00     0.285 A
HETATM    5  O3  UNL     1      -9.760 -13.969  19.505  1.00  0.00    -0.266 OA
HETATM    6  N1  UNL     1      -9.003 -14.098  21.630  1.00  0.00    -0.085 N
HETATM    7  C6  UNL     1      -9.603 -15.228  22.053  1.00  0.00     0.197 A
HETATM    8  S1  UNL     1     -10.699 -16.312  21.150  1.00  0.00    -0.011 SA
HETATM    9  N2  UNL     1      -9.204 -15.385  23.325  1.00  0.00    -0.264 N
ATOM     10  H2  UNL     1      -9.485 -16.155  23.933  1.00  0.00     0.189 HD
HETATM   11  N3  UNL     1      -8.388 -14.394  23.682  1.00  0.00    -0.129 N
ATOM     12  H3  UNL     1      -7.944 -14.274  24.593  1.00  0.00     0.205 HD
HETATM   13  C7  UNL     1      -8.256 -13.574  22.613  1.00  0.00     0.710 A
HETATM   14  N4  UNL     1      -7.577 -12.440  22.383  1.00  0.00    -0.171 N
ATOM     15  H4  UNL     1      -7.010 -12.049  23.136  1.00  0.00     0.186 HD
HETATM   16  C8  UNL     1      -7.611 -11.797  21.198  1.00  0.00     0.169 A
HETATM   17  N5  UNL     1      -6.901 -10.651  21.025  1.00  0.00    -0.187 N
HETATM   18  C9  UNL     1      -6.939 -10.016  19.844  1.00  0.00     0.176 A
ENDROOT
BRANCH  18  19
HETATM   19  N6  UNL     1      -6.280  -8.930  19.646  1.00  0.00    -0.282 N
HETATM   20  C10 UNL     1      -6.613  -7.682  20.209  1.00  0.00     0.289 C
HETATM   21  O5  UNL     1      -6.098  -7.343  21.311  1.00  0.00    -0.629 OA
HETATM   22  O6  UNL     1      -7.498  -6.811  19.578  1.00  0.00    -0.629 OA
ATOM     23  H6  UNL     1      -5.461  -8.975  19.040  1.00  0.00     0.173 HD
ENDBRANCH  18  19
BRANCH   1  24
HETATM   24  O1  UNL     1      -7.708  -9.828  17.590  1.00  0.00    -0.350 OA
HETATM   25  C1  UNL     1      -6.830 -10.049  16.510  1.00  0.00     0.210 C
ENDBRANCH   1  24
BRANCH  17  26
HETATM   26  O4  UNL     1      -6.152 -10.178  22.099  1.00  0.00    -0.279 OA
ATOM     27  H4  UNL     1      -5.289 -10.550  22.238  1.00  0.00     0.245 HD
ENDBRANCH  17  26
BRANCH   2  28
HETATM   28  O2  UNL     1      -9.141 -12.106  17.878  1.00  0.00    -0.357 OA
ATOM     29  H2  UNL     1      -8.988 -11.699  17.033  1.00  0.00     0.218 HD
ENDBRANCH   2  28
TORSDOF 4
ENDMDL