MODEL 1
REMARK VINA RESULT: -7.654128929      0.000      0.000
REMARK  6 active torsions:
REMARK  status: ('A' for Active; 'I' for Inactive)
REMARK    1  A    between atoms: C3_3  and  O1_4
REMARK    2  A    between atoms: C4_6  and  O2_7
REMARK    3  A    between atoms: C5_9  and  N1_10
REMARK    4  A    between atoms: C9_17  and  O6_18
REMARK    5  A    between atoms: C9_17  and  O7_20
REMARK    6  A    between atoms: N3_26  and  O9_27
ROOT
HETATM    1  C1  UNL     1     -10.259 -10.267  21.009  1.00  0.00     0.052 C
HETATM    2  C2  UNL     1      -9.386 -10.766  19.919  1.00  0.00    -0.011 A
HETATM    3  C3  UNL     1      -9.510 -11.992  19.317  1.00  0.00     0.108 A
HETATM    4  C4  UNL     1      -8.668 -12.366  18.330  1.00  0.00     0.133 A
HETATM    5  C5  UNL     1      -7.611 -11.542  17.845  1.00  0.00     0.152 A
HETATM    6  C6  UNL     1      -7.485 -10.346  18.436  1.00  0.00     0.048 A
HETATM    7  C7  UNL     1      -8.355  -9.940  19.460  1.00  0.00     0.040 A
HETATM    8  C8  UNL     1      -8.247  -8.585  19.968  1.00  0.00     0.229 C
HETATM    9  O5  UNL     1      -9.303  -7.979  20.314  1.00  0.00    -0.286 OA
HETATM   10  C9  UNL     1      -6.917  -7.963  20.064  1.00  0.00     0.277 C
HETATM   11  C10 UNL     1      -6.104  -8.341  18.913  1.00  0.00     0.136 A
HETATM   12  N2  UNL     1      -4.990  -7.771  18.361  1.00  0.00    -0.235 N
ATOM     13  H2  UNL     1      -4.553  -6.903  18.671  1.00  0.00     0.197 HD
HETATM   14  O8  UNL     1      -4.594  -8.481  17.418  1.00  0.00    -0.128 OA
HETATM   15  N3  UNL     1      -5.355  -9.550  17.237  1.00  0.00    -0.099 N
HETATM   16  C11 UNL     1      -6.312  -9.492  18.155  1.00  0.00     0.134 A
ENDROOT
BRANCH  10  17
HETATM   17  O6  UNL     1      -7.035  -6.605  20.249  1.00  0.00    -0.354 OA
ATOM     18  H6  UNL     1      -6.248  -6.161  19.956  1.00  0.00     0.214 HD
ENDBRANCH  10  17
BRANCH  10  19
HETATM   19  O7  UNL     1      -6.252  -8.500  21.211  1.00  0.00    -0.354 OA
ATOM     20  H7  UNL     1      -5.350  -8.680  20.976  1.00  0.00     0.214 HD
ENDBRANCH  10  19
BRANCH  15  21
HETATM   21  O9  UNL     1      -5.026 -10.377  16.272  1.00  0.00    -0.261 OA
ATOM     22  H9  UNL     1      -5.409 -10.231  15.416  1.00  0.00     0.247 HD
ENDBRANCH  15  21
BRANCH   3  23
HETATM   23  O1  UNL     1     -10.502 -12.887  19.702  1.00  0.00    -0.357 OA
ATOM     24  H1  UNL     1     -10.323 -13.586  20.320  1.00  0.00     0.217 HD
ENDBRANCH   3  23
BRANCH   5  25
HETATM   25  N1  UNL     1      -6.942 -12.113  16.777  1.00  0.00    -0.112 N
HETATM   26  O3  UNL     1      -6.001 -12.911  16.942  1.00  0.00    -0.532 OA
HETATM   27  O4  UNL     1      -7.400 -11.903  15.498  1.00  0.00    -0.532 OA
ENDBRANCH   5  25
BRANCH   4  28
HETATM   28  O2  UNL     1      -8.822 -13.615  17.740  1.00  0.00    -0.356 OA
ATOM     29  H2  UNL     1      -8.303 -13.836  16.976  1.00  0.00     0.218 HD
ENDBRANCH   4  28
TORSDOF 6
ENDMDL