MODEL 2
REMARK VINA RESULT: -6.994473568      2.792      6.196
REMARK  4 active torsions:
REMARK  status: ('A' for Active; 'I' for Inactive)
REMARK    1  A    between atoms: C3_7  and  N3_8
REMARK    2  A    between atoms: N4_10  and  C4_12
REMARK    3  A    between atoms: C9_19  and  N6_20
REMARK    4  A    between atoms: N7_23  and  N8_24
ROOT
HETATM    1  C4  UNL     1      -7.945 -11.661  19.608  1.00  0.00     0.090 A
HETATM    2  C5  UNL     1      -7.079 -11.710  18.551  1.00  0.00     0.057 A
HETATM    3  C6  UNL     1      -7.540 -12.211  17.382  1.00  0.00     0.058 A
HETATM    4  C7  UNL     1      -6.719 -12.302  16.231  1.00  0.00     0.273 C
HETATM    5  O1  UNL     1      -5.463 -12.296  16.435  1.00  0.00    -0.267 OA
HETATM    6  N5  UNL     1      -7.070 -12.396  14.940  1.00  0.00    -0.150 N
HETATM    7  C8  UNL     1      -6.113 -11.870  13.963  1.00  0.00     0.179 C
HETATM    8  C9  UNL     1      -8.208 -12.920  14.416  1.00  0.00     0.704 C
HETATM    9  N7  UNL     1      -9.331 -13.336  15.028  1.00  0.00    -0.053 N
HETATM   10  C10 UNL     1      -9.611 -13.185  16.332  1.00  0.00     0.299 C
HETATM   11  O2  UNL     1     -10.726 -13.587  16.759  1.00  0.00    -0.264 OA
HETATM   12  C11 UNL     1      -8.844 -12.626  17.367  1.00  0.00     0.093 A
HETATM   13  S1  UNL     1      -9.377 -12.311  18.956  1.00  0.00    -0.065 SA
ENDROOT
BRANCH   1  14
HETATM   14  N4  UNL     1      -7.673 -11.169  20.945  1.00  0.00    -0.295 N
HETATM   15  N3  UNL     1      -7.349  -9.955  21.044  1.00  0.00    -0.280 N
ATOM     16  H3  UNL     1      -7.148  -9.568  21.966  1.00  0.00     0.184 HD
ATOM     17  H4  UNL     1      -7.741 -11.773  21.764  1.00  0.00     0.187 HD
BRANCH  15  18
HETATM   18  C3  UNL     1      -7.252  -9.101  19.894  1.00  0.00     0.540 C
HETATM   19  N1  UNL     1      -5.953  -8.426  19.763  1.00  0.00     0.161 N
HETATM   20  C1  UNL     1      -5.566  -8.268  18.387  1.00  0.00     0.317 C
HETATM   21  C2  UNL     1      -6.557  -7.262  20.380  1.00  0.00     0.512 C
HETATM   22  N2  UNL     1      -7.853  -7.795  20.057  1.00  0.00     0.002 N
ATOM     23  H22 UNL     1      -8.638  -7.665  20.696  1.00  0.00     0.284 HD
ATOM     24  H21 UNL     1      -8.407  -7.385  19.305  1.00  0.00     0.284 HD
ENDBRANCH  15  18
ENDBRANCH   1  14
BRANCH   9  25
HETATM   25  N8  UNL     1     -10.288 -13.980  14.251  1.00  0.00    -0.321 N
ATOM     26  H82 UNL     1     -10.986 -14.535  14.747  1.00  0.00     0.178 HD
ATOM     27  H81 UNL     1     -10.235 -13.860  13.239  1.00  0.00     0.178 HD
ENDBRANCH   9  25
BRANCH   8  28
HETATM   28  N6  UNL     1      -8.177 -13.021  13.134  1.00  0.00    -0.232 N
ATOM     29  H62 UNL     1      -8.973 -13.480  12.691  1.00  0.00     0.174 HD
ATOM     30  H61 UNL     1      -7.336 -12.618  12.719  1.00  0.00     0.174 HD
ENDBRANCH   8  28
TORSDOF 4
ENDMDL