MODEL 4
REMARK VINA RESULT: -7.121104684      1.392      3.934
REMARK  5 active torsions:
REMARK  status: ('A' for Active; 'I' for Inactive)
REMARK    1  A    between atoms: O1_2  and  C2_3
REMARK    2  A    between atoms: C3_4  and  O2_5
REMARK    3  A    between atoms: C9_13  and  O4_14
REMARK    4  A    between atoms: N1_19  and  O6_20
REMARK    5  A    between atoms: N2_26  and  O9_27
ROOT
HETATM    1  C2  UNL     1     -10.042 -13.268  18.132  1.00  0.00     0.121 A
HETATM    2  C3  UNL     1      -9.909 -13.420  16.749  1.00  0.00     0.132 A
HETATM    3  C4  UNL     1      -8.823 -12.886  16.100  1.00  0.00     0.134 A
HETATM    4  C5  UNL     1      -7.858 -12.199  16.806  1.00  0.00     0.133 A
HETATM    5  C6  UNL     1      -7.980 -12.043  18.167  1.00  0.00     0.124 A
HETATM    6  O3  UNL     1      -7.071 -11.390  18.848  1.00  0.00    -0.309 OA
HETATM    7  C7  UNL     1      -7.146 -11.215  20.136  1.00  0.00     0.087 A
HETATM    8  C8  UNL     1      -6.092 -10.463  20.900  1.00  0.00     0.079 C
HETATM    9  C9  UNL     1      -8.195 -11.710  20.870  1.00  0.00     0.146 A
HETATM   10  C10 UNL     1      -9.188 -12.410  20.208  1.00  0.00     0.223 A
HETATM   11  O5  UNL     1     -10.143 -12.858  20.876  1.00  0.00    -0.284 OA
HETATM   12  C11 UNL     1      -9.086 -12.584  18.843  1.00  0.00     0.089 A
HETATM   13  N1  UNL     1      -6.787 -11.678  16.139  1.00  0.00    -0.178 N
HETATM   14  C12 UNL     1      -6.642 -11.813  14.818  1.00  0.00     0.342 A
HETATM   15  O7  UNL     1      -5.654 -11.331  14.213  1.00  0.00    -0.259 OA
HETATM   16  C13 UNL     1      -7.606 -12.497  14.129  1.00  0.00     0.342 A
HETATM   17  O8  UNL     1      -7.529 -12.661  12.882  1.00  0.00    -0.259 OA
HETATM   18  N2  UNL     1      -8.674 -13.024  14.751  1.00  0.00    -0.178 N
ENDROOT
BRANCH   1  19
HETATM   19  O1  UNL     1     -11.126 -13.799  18.797  1.00  0.00    -0.352 OA
HETATM   20  C1  UNL     1     -11.341 -15.188  18.988  1.00  0.00     0.210 C
ENDBRANCH   1  19
BRANCH   2  21
HETATM   21  O2  UNL     1     -10.902 -14.116  16.087  1.00  0.00    -0.356 OA
ATOM     22  H2  UNL     1     -10.638 -14.669  15.361  1.00  0.00     0.218 HD
ENDBRANCH   2  21
BRANCH  18  23
HETATM   23  O9  UNL     1      -9.629 -13.705  14.047  1.00  0.00    -0.279 OA
ATOM     24  H9  UNL     1      -9.532 -13.791  13.106  1.00  0.00     0.245 HD
ENDBRANCH  18  23
BRANCH   9  25
HETATM   25  O4  UNL     1      -8.267 -11.515  22.265  1.00  0.00    -0.355 OA
ATOM     26  H4  UNL     1      -8.904 -10.923  22.647  1.00  0.00     0.218 HD
ENDBRANCH   9  25
BRANCH  13  27
HETATM   27  O6  UNL     1      -5.844 -10.997  16.885  1.00  0.00    -0.279 OA
ATOM     28  H6  UNL     1      -5.256 -11.513  17.423  1.00  0.00     0.245 HD
ENDBRANCH  13  27
TORSDOF 5
ENDMDL