MODEL 2
REMARK VINA RESULT: -7.299418775      4.691      6.590
REMARK  4 active torsions:
REMARK  status: ('A' for Active; 'I' for Inactive)
REMARK    1  A    between atoms: S1_2  and  C2_3
REMARK    2  A    between atoms: C3_6  and  N2_7
REMARK    3  A    between atoms: N2_7  and  C4_9
REMARK    4  A    between atoms: N8_24  and  O1_25
ROOT
HETATM    1  C4  UNL     1      -7.916 -11.476  20.693  1.00  0.00     0.388 C
HETATM    2  C5  UNL     1      -7.454 -11.595  19.315  1.00  0.00     0.142 C
HETATM    3  N3  UNL     1      -7.086 -11.710  18.229  1.00  0.00    -0.191 NA
HETATM    4  N4  UNL     1      -6.868 -11.041  21.604  1.00  0.00    -0.013 N
ATOM      5  H41 UNL     1      -6.303 -11.834  21.909  1.00  0.00     0.283 HD
ATOM      6  H42 UNL     1      -7.263 -10.760  22.502  1.00  0.00     0.283 HD
HETATM    7  C6  UNL     1      -6.042 -10.007  21.068  1.00  0.00     0.300 C
HETATM    8  C7  UNL     1      -6.900  -8.923  20.560  1.00  0.00     0.095 A
HETATM    9  N5  UNL     1      -6.643  -7.666  20.199  1.00  0.00    -0.285 N
ATOM     10  H5  UNL     1      -5.728  -7.216  20.217  1.00  0.00     0.188 HD
HETATM   11  N6  UNL     1      -7.775  -7.103  19.812  1.00  0.00    -0.241 N
ATOM     12  H6  UNL     1      -7.877  -6.144  19.481  1.00  0.00     0.208 HD
HETATM   13  N7  UNL     1      -8.748  -7.982  19.922  1.00  0.00    -0.272 N
ATOM     14  H7  UNL     1      -9.726  -7.811  19.689  1.00  0.00     0.189 HD
HETATM   15  C8  UNL     1      -8.253  -9.142  20.389  1.00  0.00     0.153 A
HETATM   16  N8  UNL     1      -8.896 -10.369  20.671  1.00  0.00    -0.076 NA
ENDROOT
BRANCH   1  17
HETATM   17  N2  UNL     1      -8.564 -12.590  21.232  1.00  0.00    -0.163 N
ATOM     18  H2  UNL     1      -8.508 -13.417  20.638  1.00  0.00     0.183 HD
BRANCH  17  19
HETATM   19  C3  UNL     1      -9.210 -12.788  22.312  1.00  0.00     0.685 A
HETATM   20  N1  UNL     1     -10.413 -12.180  22.349  1.00  0.00    -0.179 N
HETATM   21  C2  UNL     1     -11.303 -12.196  23.318  1.00  0.00     0.130 A
ATOM     22  H1  UNL     1     -10.664 -11.639  21.522  1.00  0.00     0.185 HD
HETATM   23  S2  UNL     1     -10.816 -13.117  24.669  1.00  0.00    -0.028 SA
HETATM   24  C9  UNL     1      -9.282 -13.814  24.462  1.00  0.00     0.160 A
HETATM   25  N9  UNL     1      -8.690 -13.542  23.289  1.00  0.00    -0.170 N
HETATM   26  N10 UNL     1      -8.674 -14.562  25.335  1.00  0.00    -0.379 N
ATOM     27  H9  UNL     1      -7.767 -13.945  23.127  1.00  0.00     0.186 HD
ATOM     28 2H10 UNL     1      -7.752 -14.980  25.211  1.00  0.00     0.158 HD
ATOM     29 1H10 UNL     1      -9.123 -14.768  26.227  1.00  0.00     0.158 HD
BRANCH  21  30
HETATM   30  S1  UNL     1     -12.877 -11.327  23.221  1.00  0.00    -0.109 SA
HETATM   31  C1  UNL     1     -12.637  -9.938  22.069  1.00  0.00     0.097 C
ENDBRANCH  21  30
ENDBRANCH  17  19
ENDBRANCH   1  17
BRANCH  16  32
HETATM   32  O1  UNL     1      -9.864 -10.638  19.740  1.00  0.00    -0.302 OA
ATOM     33  H1  UNL     1      -9.877 -11.571  19.561  1.00  0.00     0.237 HD
ENDBRANCH  16  32
TORSDOF 4
ENDMDL