MODEL 1
REMARK VINA RESULT: -5.509387993      0.000      0.000
REMARK  3 active torsions:
REMARK  status: ('A' for Active; 'I' for Inactive)
REMARK    1  A    between atoms: C2_2  and  C4_4
REMARK    2  A    between atoms: C7_10  and  C8_11
REMARK    3  A    between atoms: C8_11  and  N2_13
ROOT
HETATM    1  C4  UNL     1      29.223  18.006  17.420  1.00  0.00     0.195 C
HETATM    2  N1  UNL     1      28.899  17.224  16.198  1.00  0.00    -0.070 N
ATOM      3  H11 UNL     1      29.686  16.721  15.787  1.00  0.00     0.277 HD
ATOM      4  H12 UNL     1      28.698  17.783  15.370  1.00  0.00     0.277 HD
HETATM    5  C5  UNL     1      27.792  16.375  16.658  1.00  0.00     0.233 C
HETATM    6  C6  UNL     1      28.437  15.829  17.910  1.00  0.00     0.036 C
HETATM    7  C7  UNL     1      28.925  17.159  18.517  1.00  0.00     0.048 C
ENDROOT
BRANCH   7   8
HETATM    8  C8  UNL     1      29.814  16.861  19.661  1.00  0.00     0.185 C
HETATM    9  C9  UNL     1      29.379  15.729  20.553  1.00  0.00     0.040 C
BRANCH   8  10
HETATM   10  N2  UNL     1      29.885  18.054  20.530  1.00  0.00    -0.075 N
ATOM     11  H23 UNL     1      29.365  18.846  20.149  1.00  0.00     0.274 HD
ATOM     12  H22 UNL     1      29.354  17.940  21.394  1.00  0.00     0.274 HD
ATOM     13  H21 UNL     1      30.866  18.277  20.701  1.00  0.00     0.274 HD
ENDBRANCH   8  10
ENDBRANCH   7   8
BRANCH   1  14
HETATM   14  C2  UNL     1      30.452  18.744  17.137  1.00  0.00     0.008 C
HETATM   15  C1  UNL     1      30.956  18.618  15.707  1.00  0.00     0.011 C
HETATM   16  C3  UNL     1      30.623  20.135  17.611  1.00  0.00     0.011 C
ENDBRANCH   1  14
TORSDOF 3
ENDMDL