MODEL 5
REMARK VINA RESULT: -5.635744091      1.549      4.808
REMARK  2 active torsions:
REMARK  status: ('A' for Active; 'I' for Inactive)
REMARK    1  A    between atoms: C3_3  and  N1_4
REMARK    2  A    between atoms: N1_4  and  C4_6
ROOT
HETATM    1  C4  UNL     1      30.689  19.205  16.288  1.00  0.00     0.102 C
HETATM    2  C5  UNL     1      30.972  19.265  14.822  1.00  0.00     0.028 C
HETATM    3  C6  UNL     1      31.431  20.572  14.299  1.00  0.00     0.029 C
HETATM    4  C7  UNL     1      32.203  21.417  15.256  1.00  0.00     0.232 C
HETATM    5  N2  UNL     1      31.584  21.475  16.559  1.00  0.00    -0.073 N
ATOM      6  H21 UNL     1      30.657  21.901  16.544  1.00  0.00     0.277 HD
ATOM      7  H22 UNL     1      32.028  22.149  17.184  1.00  0.00     0.277 HD
HETATM    8  C8  UNL     1      31.581  20.125  17.090  1.00  0.00     0.256 C
ENDROOT
BRANCH   1   9
HETATM    9  N1  UNL     1      30.820  17.878  16.737  1.00  0.00    -0.411 N
ATOM     10  H1  UNL     1      31.725  17.409  16.733  1.00  0.00     0.154 HD
BRANCH   9  11
HETATM   11  C3  UNL     1      29.658  17.216  17.193  1.00  0.00     0.077 C
HETATM   12  C2  UNL     1      28.845  18.036  18.169  1.00  0.00     0.025 C
HETATM   13  C1  UNL     1      27.602  17.533  17.474  1.00  0.00     0.004 C
HETATM   14  C9  UNL     1      28.474  17.148  16.300  1.00  0.00     0.025 C
ENDBRANCH   9  11
ENDBRANCH   1   9
TORSDOF 2
ENDMDL