MODEL 2
REMARK VINA RESULT: -5.446794935      1.140      4.370
REMARK  2 active torsions:
REMARK  status: ('A' for Active; 'I' for Inactive)
REMARK    1  A    between atoms: C2_2  and  N1_4
REMARK    2  A    between atoms: N1_4  and  C4_6
ROOT
HETATM    1  C4  UNL     1      31.326  19.108  16.057  1.00  0.00     0.280 C
HETATM    2  C5  UNL     1      30.775  19.431  14.721  1.00  0.00     0.054 C
HETATM    3  C6  UNL     1      31.528  20.629  14.176  1.00  0.00     0.005 C
HETATM    4  C7  UNL     1      31.943  21.582  15.263  1.00  0.00     0.028 C
HETATM    5  C8  UNL     1      32.748  20.918  16.346  1.00  0.00     0.235 C
HETATM    6  N2  UNL     1      32.732  19.469  16.121  1.00  0.00    -0.055 N
ATOM      7  H21 UNL     1      33.270  19.173  15.307  1.00  0.00     0.279 HD
ATOM      8  H22 UNL     1      33.263  18.939  16.812  1.00  0.00     0.279 HD
ENDROOT
BRANCH   1   9
HETATM    9  N1  UNL     1      31.152  17.810  16.546  1.00  0.00    -0.392 N
ATOM     10  H1  UNL     1      31.709  17.052  16.151  1.00  0.00     0.155 HD
BRANCH   9  11
HETATM   11  C2  UNL     1      30.231  17.524  17.564  1.00  0.00     0.070 C
HETATM   12  C1  UNL     1      29.652  18.668  18.328  1.00  0.00     0.031 C
HETATM   13  C3  UNL     1      29.027  16.884  16.835  1.00  0.00     0.031 C
ENDBRANCH   9  11
ENDBRANCH   1   9
TORSDOF 2
ENDMDL