MODEL 5
REMARK VINA RESULT: -5.114815116      1.744      2.463
REMARK  2 active torsions:
REMARK  status: ('A' for Active; 'I' for Inactive)
REMARK    1  A    between atoms: C4_7  and  N2_8
REMARK    2  A    between atoms: N2_8  and  C5_10
ROOT
HETATM    1  C1  UNL     1      32.798  20.150  15.969  1.00  0.00     0.011 C
HETATM    2  C2  UNL     1      31.340  19.753  16.070  1.00  0.00     0.011 C
HETATM    3  C3  UNL     1      30.733  20.067  17.390  1.00  0.00     0.239 C
HETATM    4  N1  UNL     1      30.183  18.891  17.958  1.00  0.00    -0.054 N
ATOM      5  H11 UNL     1      29.233  19.039  18.298  1.00  0.00     0.279 HD
ATOM      6  H12 UNL     1      30.624  18.653  18.847  1.00  0.00     0.279 HD
HETATM    7  C4  UNL     1      30.254  17.814  17.020  1.00  0.00     0.280 C
HETATM    8  C8  UNL     1      31.228  18.250  15.946  1.00  0.00     0.060 C
ENDROOT
BRANCH   7   9
HETATM    9  N2  UNL     1      29.019  17.472  16.401  1.00  0.00    -0.392 N
ATOM     10  H2  UNL     1      28.685  17.945  15.561  1.00  0.00     0.155 HD
BRANCH   9  11
HETATM   11  C5  UNL     1      28.278  16.430  17.027  1.00  0.00     0.070 C
HETATM   12  C6  UNL     1      27.089  17.104  17.729  1.00  0.00     0.031 C
HETATM   13  C7  UNL     1      27.699  15.414  16.071  1.00  0.00     0.031 C
ENDBRANCH   9  11
ENDBRANCH   7   9
TORSDOF 2
ENDMDL