MODEL 2
REMARK VINA RESULT: -5.655490891      1.838      4.715
REMARK  3 active torsions:
REMARK  status: ('A' for Active; 'I' for Inactive)
REMARK    1  A    between atoms: N1_1  and  C1_5
REMARK    2  A    between atoms: C1_5  and  C2_6
REMARK    3  A    between atoms: C1_5  and  C5_9
ROOT
HETATM    1  C5  UNL     1      29.672  17.728  17.032  1.00  0.00     0.216 C
HETATM    2  C6  UNL     1      29.538  18.792  18.045  1.00  0.00     0.035 C
HETATM    3  C7  UNL     1      30.442  19.949  17.961  1.00  0.00     0.004 C
HETATM    4  C8  UNL     1      31.193  20.117  16.679  1.00  0.00     0.027 C
HETATM    5  C9  UNL     1      31.603  18.726  16.200  1.00  0.00     0.233 C
HETATM    6  N2  UNL     1      30.351  18.092  15.823  1.00  0.00    -0.069 N
ATOM      7  H21 UNL     1      29.782  18.671  15.207  1.00  0.00     0.277 HD
ATOM      8  H22 UNL     1      30.479  17.306  15.186  1.00  0.00     0.277 HD
ENDROOT
BRANCH   1   9
HETATM    9  C1  UNL     1      28.270  17.181  16.738  1.00  0.00     0.218 C
BRANCH   9  10
HETATM   10  N1  UNL     1      27.365  17.937  17.585  1.00  0.00    -0.073 N
ATOM     11  H13 UNL     1      26.402  17.833  17.267  1.00  0.00     0.274 HD
ATOM     12  H12 UNL     1      27.287  17.506  18.506  1.00  0.00     0.274 HD
ATOM     13  H11 UNL     1      27.616  18.923  17.666  1.00  0.00     0.274 HD
ENDBRANCH   9  10
BRANCH   9  14
HETATM   14  C2  UNL     1      28.178  15.711  16.941  1.00  0.00     0.018 A
HETATM   15  C3  UNL     1      26.905  14.988  17.069  1.00  0.00     0.007 A
HETATM   16  C4  UNL     1      27.567  14.962  15.745  1.00  0.00     0.007 A
ENDBRANCH   9  14
ENDBRANCH   1   9
TORSDOF 3
ENDMDL