MODEL 4
REMARK VINA RESULT: -5.715692379      1.679      2.192
REMARK  3 active torsions:
REMARK  status: ('A' for Active; 'I' for Inactive)
REMARK    1  A    between atoms: C3_3  and  C4_4
REMARK    2  A    between atoms: C4_4  and  N1_6
REMARK    3  A    between atoms: N1_6  and  C6_8
ROOT
HETATM    1  C6  UNL     1      28.549  17.790  17.920  1.00  0.00     0.280 C
HETATM    2  C7  UNL     1      28.481  17.128  19.278  1.00  0.00     0.055 C
HETATM    3  C8  UNL     1      27.502  16.008  18.993  1.00  0.00     0.031 C
HETATM    4  C9  UNL     1      26.634  16.580  17.929  1.00  0.00     0.235 C
HETATM    5  N2  UNL     1      27.178  17.883  17.560  1.00  0.00    -0.055 N
ATOM      6  H21 UNL     1      27.015  18.147  16.588  1.00  0.00     0.279 HD
ATOM      7  H22 UNL     1      26.687  18.676  17.972  1.00  0.00     0.279 HD
ENDROOT
BRANCH   1   8
HETATM    8  N1  UNL     1      29.273  19.018  17.930  1.00  0.00    -0.389 N
ATOM      9  H1  UNL     1      28.867  19.892  18.264  1.00  0.00     0.155 HD
BRANCH   8  10
HETATM   10  C4  UNL     1      30.611  18.929  17.435  1.00  0.00     0.097 C
HETATM   11  C5  UNL     1      30.563  17.982  16.227  1.00  0.00     0.036 C
BRANCH  10  12
HETATM   12  C3  UNL     1      31.115  20.243  16.947  1.00  0.00    -0.007 C
HETATM   13  C2  UNL     1      31.703  20.393  15.772  1.00  0.00    -0.033 C
HETATM   14  C1  UNL     1      32.214  21.682  15.257  1.00  0.00     0.036 C
ENDBRANCH  10  12
ENDBRANCH   8  10
ENDBRANCH   1   8
TORSDOF 3
ENDMDL