MODEL 3
REMARK VINA RESULT: -5.102805394      2.409      3.664
REMARK  2 active torsions:
REMARK  status: ('A' for Active; 'I' for Inactive)
REMARK    1  A    between atoms: N1_2  and  N2_3
REMARK    2  A    between atoms: N2_3  and  C2_4
ROOT
HETATM    1  C2  UNL     1      27.343  15.823  17.874  1.00  0.00     0.051 C
HETATM    2  C3  UNL     1      28.653  15.578  18.596  1.00  0.00     0.033 C
HETATM    3  C4  UNL     1      29.433  16.816  18.207  1.00  0.00    -0.012 C
HETATM    4  C5  UNL     1      29.553  16.827  16.713  1.00  0.00     0.010 C
HETATM    5  C6  UNL     1      28.103  16.924  16.276  1.00  0.00    -0.006 C
HETATM    6  C7  UNL     1      27.473  15.526  16.373  1.00  0.00     0.033 C
HETATM    7  C8  UNL     1      27.300  17.271  17.504  1.00  0.00     0.016 C
HETATM    8  C9  UNL     1      28.339  17.876  18.416  1.00  0.00     0.012 C
ENDROOT
BRANCH   1   9
HETATM    9  N2  UNL     1      26.170  15.288  18.496  1.00  0.00    -0.138 NA
BRANCH   9  10
HETATM   10  N1  UNL     1      26.529  14.932  19.813  1.00  0.00    -0.152 NA
HETATM   11  C1  UNL     1      25.851  15.759  20.785  1.00  0.00     0.154 C
ENDBRANCH   9  10
ENDBRANCH   1   9
TORSDOF 2
ENDMDL