MODEL 3
REMARK VINA RESULT: -5.825148141      1.955      4.786
REMARK  3 active torsions:
REMARK  status: ('A' for Active; 'I' for Inactive)
REMARK    1  A    between atoms: N1_1  and  C1_5
REMARK    2  A    between atoms: C3_7  and  N2_8
REMARK    3  A    between atoms: N2_8  and  C4_10
ROOT
HETATM    1  N2  UNL     1      30.451  19.200  17.940  1.00  0.00    -0.411 N
ATOM      2  H2  UNL     1      30.336  19.722  18.809  1.00  0.00     0.154 HD
ENDROOT
BRANCH   1   3
HETATM    3  C3  UNL     1      30.174  17.812  17.872  1.00  0.00     0.109 A
HETATM    4  C1  UNL     1      29.964  17.060  19.124  1.00  0.00     0.207 A
HETATM    5  C2  UNL     1      28.821  17.282  18.149  1.00  0.00     0.061 A
BRANCH   4   6
HETATM    6  N1  UNL     1      29.818  17.714  20.391  1.00  0.00    -0.073 N
ATOM      7  H13 UNL     1      30.302  18.612  20.381  1.00  0.00     0.274 HD
ATOM      8  H12 UNL     1      28.856  18.031  20.515  1.00  0.00     0.274 HD
ATOM      9  H11 UNL     1      30.114  17.166  21.199  1.00  0.00     0.274 HD
ENDBRANCH   4   6
ENDBRANCH   1   3
BRANCH   1  10
HETATM   10  C4  UNL     1      30.892  19.832  16.757  1.00  0.00     0.077 C
HETATM   11  C5  UNL     1      31.400  21.243  16.972  1.00  0.00     0.024 C
HETATM   12  C6  UNL     1      31.915  21.773  15.651  1.00  0.00     0.002 C
HETATM   13  C7  UNL     1      33.161  21.017  15.216  1.00  0.00     0.000 C
HETATM   14  C8  UNL     1      33.305  19.781  16.059  1.00  0.00     0.002 C
HETATM   15  C9  UNL     1      32.026  18.988  16.180  1.00  0.00     0.024 C
ENDBRANCH   1  10
TORSDOF 3
ENDMDL