MODEL 4
REMARK VINA RESULT: -5.701560778      1.332      2.063
REMARK  2 active torsions:
REMARK  status: ('A' for Active; 'I' for Inactive)
REMARK    1  A    between atoms: C3_3  and  N1_4
REMARK    2  A    between atoms: N1_4  and  C4_6
ROOT
HETATM    1  C4  UNL     1      29.582  18.652  17.569  1.00  0.00     0.080 C
HETATM    2  C5  UNL     1      29.463  17.895  18.878  1.00  0.00     0.052 C
HETATM    3  C6  UNL     1      28.043  17.373  18.965  1.00  0.00     0.234 C
HETATM    4  N2  UNL     1      27.382  17.428  17.682  1.00  0.00    -0.075 N
ATOM      5  H21 UNL     1      27.079  18.377  17.462  1.00  0.00     0.277 HD
ATOM      6  H22 UNL     1      26.469  16.973  17.715  1.00  0.00     0.277 HD
HETATM    7  C7  UNL     1      28.209  16.877  16.621  1.00  0.00     0.234 C
HETATM    8  C8  UNL     1      29.522  17.617  16.476  1.00  0.00     0.052 C
ENDROOT
BRANCH   1   9
HETATM    9  N1  UNL     1      30.722  19.463  17.576  1.00  0.00    -0.413 N
ATOM     10  H1  UNL     1      31.167  19.706  18.460  1.00  0.00     0.154 HD
BRANCH   9  11
HETATM   11  C3  UNL     1      31.257  19.944  16.363  1.00  0.00     0.077 C
HETATM   12  C2  UNL     1      31.634  21.431  16.525  1.00  0.00     0.025 C
HETATM   13  C1  UNL     1      32.737  21.156  15.526  1.00  0.00     0.004 C
HETATM   14  C9  UNL     1      32.686  19.699  16.022  1.00  0.00     0.025 C
ENDBRANCH   9  11
ENDBRANCH   1   9
TORSDOF 2
ENDMDL