MODEL 1
REMARK VINA RESULT: -8.370807645      0.000      0.000
REMARK  13 active torsions:
REMARK  status: ('A' for Active; 'I' for Inactive)
REMARK    1  A    between atoms: C2_2  and  O1_3
REMARK    2  A    between atoms: O1_3  and  C3_4
REMARK    3  A    between atoms: C3_4  and  C4_6
REMARK    4  A    between atoms: C6_10  and  C7_11
REMARK    5  A    between atoms: N2_13  and  O3_15
REMARK    6  A    between atoms: O3_15  and  C8_16
REMARK    7  A    between atoms: C8_16  and  N3_17
REMARK    8  A    between atoms: C8_16  and  C9_21
REMARK    9  A    between atoms: C9_21  and  C10_22
REMARK   10  A    between atoms: C10_22  and  C11_23
REMARK   11  A    between atoms: C11_23  and  N4_24
REMARK   12  A    between atoms: C12_26  and  C13_27
REMARK   13  A    between atoms: C13_27  and  N5_28
ROOT
HETATM    1  C8  UNL     1       3.470   5.586   0.751  1.00  0.00     0.348 C
ENDROOT
BRANCH   1   2
HETATM    2  O3  UNL     1       3.766   4.231   0.550  1.00  0.00    -0.246 OA
BRANCH   2   3
HETATM    3  N2  UNL     1       2.848   3.295   0.202  1.00  0.00    -0.252 N
HETATM    4  C7  UNL     1       2.863   2.701  -0.919  1.00  0.00     0.142 C
HETATM    5 CL1  UNL     1       4.090   3.049  -2.118  1.00  0.00    -0.061 Cl
ATOM      6  H2  UNL     1       2.115   3.058   0.870  1.00  0.00     0.195 HD
BRANCH   4   7
HETATM    7  C6  UNL     1       1.835   1.691  -1.235  1.00  0.00     0.069 A
HETATM    8  S1  UNL     1       0.181   1.950  -1.527  1.00  0.00    -0.069 SA
HETATM    9  C5  UNL     1      -0.310   0.344  -1.806  1.00  0.00     0.105 A
HETATM   10  C4  UNL     1       0.860  -0.363  -1.658  1.00  0.00     0.093 A
HETATM   11  N1  UNL     1      -1.612  -0.161  -2.116  1.00  0.00    -0.093 NA
HETATM   12  C17 UNL     1       1.964   0.334  -1.365  1.00  0.00     0.073 A
HETATM   13 CL2  UNL     1       3.584  -0.399  -1.134  1.00  0.00    -0.082 Cl
BRANCH  10  14
HETATM   14  C3  UNL     1       0.859  -1.845  -1.828  1.00  0.00     0.297 C
HETATM   15  O2  UNL     1       0.692  -2.619  -0.864  1.00  0.00    -0.259 OA
BRANCH  14  16
HETATM   16  O1  UNL     1       1.044  -2.448  -3.064  1.00  0.00    -0.318 OA
BRANCH  16  17
HETATM   17  C2  UNL     1       1.618  -3.728  -3.201  1.00  0.00     0.174 C
HETATM   18  C1  UNL     1       3.144  -3.654  -3.183  1.00  0.00     0.034 C
ENDBRANCH  16  17
ENDBRANCH  14  16
ENDBRANCH  10  14
ENDBRANCH   4   7
ENDBRANCH   2   3
ENDBRANCH   1   2
BRANCH   1  19
HETATM   19  N3  UNL     1       2.979   5.702   2.131  1.00  0.00    -0.051 N
ATOM     20  H33 UNL     1       2.348   4.947   2.400  1.00  0.00     0.277 HD
ATOM     21  H32 UNL     1       3.696   5.523   2.832  1.00  0.00     0.277 HD
ATOM     22  H31 UNL     1       2.559   6.628   2.209  1.00  0.00     0.277 HD
ENDBRANCH   1  19
BRANCH   1  23
HETATM   23  C9  UNL     1       4.696   6.470   0.649  1.00  0.00     0.065 C
BRANCH  23  24
HETATM   24  C10 UNL     1       5.443   6.090  -0.614  1.00  0.00     0.024 C
BRANCH  24  25
HETATM   25  C11 UNL     1       6.806   5.513  -0.299  1.00  0.00     0.119 C
BRANCH  25  26
HETATM   26  N4  UNL     1       7.817   6.504  -0.226  1.00  0.00    -0.401 N
HETATM   27  C12 UNL     1       9.004   6.293   0.168  1.00  0.00     0.075 C
ATOM     28  H4  UNL     1       7.573   7.453  -0.511  1.00  0.00     0.158 HD
BRANCH  27  29
HETATM   29  C13 UNL     1       9.925   7.488   0.170  1.00  0.00     0.182 C
BRANCH  29  30
HETATM   30  N5  UNL     1      11.211   7.002   0.602  1.00  0.00    -0.222 N
HETATM   31  C14 UNL     1      11.659   7.392   1.762  1.00  0.00     0.678 C
HETATM   32  N6  UNL     1      10.917   8.256   2.567  1.00  0.00    -0.217 N
HETATM   33  N7  UNL     1      12.942   6.895   2.156  1.00  0.00    -0.151 N
HETATM   34  C15 UNL     1      10.867   8.323   4.004  1.00  0.00     0.222 C
ATOM     35  H6  UNL     1      10.332   8.929   2.072  1.00  0.00     0.178 HD
HETATM   36  S2  UNL     1      12.354   7.612   4.773  1.00  0.00    -0.048 SA
HETATM   37  C16 UNL     1      13.464   7.300   3.403  1.00  0.00     0.299 C
HETATM   38  O4  UNL     1      14.688   7.453   3.598  1.00  0.00    -0.259 OA
ATOM     39  H7  UNL     1      13.466   6.263   1.550  1.00  0.00     0.188 HD
ATOM     40  H5  UNL     1      11.756   6.370   0.015  1.00  0.00     0.178 HD
ENDBRANCH  29  30
ENDBRANCH  27  29
ENDBRANCH  25  26
ENDBRANCH  24  25
ENDBRANCH  23  24
ENDBRANCH   1  23
TORSDOF 13
ENDMDL