MODEL 1
REMARK VINA RESULT: -8.066900864      0.000      0.000
REMARK  18 active torsions:
REMARK  status: ('A' for Active; 'I' for Inactive)
REMARK    1  A    between atoms: O1_2  and  C2_3
REMARK    2  A    between atoms: C2_3  and  O2_4
REMARK    3  A    between atoms: C2_3  and  C3_6
REMARK    4  A    between atoms: C3_6  and  N1_7
REMARK    5  A    between atoms: C3_6  and  C6_15
REMARK    6  A    between atoms: N1_7  and  N2_9
REMARK       I    between atoms: N2_9  and  C4_11
REMARK    7  A    between atoms: C4_11  and  C5_13
REMARK    8  A    between atoms: C7_16  and  O4_17
REMARK    9  A    between atoms: C8_20  and  O6_21
REMARK   10  A    between atoms: O6_21  and  C9_22
REMARK   11  A    between atoms: C9_22  and  O7_23
REMARK   12  A    between atoms: C9_22  and  C10_25
REMARK   13  A    between atoms: C10_25  and  O8_28
REMARK   14  A    between atoms: C13_30  and  C14_31
REMARK   15  A    between atoms: C15_32  and  C16_33
REMARK   16  A    between atoms: C16_33  and  O10_35
REMARK   17  A    between atoms: O10_35  and  C17_36
REMARK   18  A    between atoms: C17_36  and  C18_37
ROOT
HETATM    1  C6  UNL     1       4.569   3.506  -0.814  1.00  0.00     0.070 A
HETATM    2  C7  UNL     1       5.482   2.809  -1.648  1.00  0.00     0.199 A
HETATM    3  O5  UNL     1       5.014   1.637  -1.897  1.00  0.00    -0.263 OA
HETATM    4  C8  UNL     1       3.870   1.431  -1.334  1.00  0.00     0.201 A
HETATM    5  C13 UNL     1       3.540   2.592  -0.627  1.00  0.00     0.040 A
ENDROOT
BRANCH   1   6
HETATM    6  C3  UNL     1       4.785   4.859  -0.354  1.00  0.00     0.122 C
BRANCH   6   7
HETATM    7  C2  UNL     1       4.069   5.669   0.533  1.00  0.00     0.207 C
BRANCH   7   8
HETATM    8  O1  UNL     1       3.410   5.317   1.656  1.00  0.00    -0.334 OA
HETATM    9  C1  UNL     1       2.114   5.643   2.047  1.00  0.00     0.212 C
ENDBRANCH   7   8
BRANCH   7  10
HETATM   10  O2  UNL     1       3.971   6.972   0.327  1.00  0.00    -0.339 OA
ATOM     11  H2  UNL     1       3.827   7.153  -0.594  1.00  0.00     0.220 HD
ENDBRANCH   7  10
ENDBRANCH   6   7
BRANCH   6  12
HETATM   12  N1  UNL     1       5.888   5.399  -0.850  1.00  0.00    -0.293 N
ATOM     13  H1  UNL     1       6.067   5.251  -1.843  1.00  0.00     0.187 HD
BRANCH  12  14
HETATM   14  N2  UNL     1       6.810   6.136  -0.159  1.00  0.00    -0.269 N
HETATM   15  C4  UNL     1       8.220   5.917  -0.266  1.00  0.00     0.249 C
HETATM   16  O3  UNL     1       8.626   5.009  -1.027  1.00  0.00    -0.271 OA
ATOM     17  H2  UNL     1       6.478   6.876   0.461  1.00  0.00     0.190 HD
BRANCH  15  18
HETATM   18  C5  UNL     1       9.154   6.744   0.502  1.00  0.00     0.219 C
HETATM   19 CL1  UNL     1      10.851   6.229   0.265  1.00  0.00    -0.121 Cl
ENDBRANCH  15  18
ENDBRANCH  12  14
ENDBRANCH   6  12
ENDBRANCH   1   6
BRANCH   2  20
HETATM   20  O4  UNL     1       6.691   3.338  -2.109  1.00  0.00    -0.340 OA
ATOM     21  H4  UNL     1       7.063   3.159  -2.965  1.00  0.00     0.220 HD
ENDBRANCH   2  20
BRANCH   5  22
HETATM   22  C14 UNL     1       2.265   2.816  -0.008  1.00  0.00     0.023 C
HETATM   23  C15 UNL     1       1.098   2.968  -0.529  1.00  0.00     0.083 C
BRANCH  23  24
HETATM   24  C16 UNL     1       0.714   2.941  -1.913  1.00  0.00     0.282 C
HETATM   25  O9  UNL     1       1.424   3.141  -2.915  1.00  0.00    -0.260 OA
BRANCH  24  26
HETATM   26  O10 UNL     1      -0.643   2.651  -2.227  1.00  0.00    -0.318 OA
BRANCH  26  27
HETATM   27  C17 UNL     1      -0.982   1.345  -2.625  1.00  0.00     0.183 C
BRANCH  27  28
HETATM   28  C18 UNL     1      -2.114   1.414  -3.623  1.00  0.00     0.010 C
HETATM   29  C19 UNL     1      -2.016   0.273  -4.632  1.00  0.00     0.007 C
HETATM   30  C20 UNL     1      -2.446   0.831  -5.954  1.00  0.00     0.000 C
HETATM   31  C21 UNL     1      -2.903   2.236  -5.678  1.00  0.00     0.000 C
HETATM   32  C22 UNL     1      -2.039   2.651  -4.492  1.00  0.00     0.007 C
ENDBRANCH  27  28
ENDBRANCH  26  27
ENDBRANCH  24  26
ENDBRANCH  23  24
ENDBRANCH   5  22
BRANCH   4  33
HETATM   33  O6  UNL     1       3.120   0.240  -1.445  1.00  0.00    -0.295 OA
BRANCH  33  34
HETATM   34  C9  UNL     1       3.682  -0.871  -0.772  1.00  0.00     0.299 C
BRANCH  34  35
HETATM   35  O7  UNL     1       4.720  -0.246   0.032  1.00  0.00    -0.368 OA
ATOM     36  H7  UNL     1       4.765  -0.825   0.783  1.00  0.00     0.212 HD
ENDBRANCH  34  35
BRANCH  34  37
HETATM   37  C10 UNL     1       2.811  -1.546   0.220  1.00  0.00     0.100 C
HETATM   38  C11 UNL     1       1.567  -0.839   0.614  1.00  0.00     0.051 C
HETATM   39  C12 UNL     1       2.364  -2.865  -0.435  1.00  0.00     0.051 C
BRANCH  37  40
HETATM   40  O8  UNL     1       3.574  -1.868   1.347  1.00  0.00    -0.386 OA
ATOM     41  H8  UNL     1       3.034  -1.765   2.123  1.00  0.00     0.210 HD
ENDBRANCH  37  40
ENDBRANCH  34  37
ENDBRANCH  33  34
ENDBRANCH   4  33
TORSDOF 18
ENDMDL