MODEL 1
REMARK VINA RESULT: -6.606525050      0.000      0.000
REMARK  17 active torsions:
REMARK  status: ('A' for Active; 'I' for Inactive)
REMARK    1  A    between atoms: C2_2  and  O1_3
REMARK    2  A    between atoms: O1_3  and  C3_4
REMARK    3  A    between atoms: C3_4  and  O3_6
REMARK    4  A    between atoms: O3_6  and  C4_7
REMARK    5  A    between atoms: C4_7  and  C6_9
REMARK    6  A    between atoms: C6_9  and  C7_10
REMARK    7  A    between atoms: C6_9  and  N2_17
REMARK    8  A    between atoms: C7_10  and  O4_11
REMARK    9  A    between atoms: N1_13  and  O5_15
REMARK   10  A    between atoms: N2_17  and  C8_18
REMARK   11  A    between atoms: N2_17  and  S1_25
REMARK   12  A    between atoms: C8_18  and  O6_19
REMARK   13  A    between atoms: N3_21  and  O7_23
REMARK   14  A    between atoms: S1_25  and  C9_28
REMARK   15  A    between atoms: C11_30  and  N4_31
REMARK   16  A    between atoms: N4_31  and  O10_32
REMARK   17  A    between atoms: N4_31  and  C12_34
ROOT
HETATM    1  N2  UNL     1       2.220   1.806  -0.846  1.00  0.00    -0.195 N
ENDROOT
BRANCH   1   2
HETATM    2  C6  UNL     1       3.508   1.486  -1.293  1.00  0.00     0.113 C
BRANCH   2   3
HETATM    3  C4  UNL     1       4.366   2.711  -1.696  1.00  0.00     0.185 C
HETATM    4  C5  UNL     1       5.103   2.329  -2.968  1.00  0.00     0.047 C
BRANCH   3   5
HETATM    5  O3  UNL     1       5.165   3.205  -0.701  1.00  0.00    -0.287 OA
BRANCH   5   6
HETATM    6  C3  UNL     1       5.402   4.568  -0.588  1.00  0.00     0.407 C
HETATM    7  O2  UNL     1       4.438   5.262  -0.256  1.00  0.00    -0.229 OA
BRANCH   6   8
HETATM    8  O1  UNL     1       6.624   5.158  -0.823  1.00  0.00    -0.298 OA
BRANCH   8   9
HETATM    9  C2  UNL     1       7.242   6.090   0.007  1.00  0.00     0.176 C
HETATM   10  C1  UNL     1       8.742   6.116  -0.059  1.00  0.00     0.034 C
ENDBRANCH   8   9
ENDBRANCH   6   8
ENDBRANCH   5   6
ENDBRANCH   3   5
ENDBRANCH   2   3
BRANCH   2  11
HETATM   11  C7  UNL     1       4.335   0.500  -0.604  1.00  0.00     0.187 C
HETATM   12  N1  UNL     1       4.322  -0.776  -0.887  1.00  0.00    -0.246 N
ATOM     13  H1  UNL     1       4.935  -1.392  -0.353  1.00  0.00     0.196 HD
BRANCH  11  14
HETATM   14  O4  UNL     1       5.225   0.846   0.435  1.00  0.00    -0.343 OA
ATOM     15  H4  UNL     1       6.001   0.337   0.635  1.00  0.00     0.219 HD
ENDBRANCH  11  14
BRANCH  12  16
HETATM   16  O5  UNL     1       3.545  -1.330  -1.847  1.00  0.00    -0.288 OA
ATOM     17  H5  UNL     1       3.488  -2.264  -2.010  1.00  0.00     0.244 HD
ENDBRANCH  12  16
ENDBRANCH   2  11
ENDBRANCH   1   2
BRANCH   1  18
HETATM   18  C8  UNL     1       2.152   3.031  -0.010  1.00  0.00     0.258 C
HETATM   19  N3  UNL     1       1.462   4.030  -0.378  1.00  0.00    -0.232 N
ATOM     20  H3  UNL     1       0.961   3.958  -1.264  1.00  0.00     0.198 HD
BRANCH  18  21
HETATM   21  O6  UNL     1       2.888   2.962   1.154  1.00  0.00    -0.330 OA
ATOM     22  H6  UNL     1       2.869   3.757   1.674  1.00  0.00     0.221 HD
ENDBRANCH  18  21
BRANCH  19  23
HETATM   23  O7  UNL     1       1.342   5.185   0.318  1.00  0.00    -0.287 OA
ATOM     24  H7  UNL     1       0.869   5.953   0.018  1.00  0.00     0.244 HD
ENDBRANCH  19  23
ENDBRANCH   1  18
BRANCH   1  25
HETATM   25  S1  UNL     1       0.696   1.097  -1.046  1.00  0.00     0.274 S
HETATM   26  O8  UNL     1      -0.221   1.908  -1.930  1.00  0.00    -0.200 OA
HETATM   27  O9  UNL     1       0.771  -0.270  -1.714  1.00  0.00    -0.200 OA
BRANCH  25  28
HETATM   28  C9  UNL     1      -0.186   0.884   0.447  1.00  0.00     0.104 A
HETATM   29  C10 UNL     1      -1.352   1.634   0.650  1.00  0.00     0.058 A
HETATM   30  C11 UNL     1      -2.140   1.488   1.756  1.00  0.00     0.059 A
HETATM   31  C13 UNL     1      -1.771   0.573   2.698  1.00  0.00     0.033 A
HETATM   32  C14 UNL     1      -0.635  -0.168   2.521  1.00  0.00     0.028 A
HETATM   33  C15 UNL     1       0.170  -0.016   1.387  1.00  0.00     0.057 A
HETATM   34 CL2  UNL     1       1.636  -0.980   1.360  1.00  0.00    -0.083 Cl
BRANCH  30  35
HETATM   35  N4  UNL     1      -3.324   2.260   1.933  1.00  0.00    -0.247 N
BRANCH  35  36
HETATM   36  O10 UNL     1      -3.261   3.245   2.731  1.00  0.00    -0.286 OA
ATOM     37  H10 UNL     1      -4.082   3.639   3.001  1.00  0.00     0.244 HD
ENDBRANCH  35  36
BRANCH  35  38
HETATM   38  C12 UNL     1      -4.577   1.991   1.268  1.00  0.00     0.270 C
HETATM   39 CL1  UNL     1      -4.702   0.278   0.834  1.00  0.00    -0.106 Cl
ENDBRANCH  35  38
ENDBRANCH  30  35
ENDBRANCH  25  28
ENDBRANCH   1  25
TORSDOF 17
ENDMDL