MODEL 3
REMARK VINA RESULT: -7.284374703      1.214      1.733
REMARK  12 active torsions:
REMARK  status: ('A' for Active; 'I' for Inactive)
REMARK    1  A    between atoms: C4_8  and  C5_9
REMARK    2  A    between atoms: C5_9  and  N3_10
REMARK    3  A    between atoms: N3_10  and  C7_12
REMARK    4  A    between atoms: C7_12  and  C8_13
REMARK    5  A    between atoms: C7_12  and  C9_16
REMARK    6  A    between atoms: C9_16  and  C10_18
REMARK    7  A    between atoms: C10_18  and  C11_20
REMARK    8  A    between atoms: C11_20  and  N4_21
REMARK    9  A    between atoms: C11_20  and  C15_29
REMARK   10  A    between atoms: N4_21  and  C12_23
REMARK   11  A    between atoms: C15_29  and  O5_30
REMARK   12  A    between atoms: N6_32  and  O6_34
ROOT
HETATM    1  C12 UNL     1       4.514   5.438  -0.051  1.00  0.00     0.144 C
HETATM    2  C13 UNL     1       5.901   5.944  -0.091  1.00  0.00     0.120 C
HETATM    3  N5  UNL     1       6.975   6.358  -0.114  1.00  0.00    -0.190 NA
HETATM    4  C14 UNL     1       3.648   6.197   0.542  1.00  0.00     0.140 C
HETATM    5 CL1  UNL     1       4.182   7.725   1.268  1.00  0.00    -0.068 Cl
HETATM    6 CL2  UNL     1       1.963   5.807   0.658  1.00  0.00    -0.068 Cl
ENDROOT
BRANCH   1   7
HETATM    7  N4  UNL     1       4.275   4.216  -0.669  1.00  0.00    -0.361 N
ATOM      8  H4  UNL     1       3.392   4.171  -1.179  1.00  0.00     0.161 HD
BRANCH   7   9
HETATM    9  C11 UNL     1       5.039   3.020  -0.718  1.00  0.00     0.237 C
BRANCH   9  10
HETATM   10  C10 UNL     1       4.081   1.857  -0.488  1.00  0.00     0.228 C
HETATM   11  O4  UNL     1       4.544   0.720  -0.317  1.00  0.00    -0.286 OA
BRANCH  10  12
HETATM   12  C9  UNL     1       2.674   2.115  -0.478  1.00  0.00     0.230 C
HETATM   13  O3  UNL     1       2.169   2.953  -1.334  1.00  0.00    -0.286 OA
BRANCH  12  14
HETATM   14  C7  UNL     1       1.749   1.465   0.479  1.00  0.00     0.263 C
BRANCH  14  15
HETATM   15  N3  UNL     1       1.167   0.300   0.016  1.00  0.00    -0.371 N
HETATM   16  C6  UNL     1       0.405  -0.488   0.936  1.00  0.00     0.150 C
BRANCH  15  17
HETATM   17  C5  UNL     1       1.198  -0.103  -1.317  1.00  0.00     0.123 C
BRANCH  17  18
HETATM   18  C4  UNL     1       1.871  -1.453  -1.523  1.00  0.00     0.092 A
HETATM   19  N2  UNL     1       2.848  -1.979  -0.867  1.00  0.00    -0.334 N
HETATM   20  C3  UNL     1       3.319  -3.177  -1.194  1.00  0.00     0.131 A
ATOM     21  H2  UNL     1       3.264  -1.470  -0.088  1.00  0.00     0.168 HD
HETATM   22  N1  UNL     1       4.315  -3.847  -0.616  1.00  0.00    -0.339 N
HETATM   23  C16 UNL     1       2.713  -3.795  -2.245  1.00  0.00     0.093 A
HETATM   24  C2  UNL     1       4.656  -5.009  -1.053  1.00  0.00     0.049 A
ATOM     25  H1  UNL     1       4.810  -3.437   0.177  1.00  0.00     0.168 HD
HETATM   26  C1  UNL     1       5.754  -5.906  -0.516  1.00  0.00     0.076 C
HETATM   27  S2  UNL     1       3.582  -5.273  -2.350  1.00  0.00    -0.066 SA
HETATM   28  S1  UNL     1       1.519  -2.641  -2.698  1.00  0.00    -0.060 SA
ENDBRANCH  17  18
ENDBRANCH  15  17
ENDBRANCH  14  15
BRANCH  14  29
HETATM   29  C8  UNL     1       0.887   2.463   1.157  1.00  0.00     0.204 C
HETATM   30  O1  UNL     1       1.254   2.952   2.255  1.00  0.00    -0.646 OA
HETATM   31  O2  UNL     1      -0.302   2.867   0.614  1.00  0.00    -0.646 OA
ENDBRANCH  14  29
ENDBRANCH  12  14
ENDBRANCH  10  12
ENDBRANCH   9  10
BRANCH   9  32
HETATM   32  C15 UNL     1       5.781   2.798  -1.982  1.00  0.00     0.166 C
HETATM   33  N6  UNL     1       6.964   3.133  -2.223  1.00  0.00    -0.249 N
ATOM     34  H6  UNL     1       7.262   2.876  -3.164  1.00  0.00     0.196 HD
BRANCH  32  35
HETATM   35  O5  UNL     1       5.125   2.151  -3.053  1.00  0.00    -0.346 OA
ATOM     36  H5  UNL     1       4.820   2.672  -3.786  1.00  0.00     0.219 HD
ENDBRANCH  32  35
BRANCH  33  37
HETATM   37  O6  UNL     1       7.917   3.746  -1.532  1.00  0.00    -0.288 OA
ATOM     38  H6  UNL     1       7.923   4.389  -0.832  1.00  0.00     0.244 HD
ENDBRANCH  33  37
ENDBRANCH   9  32
ENDBRANCH   7   9
ENDBRANCH   1   7
TORSDOF 12
ENDMDL