MODEL 3
REMARK VINA RESULT: -7.676408682      1.638      2.465
REMARK  14 active torsions:
REMARK  status: ('A' for Active; 'I' for Inactive)
REMARK    1  A    between atoms: C2_2  and  N1_5
REMARK       I    between atoms: N1_5  and  C5_7
REMARK    2  A    between atoms: C5_7  and  O2_9
REMARK    3  A    between atoms: O2_9  and  N2_10
REMARK    4  A    between atoms: N2_10  and  C6_11
REMARK    5  A    between atoms: C6_11  and  C7_12
REMARK    6  A    between atoms: C6_11  and  C17_36
REMARK    7  A    between atoms: C7_12  and  C8_14
REMARK    8  A    between atoms: C8_14  and  C9_17
REMARK    9  A    between atoms: C9_17  and  C10_19
REMARK   10  A    between atoms: C10_19  and  O5_20
REMARK   11  A    between atoms: C10_19  and  N3_22
REMARK   12  A    between atoms: N3_22  and  C11_24
REMARK   13  A    between atoms: C14_27  and  N4_28
REMARK   14  A    between atoms: C16_32  and  N5_33
ROOT
HETATM    1  C8  UNL     1       5.579   2.506  -1.779  1.00  0.00     0.368 C
HETATM    2  F1  UNL     1       6.926   2.366  -1.518  1.00  0.00    -0.188 F
HETATM    3  F2  UNL     1       5.410   2.168  -3.110  1.00  0.00    -0.188 F
ENDROOT
BRANCH   1   4
HETATM    4  C7  UNL     1       5.175   3.894  -1.498  1.00  0.00     0.234 C
HETATM    5  O3  UNL     1       4.482   4.471  -2.354  1.00  0.00    -0.288 OA
BRANCH   4   6
HETATM    6  C6  UNL     1       5.545   4.639  -0.267  1.00  0.00     0.240 C
BRANCH   6   7
HETATM    7  N2  UNL     1       6.509   5.699  -0.568  1.00  0.00    -0.070 NA
BRANCH   7   8
HETATM    8  O2  UNL     1       7.735   5.054  -0.636  1.00  0.00    -0.188 OA
BRANCH   8   9
HETATM    9  C5  UNL     1       8.925   5.643  -0.325  1.00  0.00     0.379 C
HETATM   10  N1  UNL     1       9.062   6.687   0.650  1.00  0.00    -0.328 N
ATOM     11  H1  UNL     1       8.224   7.005   1.138  1.00  0.00     0.165 HD
HETATM   12  O1  UNL     1       9.962   5.258  -0.917  1.00  0.00    -0.237 OA
BRANCH  10  13
HETATM   13  C2  UNL     1      10.304   7.302   0.974  1.00  0.00     0.024 C
HETATM   14  C1  UNL     1      11.493   6.409   0.704  1.00  0.00     0.037 C
HETATM   15  C3  UNL     1      10.435   8.572   0.157  1.00  0.00     0.037 C
HETATM   16  C4  UNL     1      10.315   7.671   2.434  1.00  0.00     0.037 C
ENDBRANCH  10  13
ENDBRANCH   8   9
ENDBRANCH   7   8
ENDBRANCH   6   7
BRANCH   6  17
HETATM   17  C17 UNL     1       4.339   5.200   0.411  1.00  0.00     0.081 A
HETATM   18  C18 UNL     1       3.958   6.525   0.546  1.00  0.00     0.037 A
HETATM   19  C19 UNL     1       2.764   6.502   1.257  1.00  0.00     0.027 A
HETATM   20  C20 UNL     1       2.478   5.200   1.516  1.00  0.00     0.142 A
HETATM   21  O10 UNL     1       3.410   4.466   1.013  1.00  0.00    -0.325 OA
ENDBRANCH   6  17
ENDBRANCH   4   6
ENDBRANCH   1   4
BRANCH   1  22
HETATM   22  C9  UNL     1       4.852   1.516  -0.906  1.00  0.00     0.253 C
HETATM   23  O4  UNL     1       5.463   0.948  -0.033  1.00  0.00    -0.286 OA
BRANCH  22  24
HETATM   24  C10 UNL     1       3.413   1.269  -1.147  1.00  0.00     0.296 C
BRANCH  24  25
HETATM   25  O5  UNL     1       3.235  -0.090  -1.468  1.00  0.00    -0.369 OA
ATOM     26  H5  UNL     1       2.402  -0.381  -1.115  1.00  0.00     0.212 HD
ENDBRANCH  24  25
BRANCH  24  27
HETATM   27  N3  UNL     1       2.557   1.650  -0.041  1.00  0.00    -0.356 N
ATOM     28  H3  UNL     1       2.912   2.314   0.647  1.00  0.00     0.162 HD
BRANCH  27  29
HETATM   29  C11 UNL     1       1.245   1.137   0.122  1.00  0.00     0.063 A
HETATM   30  C12 UNL     1       1.041   0.058   0.994  1.00  0.00     0.034 A
HETATM   31  C13 UNL     1      -0.208  -0.447   1.181  1.00  0.00     0.038 A
HETATM   32  C14 UNL     1      -1.296   0.086   0.527  1.00  0.00     0.105 A
HETATM   33  C15 UNL     1      -1.103   1.137  -0.320  1.00  0.00     0.074 A
HETATM   34  C16 UNL     1       0.178   1.695  -0.547  1.00  0.00     0.131 A
BRANCH  32  35
HETATM   35  N4  UNL     1      -2.606  -0.475   0.750  1.00  0.00    -0.116 N
HETATM   36  O6  UNL     1      -3.212  -0.244   1.794  1.00  0.00    -0.532 OA
HETATM   37  O7  UNL     1      -3.120  -1.259  -0.248  1.00  0.00    -0.532 OA
ENDBRANCH  32  35
BRANCH  34  38
HETATM   38  N5  UNL     1       0.259   2.771  -1.458  1.00  0.00    -0.113 N
HETATM   39  O8  UNL     1       0.799   3.834  -1.007  1.00  0.00    -0.532 OA
HETATM   40  O9  UNL     1      -0.161   2.821  -2.731  1.00  0.00    -0.532 OA
ENDBRANCH  34  38
ENDBRANCH  27  29
ENDBRANCH  24  27
ENDBRANCH  22  24
ENDBRANCH   1  22
TORSDOF 14
ENDMDL