MODEL 4
REMARK VINA RESULT: -5.609505342      2.406      2.863
REMARK  11 active torsions:
REMARK  status: ('A' for Active; 'I' for Inactive)
REMARK    1  A    between atoms: C4_6  and  O1_7
REMARK    2  A    between atoms: C5_9  and  C6_10
REMARK       I    between atoms: N3_15  and  C10_17
REMARK    3  A    between atoms: C10_17  and  C11_19
REMARK    4  A    between atoms: C12_23  and  S3_24
REMARK    5  A    between atoms: C12_23  and  C15_34
REMARK    6  A    between atoms: S3_24  and  N4_25
REMARK    7  A    between atoms: N4_25  and  N5_26
REMARK    8  A    between atoms: N5_26  and  C13_27
REMARK    9  A    between atoms: N5_26  and  N6_30
REMARK   10  A    between atoms: C13_27  and  C14_28
REMARK   11  A    between atoms: N6_30  and  O3_32
ROOT
HETATM    1  C6  UNL     1       0.666   0.233   0.120  1.00  0.00    -0.001 C
HETATM    2  C7  UNL     1       0.702  -0.075   1.576  1.00  0.00     0.183 C
HETATM    3  C8  UNL     1       1.310  -1.404   1.720  1.00  0.00     0.075 C
HETATM    4  N2  UNL     1       1.833  -2.433   1.824  1.00  0.00    -0.196 NA
HETATM    5  C9  UNL     1      -0.666  -0.183   2.154  1.00  0.00     0.082 C
HETATM    6  N3  UNL     1      -0.866  -0.229   3.437  1.00  0.00    -0.322 N
ATOM      7  H3  UNL     1      -1.834  -0.300   3.749  1.00  0.00     0.169 HD
HETATM    8  C10 UNL     1       0.112  -0.190   4.426  1.00  0.00     0.236 C
HETATM    9  O2  UNL     1       0.842   0.817   4.552  1.00  0.00    -0.272 OA
HETATM   10  S1  UNL     1      -2.122  -0.223   1.117  1.00  0.00    -0.040 SA
HETATM   11  S2  UNL     1      -1.809   1.139  -0.473  1.00  0.00    -0.054 SA
HETATM   12  C12 UNL     1       0.039   1.460  -0.375  1.00  0.00     0.188 C
ENDROOT
BRANCH   1  13
HETATM   13  C5  UNL     1       1.777  -0.381  -0.644  1.00  0.00     0.029 A
HETATM   14  C2  UNL     1       1.738  -1.501  -1.463  1.00  0.00    -0.032 A
HETATM   15  C1  UNL     1       0.510  -2.141  -1.953  1.00  0.00     0.050 C
HETATM   16  C3  UNL     1       3.031  -1.817  -1.813  1.00  0.00     0.097 A
HETATM   17  N1  UNL     1       3.887  -0.948  -1.256  1.00  0.00    -0.346 N
HETATM   18  C4  UNL     1       3.121  -0.084  -0.553  1.00  0.00     0.151 A
ATOM     19  H1  UNL     1       4.903  -0.940  -1.344  1.00  0.00     0.167 HD
BRANCH  18  20
HETATM   20  O1  UNL     1       3.722   0.948   0.144  1.00  0.00    -0.345 OA
ATOM     21  H1  UNL     1       3.182   1.615   0.553  1.00  0.00     0.219 HD
ENDBRANCH  18  20
ENDBRANCH   1  13
BRANCH  12  22
HETATM   22  S3  UNL     1       0.045   2.863   0.817  1.00  0.00    -0.002 SA
BRANCH  22  23
HETATM   23  N4  UNL     1       1.734   2.905   1.426  1.00  0.00    -0.044 NA
BRANCH  23  24
HETATM   24  N5  UNL     1       2.387   4.072   1.079  1.00  0.00    -0.206 N
BRANCH  24  25
HETATM   25  C13 UNL     1       2.285   5.237   1.907  1.00  0.00     0.183 C
BRANCH  25  26
HETATM   26  C14 UNL     1       2.462   6.466   1.026  1.00  0.00     0.138 C
HETATM   27 CL2  UNL     1       4.091   7.151   1.298  1.00  0.00    -0.129 Cl
ENDBRANCH  25  26
ENDBRANCH  24  25
BRANCH  24  28
HETATM   28  N6  UNL     1       3.184   4.129  -0.055  1.00  0.00    -0.196 N
ATOM     29  H6  UNL     1       2.839   4.658  -0.855  1.00  0.00     0.217 HD
BRANCH  28  30
HETATM   30  O3  UNL     1       4.291   3.576  -0.160  1.00  0.00    -0.273 OA
ATOM     31  H3  UNL     1       4.985   3.872  -0.737  1.00  0.00     0.246 HD
ENDBRANCH  28  30
ENDBRANCH  24  28
ENDBRANCH  23  24
ENDBRANCH  22  23
ENDBRANCH  12  22
BRANCH  12  32
HETATM   32  C15 UNL     1       0.446   1.973  -1.696  1.00  0.00     0.267 C
HETATM   33  N7  UNL     1       1.702   2.513  -1.954  1.00  0.00    -0.059 NA
HETATM   34  O4  UNL     1      -0.400   1.914  -2.641  1.00  0.00    -0.274 OA
ENDBRANCH  12  32
BRANCH   8  35
HETATM   35  C11 UNL     1       0.305  -1.332   5.346  1.00  0.00     0.217 C
HETATM   36 CL1  UNL     1      -0.413  -2.810   4.651  1.00  0.00    -0.121 Cl
ENDBRANCH   8  35
TORSDOF 11
ENDMDL