MODEL 5
REMARK VINA RESULT: -7.057584322      2.102      3.371
REMARK  13 active torsions:
REMARK  status: ('A' for Active; 'I' for Inactive)
REMARK    1  A    between atoms: C2_2  and  C3_3
REMARK    2  A    between atoms: C3_3  and  C5_5
REMARK    3  A    between atoms: C5_5  and  N1_6
REMARK    4  A    between atoms: C5_5  and  C12_20
REMARK       I    between atoms: N1_6  and  C6_8
REMARK    5  A    between atoms: C6_8  and  O2_10
REMARK    6  A    between atoms: O2_10  and  C7_11
REMARK    7  A    between atoms: C7_11  and  C8_12
REMARK    8  A    between atoms: C12_20  and  N4_21
REMARK    9  A    between atoms: C12_20  and  C18_36
REMARK   10  A    between atoms: N4_21  and  C13_23
REMARK   11  A    between atoms: C16_30  and  N7_31
REMARK   12  A    between atoms: C18_36  and  O7_38
REMARK   13  A    between atoms: O7_38  and  C19_39
ROOT
HETATM    1  C12 UNL     1       1.543   1.637  -1.265  1.00  0.00     0.109 C
ENDROOT
BRANCH   1   2
HETATM    2  C5  UNL     1       1.940   0.222  -0.909  1.00  0.00     0.146 C
BRANCH   2   3
HETATM    3  C3  UNL     1       3.237  -0.256  -1.423  1.00  0.00     0.010 C
HETATM    4  C4  UNL     1       4.392  -0.348  -0.497  1.00  0.00     0.012 C
BRANCH   3   5
HETATM    5  C2  UNL     1       3.055  -1.693  -1.965  1.00  0.00     0.002 C
HETATM    6  C1  UNL     1       3.766  -2.688  -1.107  1.00  0.00     0.005 C
ENDBRANCH   3   5
ENDBRANCH   2   3
BRANCH   2   7
HETATM    7  N1  UNL     1       1.680  -0.017   0.476  1.00  0.00    -0.326 N
HETATM    8  C6  UNL     1       0.965  -1.083   1.061  1.00  0.00     0.361 C
HETATM    9  O1  UNL     1       0.433  -2.019   0.405  1.00  0.00    -0.238 OA
ATOM     10  H1  UNL     1       2.061   0.673   1.125  1.00  0.00     0.165 HD
BRANCH   8  11
HETATM   11  O2  UNL     1       0.825  -1.134   2.434  1.00  0.00    -0.299 OA
BRANCH  11  12
HETATM   12  C7  UNL     1      -0.434  -1.278   3.038  1.00  0.00     0.222 C
BRANCH  12  13
HETATM   13  C8  UNL     1      -0.541  -0.358   4.208  1.00  0.00    -0.003 A
HETATM   14  C9  UNL     1      -1.667   0.408   4.431  1.00  0.00     0.099 A
HETATM   15  N2  UNL     1      -1.719   1.224   5.496  1.00  0.00    -0.361 N
HETATM   16  C10 UNL     1      -0.661   1.288   6.345  1.00  0.00     0.180 A
ATOM     17  H2  UNL     1      -2.549   1.793   5.667  1.00  0.00     0.166 HD
HETATM   18  N3  UNL     1       0.433   0.550   6.137  1.00  0.00    -0.361 N
HETATM   19  C11 UNL     1       0.516  -0.281   5.076  1.00  0.00     0.099 A
ATOM     20  H3  UNL     1       1.216   0.614   6.788  1.00  0.00     0.166 HD
ENDBRANCH  12  13
ENDBRANCH  11  12
ENDBRANCH   8  11
ENDBRANCH   2   7
ENDBRANCH   1   2
BRANCH   1  21
HETATM   21  N4  UNL     1       2.460   2.363  -2.046  1.00  0.00    -0.347 N
ATOM     22  H4  UNL     1       2.422   2.259  -3.060  1.00  0.00     0.166 HD
BRANCH  21  23
HETATM   23  C13 UNL     1       3.429   3.228  -1.496  1.00  0.00     0.127 A
HETATM   24  C14 UNL     1       4.752   3.247  -1.894  1.00  0.00     0.148 A
HETATM   25  N5  UNL     1       5.225   2.310  -2.869  1.00  0.00    -0.080 NA
HETATM   26  N6  UNL     1       5.660   4.089  -1.388  1.00  0.00    -0.331 N
HETATM   27  C15 UNL     1       5.309   4.971  -0.450  1.00  0.00     0.142 A
ATOM     28  H6  UNL     1       6.624   4.057  -1.720  1.00  0.00     0.168 HD
HETATM   29 CL1  UNL     1       6.485   6.098   0.244  1.00  0.00    -0.062 Cl
HETATM   30  C16 UNL     1       4.012   5.030   0.014  1.00  0.00     0.193 A
HETATM   31  C17 UNL     1       3.080   4.159  -0.510  1.00  0.00     0.237 A
HETATM   32  O5  UNL     1       1.892   4.215  -0.082  1.00  0.00    -0.283 OA
BRANCH  30  33
HETATM   33  N7  UNL     1       3.637   5.980   1.021  1.00  0.00    -0.108 N
HETATM   34  O3  UNL     1       3.460   5.637   2.198  1.00  0.00    -0.532 OA
HETATM   35  O4  UNL     1       3.485   7.281   0.614  1.00  0.00    -0.532 OA
ENDBRANCH  30  33
ENDBRANCH  21  23
ENDBRANCH   1  21
BRANCH   1  36
HETATM   36  C18 UNL     1       0.109   1.774  -1.539  1.00  0.00     0.309 C
HETATM   37  O6  UNL     1      -0.351   2.738  -2.184  1.00  0.00    -0.258 OA
BRANCH  36  38
HETATM   38  O7  UNL     1      -0.839   0.851  -1.106  1.00  0.00    -0.302 OA
BRANCH  38  39
HETATM   39  C19 UNL     1      -1.795   1.228  -0.138  1.00  0.00     0.293 C
HETATM   40 CL2  UNL     1      -1.024   2.101   1.203  1.00  0.00    -0.101 Cl
ENDBRANCH  38  39
ENDBRANCH  36  38
ENDBRANCH   1  36
TORSDOF 13
ENDMDL