MODEL 4
REMARK VINA RESULT: -6.504043767      1.694      5.349
REMARK  17 active torsions:
REMARK  status: ('A' for Active; 'I' for Inactive)
REMARK    1  A    between atoms: O1_2  and  C2_3
REMARK    2  A    between atoms: C4_5  and  C5_6
REMARK    3  A    between atoms: C5_6  and  O3_8
REMARK    4  A    between atoms: O3_8  and  N1_9
REMARK    5  A    between atoms: N1_9  and  C6_11
REMARK    6  A    between atoms: C6_11  and  C12_25
REMARK    7  A    between atoms: C7_12  and  O4_13
REMARK    8  A    between atoms: O4_13  and  C8_14
REMARK    9  A    between atoms: C8_14  and  C9_16
REMARK   10  A    between atoms: C9_16  and  N2_17
REMARK   11  A    between atoms: C9_16  and  C10_21
REMARK   12  A    between atoms: C10_21  and  O6_23
REMARK   13  A    between atoms: C12_25  and  O8_27
REMARK   14  A    between atoms: O8_27  and  C13_28
REMARK   15  A    between atoms: C17_32  and  S1_33
REMARK   16  A    between atoms: S1_33  and  C18_34
REMARK   17  A    between atoms: C20_38  and  O9_39
ROOT
HETATM    1  C6  UNL     1       1.251  -0.458   0.290  1.00  0.00     0.152 C
HETATM    2  C7  UNL     1       1.335  -1.849  -0.087  1.00  0.00     0.183 C
ENDROOT
BRANCH   1   3
HETATM    3  N1  UNL     1       2.227   0.464  -0.015  1.00  0.00    -0.249 N
ATOM      4  H1  UNL     1       3.086   0.058  -0.384  1.00  0.00     0.195 HD
BRANCH   3   5
HETATM    5  O3  UNL     1       2.248   1.749   0.082  1.00  0.00    -0.194 OA
BRANCH   5   6
HETATM    6  C5  UNL     1       2.479   2.736  -0.906  1.00  0.00     0.316 C
HETATM    7  O2  UNL     1       1.713   2.695  -1.867  1.00  0.00    -0.257 OA
BRANCH   6   8
HETATM    8  C4  UNL     1       3.571   3.653  -0.656  1.00  0.00     0.062 A
HETATM    9  C3  UNL     1       4.863   3.362  -1.089  1.00  0.00     0.058 A
HETATM   10  C2  UNL     1       5.924   4.235  -0.925  1.00  0.00     0.104 A
HETATM   11  C20 UNL     1       5.663   5.452  -0.292  1.00  0.00     0.122 A
HETATM   12  C19 UNL     1       4.390   5.766   0.152  1.00  0.00     0.087 A
HETATM   13  C17 UNL     1       3.353   4.848  -0.040  1.00  0.00     0.043 A
HETATM   14 CL1  UNL     1       4.092   7.312   0.940  1.00  0.00    -0.080 Cl
BRANCH  10  15
HETATM   15  O1  UNL     1       7.195   4.012  -1.334  1.00  0.00    -0.353 OA
HETATM   16  C1  UNL     1       7.582   2.902  -2.088  1.00  0.00     0.210 C
ENDBRANCH  10  15
BRANCH  11  17
HETATM   17  O9  UNL     1       6.702   6.346  -0.125  1.00  0.00    -0.356 OA
ATOM     18  H9  UNL     1       6.915   6.636   0.754  1.00  0.00     0.218 HD
ENDBRANCH  11  17
BRANCH  13  19
HETATM   19  S1  UNL     1       1.738   5.248   0.582  1.00  0.00    -0.096 SA
BRANCH  19  20
HETATM   20  C18 UNL     1       1.740   4.892   2.381  1.00  0.00     0.301 C
HETATM   21  F1  UNL     1       2.890   4.121   2.631  1.00  0.00    -0.244 F
ENDBRANCH  19  20
ENDBRANCH  13  19
ENDBRANCH   6   8
ENDBRANCH   5   6
ENDBRANCH   3   5
ENDBRANCH   1   3
BRANCH   1  22
HETATM   22  C12 UNL     1      -0.148   0.116   0.203  1.00  0.00     0.314 C
HETATM   23  O7  UNL     1      -0.598   0.506  -0.858  1.00  0.00    -0.257 OA
BRANCH  22  24
HETATM   24  O8  UNL     1      -0.901   0.174   1.367  1.00  0.00    -0.306 OA
BRANCH  24  25
HETATM   25  C13 UNL     1      -0.986   1.293   2.220  1.00  0.00     0.060 C
HETATM   26  C14 UNL     1      -0.936   2.594   1.439  1.00  0.00     0.046 C
HETATM   27  C15 UNL     1      -2.377   1.240   2.933  1.00  0.00     0.046 C
HETATM   28  C16 UNL     1       0.078   1.212   3.267  1.00  0.00     0.046 C
ENDBRANCH  24  25
ENDBRANCH  22  24
ENDBRANCH   1  22
BRANCH   2  29
HETATM   29  O4  UNL     1       1.420  -2.194  -1.453  1.00  0.00    -0.287 OA
BRANCH  29  30
HETATM   30  C8  UNL     1       2.665  -2.657  -1.900  1.00  0.00     0.296 C
HETATM   31  O5  UNL     1       3.558  -1.739  -2.085  1.00  0.00    -0.262 OA
BRANCH  30  32
HETATM   32  C9  UNL     1       3.093  -4.019  -2.174  1.00  0.00     0.310 C
BRANCH  32  33
HETATM   33  N2  UNL     1       3.738  -4.227  -3.429  1.00  0.00    -0.063 N
ATOM     34  H23 UNL     1       3.121  -4.743  -4.055  1.00  0.00     0.275 HD
ATOM     35  H22 UNL     1       3.812  -3.342  -3.933  1.00  0.00     0.275 HD
ATOM     36  H21 UNL     1       4.651  -4.681  -3.390  1.00  0.00     0.275 HD
ENDBRANCH  32  33
BRANCH  32  37
HETATM   37  C10 UNL     1       3.776  -4.713  -1.022  1.00  0.00     0.154 C
HETATM   38  C11 UNL     1       4.852  -5.658  -1.445  1.00  0.00     0.042 C
BRANCH  37  39
HETATM   39  O6  UNL     1       4.339  -3.777  -0.127  1.00  0.00    -0.393 OA
ATOM     40  H6  UNL     1       4.490  -4.168   0.726  1.00  0.00     0.210 HD
ENDBRANCH  37  39
ENDBRANCH  32  37
ENDBRANCH  30  32
ENDBRANCH  29  30
ENDBRANCH   2  29
TORSDOF 17
ENDMDL