MODEL 4
REMARK VINA RESULT: -6.387282594      1.769      3.922
REMARK  16 active torsions:
REMARK  status: ('A' for Active; 'I' for Inactive)
REMARK    1  A    between atoms: O1_2  and  C2_3
REMARK    2  A    between atoms: C2_3  and  C3_5
REMARK    3  A    between atoms: C3_5  and  O3_6
REMARK    4  A    between atoms: C3_5  and  C4_8
REMARK    5  A    between atoms: C4_8  and  C5_9
REMARK    6  A    between atoms: C4_8  and  C17_30
REMARK    7  A    between atoms: C7_11  and  O4_12
REMARK    8  A    between atoms: C8_14  and  O5_15
REMARK    9  A    between atoms: O5_15  and  C9_16
REMARK   10  A    between atoms: C9_16  and  C10_17
REMARK   11  A    between atoms: C10_17  and  C13_21
REMARK   12  A    between atoms: C13_21  and  N2_22
REMARK   13  A    between atoms: C15_27  and  O6_28
REMARK   14  A    between atoms: C18_31  and  O7_32
REMARK   15  A    between atoms: C19_34  and  O8_35
REMARK   16  A    between atoms: C22_38  and  O9_39
ROOT
HETATM    1  C10 UNL     1       5.113   5.452  -0.134  1.00  0.00    -0.021 C
HETATM    2  C11 UNL     1       6.179   6.152   0.146  1.00  0.00     0.100 C
HETATM    3  C12 UNL     1       7.472   5.744  -0.302  1.00  0.00     0.088 C
HETATM    4  N1  UNL     1       8.534   5.393  -0.663  1.00  0.00    -0.192 NA
ENDROOT
BRANCH   1   5
HETATM    5  C9  UNL     1       5.229   4.213  -0.925  1.00  0.00     0.212 C
BRANCH   5   6
HETATM    6  O5  UNL     1       4.933   3.129  -0.051  1.00  0.00    -0.344 OA
BRANCH   6   7
HETATM    7  C8  UNL     1       4.095   2.104  -0.482  1.00  0.00     0.104 A
HETATM    8  C7  UNL     1       4.487   0.792  -0.324  1.00  0.00     0.100 A
HETATM    9  C6  UNL     1       3.631  -0.174  -0.763  1.00  0.00     0.054 A
HETATM   10  C5  UNL     1       2.380   0.094  -1.361  1.00  0.00     0.014 A
HETATM   11  C15 UNL     1       2.003   1.400  -1.510  1.00  0.00     0.082 A
HETATM   12  C14 UNL     1       2.871   2.392  -1.065  1.00  0.00     0.077 A
BRANCH   8  13
HETATM   13  O4  UNL     1       5.703   0.468   0.254  1.00  0.00    -0.358 OA
ATOM     14  H4  UNL     1       6.004   0.900   1.045  1.00  0.00     0.217 HD
ENDBRANCH   8  13
BRANCH  10  15
HETATM   15  C4  UNL     1       1.624  -1.035  -1.843  1.00  0.00     0.031 C
BRANCH  15  16
HETATM   16  C3  UNL     1       0.174  -1.016  -1.913  1.00  0.00     0.153 C
BRANCH  16  17
HETATM   17  C2  UNL     1      -0.762  -1.527  -2.867  1.00  0.00     0.317 C
HETATM   18  O2  UNL     1      -1.355  -0.782  -3.671  1.00  0.00    -0.257 OA
BRANCH  17  19
HETATM   19  O1  UNL     1      -1.084  -2.904  -2.968  1.00  0.00    -0.321 OA
HETATM   20  C1  UNL     1      -0.333  -3.710  -3.860  1.00  0.00     0.213 C
ENDBRANCH  17  19
ENDBRANCH  16  17
BRANCH  16  21
HETATM   21  O3  UNL     1      -0.453  -0.417  -0.928  1.00  0.00    -0.355 OA
ATOM     22  H3  UNL     1      -1.385  -0.595  -0.970  1.00  0.00     0.218 HD
ENDBRANCH  16  21
ENDBRANCH  15  16
BRANCH  15  23
HETATM   23  C17 UNL     1       2.107  -2.321  -1.282  1.00  0.00     0.038 A
HETATM   24  C18 UNL     1       2.859  -3.168  -2.103  1.00  0.00     0.112 A
HETATM   25  C19 UNL     1       3.341  -4.364  -1.642  1.00  0.00     0.104 A
HETATM   26  C21 UNL     1       3.096  -4.759  -0.365  1.00  0.00     0.077 A
HETATM   27  C22 UNL     1       2.369  -3.954   0.449  1.00  0.00     0.091 A
HETATM   28  C23 UNL     1       1.867  -2.724  -0.005  1.00  0.00     0.081 A
HETATM   29 CL1  UNL     1       0.969  -1.837   1.208  1.00  0.00    -0.080 Cl
BRANCH  24  30
HETATM   30  O7  UNL     1       3.087  -2.731  -3.392  1.00  0.00    -0.357 OA
ATOM     31  H7  UNL     1       2.318  -2.529  -3.912  1.00  0.00     0.217 HD
ENDBRANCH  24  30
BRANCH  25  32
HETATM   32  O8  UNL     1       4.077  -5.146  -2.514  1.00  0.00    -0.353 OA
HETATM   33  C20 UNL     1       4.746  -6.320  -2.089  1.00  0.00     0.210 C
ENDBRANCH  25  32
BRANCH  27  34
HETATM   34  O9  UNL     1       2.123  -4.359   1.746  1.00  0.00    -0.359 OA
ATOM     35  H9  UNL     1       1.937  -3.702   2.407  1.00  0.00     0.217 HD
ENDBRANCH  27  34
ENDBRANCH  15  23
ENDBRANCH  10  15
BRANCH  11  36
HETATM   36  O6  UNL     1       0.786   1.773  -2.089  1.00  0.00    -0.355 OA
HETATM   37  C16 UNL     1       0.502   3.048  -2.544  1.00  0.00     0.210 C
ENDBRANCH  11  36
ENDBRANCH   6   7
ENDBRANCH   5   6
ENDBRANCH   1   5
BRANCH   1  38
HETATM   38  C13 UNL     1       3.787   5.890   0.336  1.00  0.00     0.266 C
BRANCH  38  39
HETATM   39  N2  UNL     1       3.769   7.216   0.869  1.00  0.00    -0.076 N
ATOM     40  H23 UNL     1       2.840   7.627   0.776  1.00  0.00     0.274 HD
ATOM     41  H22 UNL     1       3.848   7.194   1.886  1.00  0.00     0.274 HD
ATOM     42  H21 UNL     1       4.475   7.835   0.469  1.00  0.00     0.274 HD
ENDBRANCH  38  39
ENDBRANCH   1  38
TORSDOF 16
ENDMDL