MODEL 3
REMARK VINA RESULT: -7.589793937      1.417      1.757
REMARK  4 active torsions:
REMARK  status: ('A' for Active; 'I' for Inactive)
REMARK    1  A    between atoms: C5_5  and  N1_6
REMARK    2  A    between atoms: N1_6  and  C6_8
REMARK    3  A    between atoms: C6_8  and  C7_12
REMARK    4  A    between atoms: C7_12  and  N3_13
ROOT
HETATM    1  C1  UNL     1     220.013  -6.699  16.569  1.00  0.00     0.011 C
HETATM    2  C2  UNL     1     219.696  -5.610  17.607  1.00  0.00    -0.009 C
HETATM    3  C3  UNL     1     218.359  -5.850  18.215  1.00  0.00    -0.004 C
HETATM    4  C4  UNL     1     217.441  -6.233  17.028  1.00  0.00     0.030 C
HETATM    5  C5  UNL     1     216.028  -6.338  17.541  1.00  0.00     0.083 C
HETATM    6  C8  UNL     1     215.955  -6.479  19.036  1.00  0.00     0.025 C
HETATM    7  C9  UNL     1     216.601  -5.346  19.778  1.00  0.00     0.007 C
HETATM    8  C10 UNL     1     217.744  -4.721  18.934  1.00  0.00    -0.001 C
HETATM    9  C11 UNL     1     218.526  -3.780  19.697  1.00  0.00     0.052 C
HETATM   10  C12 UNL     1     218.392  -2.370  19.069  1.00  0.00     0.131 C
HETATM   11  N4  UNL     1     219.437  -2.148  18.105  1.00  0.00    -0.360 N
ATOM     12  H4  UNL     1     219.353  -1.329  17.504  1.00  0.00     0.162 HD
HETATM   13  C13 UNL     1     220.578  -2.976  17.923  1.00  0.00     0.230 C
HETATM   14  O1  UNL     1     221.242  -2.868  16.853  1.00  0.00    -0.273 OA
HETATM   15  C14 UNL     1     220.945  -3.914  18.969  1.00  0.00     0.084 C
HETATM   16  C15 UNL     1     222.279  -3.605  19.547  1.00  0.00     0.026 C
HETATM   17  C16 UNL     1     222.443  -3.793  21.029  1.00  0.00     0.036 C
HETATM   18  C17 UNL     1     221.654  -4.823  21.668  1.00  0.00     0.161 A
HETATM   19  O2  UNL     1     220.410  -4.940  22.097  1.00  0.00    -0.366 OA
HETATM   20  C18 UNL     1     220.403  -5.104  20.803  1.00  0.00     0.125 A
HETATM   21  C19 UNL     1     220.719  -6.147  19.846  1.00  0.00     0.050 C
HETATM   22  C20 UNL     1     220.826  -5.384  18.526  1.00  0.00     0.014 C
HETATM   23  C21 UNL     1     219.930  -3.900  20.052  1.00  0.00     0.159 C
HETATM   24  F1  UNL     1     220.144  -2.706  20.777  1.00  0.00    -0.238 F
ENDROOT
BRANCH   5  25
HETATM   25  N1  UNL     1     215.439  -7.545  16.973  1.00  0.00    -0.374 N
ATOM     26  H1  UNL     1     215.773  -8.453  17.299  1.00  0.00     0.161 HD
BRANCH  25  27
HETATM   27  C6  UNL     1     214.419  -7.510  15.982  1.00  0.00     0.096 C
HETATM   28  N2  UNL     1     213.255  -7.019  16.155  1.00  0.00    -0.388 N
ATOM     29  H22 UNL     1     213.029  -6.622  17.067  1.00  0.00     0.157 HD
ATOM     30  H21 UNL     1     212.523  -6.994  15.445  1.00  0.00     0.157 HD
BRANCH  27  31
HETATM   31  C7  UNL     1     214.749  -8.093  14.646  1.00  0.00     0.304 C
BRANCH  31  32
HETATM   32  N3  UNL     1     214.019  -7.286  13.662  1.00  0.00    -0.073 N
ATOM     33  H33 UNL     1     213.895  -7.754  12.764  1.00  0.00     0.274 HD
ATOM     34  H32 UNL     1     213.029  -7.175  13.881  1.00  0.00     0.274 HD
ATOM     35  H31 UNL     1     214.524  -6.403  13.594  1.00  0.00     0.274 HD
ENDBRANCH  31  32
ENDBRANCH  27  31
ENDBRANCH  25  27
ENDBRANCH   5  25
TORSDOF 4
ENDMDL