MODEL 4
REMARK VINA RESULT: -6.482308064      4.231      5.870
REMARK  5 active torsions:
REMARK  status: ('A' for Active; 'I' for Inactive)
REMARK    1  A    between atoms: C4_6  and  N2_7
REMARK       I    between atoms: N2_7  and  C5_9
REMARK       I    between atoms: C5_9  and  N3_11
REMARK    2  A    between atoms: N3_11  and  C6_13
REMARK    3  A    between atoms: C6_13  and  N4_15
REMARK    4  A    between atoms: N4_15  and  N5_17
REMARK       I    between atoms: N5_17  and  C7_19
REMARK    5  A    between atoms: C7_19  and  C8_21
ROOT
HETATM    1  C6  UNL     1     214.921  -6.519  16.693  1.00  0.00     0.194 C
HETATM    2  S1  UNL     1     214.790  -7.736  15.610  1.00  0.00    -0.039 SA
ENDROOT
BRANCH   1   3
HETATM    3  N3  UNL     1     215.837  -5.439  16.495  1.00  0.00    -0.284 N
HETATM    4  C5  UNL     1     217.109  -5.444  17.099  1.00  0.00     0.324 C
HETATM    5  N2  UNL     1     217.969  -4.339  16.887  1.00  0.00    -0.308 N
HETATM    6  O2  UNL     1     217.461  -6.404  17.802  1.00  0.00    -0.247 OA
ATOM      7  H2  UNL     1     217.620  -3.580  16.302  1.00  0.00     0.166 HD
ATOM      8  H3  UNL     1     215.564  -4.652  15.908  1.00  0.00     0.173 HD
BRANCH   5   9
HETATM    9  C4  UNL     1     219.299  -4.198  17.432  1.00  0.00     0.359 C
HETATM   10  N1  UNL     1     219.958  -3.004  16.948  1.00  0.00     0.031 N
HETATM   11  C1  UNL     1     221.039  -3.225  16.009  1.00  0.00     0.359 C
HETATM   12  O1  UNL     1     219.101  -2.032  16.506  1.00  0.00    -0.063 OA
HETATM   13  C2  UNL     1     220.416  -2.772  18.310  1.00  0.00     0.318 C
HETATM   14  C3  UNL     1     219.321  -3.635  18.847  1.00  0.00     0.100 C
ENDBRANCH   5   9
ENDBRANCH   1   3
BRANCH   1  15
HETATM   15  N4  UNL     1     214.099  -6.556  17.854  1.00  0.00    -0.273 N
ATOM     16  H4  UNL     1     213.083  -6.575  17.773  1.00  0.00     0.189 HD
BRANCH  15  17
HETATM   17  N5  UNL     1     214.721  -6.565  19.113  1.00  0.00    -0.263 N
HETATM   18  C7  UNL     1     214.871  -7.761  19.849  1.00  0.00     0.277 C
HETATM   19  O3  UNL     1     214.442  -8.827  19.385  1.00  0.00    -0.265 OA
ATOM     20  H5  UNL     1     215.070  -5.690  19.504  1.00  0.00     0.190 HD
BRANCH  18  21
HETATM   21  C8  UNL     1     215.530  -7.739  21.141  1.00  0.00     0.075 A
HETATM   22  C9  UNL     1     215.290  -8.534  22.235  1.00  0.00     0.026 A
HETATM   23  C10 UNL     1     216.023  -8.322  23.328  1.00  0.00     0.028 A
HETATM   24  C11 UNL     1     216.963  -7.324  23.281  1.00  0.00     0.052 A
HETATM   25 BR1  UNL     1     218.166  -6.757  24.656  1.00  0.00    -0.043 Br
HETATM   26  S2  UNL     1     216.785  -6.717  21.697  1.00  0.00    -0.077 SA
ENDBRANCH  18  21
ENDBRANCH  15  17
ENDBRANCH   1  15
TORSDOF 5
ENDMDL