MODEL 5
REMARK VINA RESULT: -7.291920877      1.061      1.175
REMARK  2 active torsions:
REMARK  status: ('A' for Active; 'I' for Inactive)
REMARK    1  A    between atoms: C1_2  and  C2_4
REMARK    2  A    between atoms: C9_11  and  O3_12
ROOT
HETATM    1  C2  UNL     1     216.898  -5.338  18.521  1.00  0.00     0.185 C
HETATM    2  C3  UNL     1     216.068  -6.503  19.049  1.00  0.00     0.036 C
HETATM    3  C4  UNL     1     215.964  -6.548  20.586  1.00  0.00     0.002 C
HETATM    4  C5  UNL     1     217.375  -6.276  21.000  1.00  0.00     0.000 C
HETATM    5  C6  UNL     1     217.837  -6.321  22.379  1.00  0.00     0.000 C
HETATM    6  C7  UNL     1     219.060  -5.383  22.471  1.00  0.00     0.007 C
HETATM    7  C8  UNL     1     219.928  -5.364  21.266  1.00  0.00     0.021 C
HETATM    8  C9  UNL     1     221.250  -6.016  21.719  1.00  0.00     0.122 C
HETATM    9  C10 UNL     1     221.934  -5.259  22.802  1.00  0.00     0.032 C
HETATM   10  C11 UNL     1     221.985  -3.810  22.388  1.00  0.00     0.003 C
HETATM   11  C12 UNL     1     221.652  -3.654  20.901  1.00  0.00     0.008 C
HETATM   12  C13 UNL     1     220.171  -3.988  20.675  1.00  0.00     0.031 C
HETATM   13  C14 UNL     1     219.761  -3.782  19.272  1.00  0.00     0.135 C
HETATM   14  C15 UNL     1     220.593  -2.845  18.446  1.00  0.00     0.175 C
HETATM   15  S1  UNL     1     219.633  -1.438  18.805  1.00  0.00     0.111 S
HETATM   16  O4  UNL     1     220.043  -0.537  19.889  1.00  0.00    -0.234 OA
HETATM   17 CL1  UNL     1     218.882  -0.445  17.160  1.00  0.00    -0.003 Cl
HETATM   18  N1  UNL     1     218.685  -2.781  19.204  1.00  0.00    -0.319 N
ATOM     19  H1  UNL     1     217.680  -2.870  19.351  1.00  0.00     0.171 HD
HETATM   20  C16 UNL     1     219.471  -4.998  18.468  1.00  0.00     0.248 C
HETATM   21  O5  UNL     1     220.524  -5.456  17.908  1.00  0.00    -0.271 OA
HETATM   22  N2  UNL     1     218.268  -5.658  18.262  1.00  0.00    -0.344 N
ATOM     23  H2  UNL     1     218.386  -6.574  17.831  1.00  0.00     0.163 HD
ENDROOT
BRANCH   8  24
HETATM   24  O3  UNL     1     220.851  -7.255  22.272  1.00  0.00    -0.395 OA
ATOM     25  H3  UNL     1     221.641  -7.594  22.674  1.00  0.00     0.210 HD
ENDBRANCH   8  24
BRANCH   1  26
HETATM   26  C1  UNL     1     216.294  -5.057  17.190  1.00  0.00     0.196 C
HETATM   27  O1  UNL     1     215.628  -5.915  16.596  1.00  0.00    -0.646 OA
HETATM   28  O2  UNL     1     216.479  -3.820  16.612  1.00  0.00    -0.646 OA
ENDBRANCH   1  26
TORSDOF 2
ENDMDL