MODEL 2
REMARK VINA RESULT: -6.137481705      1.221      1.556
REMARK  6 active torsions:
REMARK  status: ('A' for Active; 'I' for Inactive)
REMARK    1  A    between atoms: C2_2  and  C5_5
REMARK    2  A    between atoms: C5_5  and  N1_6
REMARK    3  A    between atoms: C5_5  and  C13_24
REMARK       I    between atoms: C6_8  and  N3_10
REMARK    4  A    between atoms: N3_10  and  C7_12
REMARK    5  A    between atoms: C7_12  and  N4_14
REMARK    6  A    between atoms: N4_14  and  C8_16
ROOT
HETATM    1  N1  UNL     1     216.701  -6.511  19.507  1.00  0.00    -0.349 N
ATOM      2  H1  UNL     1     216.761  -7.528  19.473  1.00  0.00     0.163 HD
HETATM    3  C6  UNL     1     217.358  -5.953  20.432  1.00  0.00     0.191 C
HETATM    4  N2  UNL     1     217.417  -4.553  20.665  1.00  0.00    -0.063 NA
HETATM    5  N3  UNL     1     218.105  -6.779  21.320  1.00  0.00    -0.307 N
ATOM      6  H3  UNL     1     218.737  -7.485  20.941  1.00  0.00     0.171 HD
ENDROOT
BRANCH   5   7
HETATM    7  C7  UNL     1     217.979  -6.631  22.740  1.00  0.00     0.178 C
HETATM    8  S1  UNL     1     216.856  -7.520  23.522  1.00  0.00    -0.040 SA
BRANCH   7   9
HETATM    9  N4  UNL     1     218.833  -5.723  23.406  1.00  0.00    -0.332 N
ATOM     10  H4  UNL     1     218.560  -4.741  23.442  1.00  0.00     0.168 HD
BRANCH   9  11
HETATM   11  C8  UNL     1     219.939  -6.069  23.971  1.00  0.00     0.054 A
HETATM   12  C9  UNL     1     219.949  -6.579  25.249  1.00  0.00     0.048 A
HETATM   13  C10 UNL     1     221.142  -6.952  25.857  1.00  0.00     0.090 A
HETATM   14  N5  UNL     1     222.297  -6.822  25.209  1.00  0.00    -0.374 N
HETATM   15  C11 UNL     1     222.314  -6.325  23.957  1.00  0.00     0.109 A
ATOM     16  H5  UNL     1     223.169  -7.098  25.660  1.00  0.00     0.164 HD
HETATM   17  C12 UNL     1     221.137  -5.937  23.308  1.00  0.00     0.053 A
HETATM   18 BR1  UNL     1     221.194  -5.243  21.550  1.00  0.00    -0.047 Br
ENDBRANCH   9  11
ENDBRANCH   7   9
ENDBRANCH   5   7
BRANCH   1  19
HETATM   19  C5  UNL     1     215.892  -5.907  18.512  1.00  0.00     0.192 C
BRANCH  19  20
HETATM   20  C2  UNL     1     214.776  -6.858  18.118  1.00  0.00    -0.021 C
HETATM   21  C1  UNL     1     213.524  -6.096  17.741  1.00  0.00     0.017 C
HETATM   22  C3  UNL     1     214.433  -7.716  19.315  1.00  0.00     0.017 C
HETATM   23  C4  UNL     1     215.135  -7.753  16.983  1.00  0.00     0.017 C
ENDBRANCH  19  20
BRANCH  19  24
HETATM   24  C13 UNL     1     216.624  -5.390  17.350  1.00  0.00     0.197 C
HETATM   25  O1  UNL     1     216.212  -4.405  16.659  1.00  0.00    -0.646 OA
HETATM   26  O2  UNL     1     217.825  -5.945  16.926  1.00  0.00    -0.646 OA
ENDBRANCH  19  24
ENDBRANCH   1  19
TORSDOF 6
ENDMDL