MODEL 5
REMARK VINA RESULT: -6.076754405      2.970      5.894
REMARK  3 active torsions:
REMARK  status: ('A' for Active; 'I' for Inactive)
REMARK    1  A    between atoms: C2_2  and  N1_3
REMARK       I    between atoms: N1_3  and  C3_5
REMARK    2  A    between atoms: C3_5  and  C4_7
REMARK    3  A    between atoms: C6_9  and  N2_10
REMARK       I    between atoms: N2_10  and  C7_12
REMARK       I    between atoms: C7_12  and  N3_14
REMARK       I    between atoms: N5_26  and  C16_28
ROOT
HETATM    1  C4  UNL     1     219.322  -3.383  19.963  1.00  0.00     0.131 C
HETATM    2  C5  UNL     1     220.579  -2.641  20.069  1.00  0.00     0.058 C
HETATM    3  C6  UNL     1     221.884  -3.324  19.917  1.00  0.00     0.081 A
HETATM    4  C9  UNL     1     222.390  -3.491  18.571  1.00  0.00    -0.027 A
HETATM    5  C10 UNL     1     222.032  -4.296  17.572  1.00  0.00     0.037 C
HETATM    6  C11 UNL     1     220.942  -5.312  17.558  1.00  0.00     0.044 A
HETATM    7  N4  UNL     1     220.969  -6.265  16.612  1.00  0.00    -0.365 N
ATOM      8  H4  UNL     1     221.671  -6.376  15.880  1.00  0.00     0.165 HD
HETATM    9  C12 UNL     1     219.890  -7.044  16.817  1.00  0.00     0.089 A
HETATM   10  C13 UNL     1     219.159  -6.607  17.891  1.00  0.00     0.032 A
HETATM   11  C14 UNL     1     219.830  -5.503  18.362  1.00  0.00     0.015 A
HETATM   12  C15 UNL     1     219.317  -4.773  19.518  1.00  0.00     0.037 C
HETATM   13  N5  UNL     1     218.713  -5.650  20.282  1.00  0.00    -0.329 N
ATOM     14  H5  UNL     1     218.712  -6.621  19.969  1.00  0.00     0.168 HD
HETATM   15  C16 UNL     1     218.070  -5.366  21.490  1.00  0.00     0.217 C
HETATM   16  C17 UNL     1     218.864  -5.431  22.764  1.00  0.00     0.117 C
HETATM   17  O3  UNL     1     216.860  -5.052  21.624  1.00  0.00    -0.274 OA
HETATM   18  C18 UNL     1     223.053  -2.459  19.413  1.00  0.00     0.146 A
HETATM   19 CL1  UNL     1     222.677  -0.755  19.040  1.00  0.00    -0.117 Cl
ENDROOT
BRANCH   3  20
HETATM   20  N2  UNL     1     222.267  -4.225  20.976  1.00  0.00    -0.328 N
HETATM   21  C7  UNL     1     222.326  -3.755  22.303  1.00  0.00     0.316 C
HETATM   22  O2  UNL     1     222.072  -2.571  22.578  1.00  0.00    -0.247 OA
HETATM   23  N3  UNL     1     222.682  -4.630  23.379  1.00  0.00    -0.347 N
HETATM   24  C8  UNL     1     222.750  -4.171  24.748  1.00  0.00     0.151 C
ATOM     25  H3  UNL     1     222.895  -5.606  23.173  1.00  0.00     0.163 HD
ATOM     26  H2  UNL     1     222.494  -5.197  20.766  1.00  0.00     0.165 HD
ENDBRANCH   3  20
BRANCH   1  27
HETATM   27  C3  UNL     1     218.343  -2.535  19.211  1.00  0.00     0.227 C
HETATM   28  N1  UNL     1     218.549  -1.198  18.884  1.00  0.00    -0.361 N
ATOM     29  H1  UNL     1     219.419  -0.746  19.165  1.00  0.00     0.162 HD
HETATM   30  O1  UNL     1     217.266  -3.073  18.855  1.00  0.00    -0.273 OA
BRANCH  28  31
HETATM   31  C2  UNL     1     217.568  -0.437  18.159  1.00  0.00     0.118 C
HETATM   32  C1  UNL     1     218.158   0.090  16.861  1.00  0.00     0.026 C
ENDBRANCH  28  31
ENDBRANCH   1  27
TORSDOF 3
ENDMDL