MODEL 3
REMARK VINA RESULT: -7.211241722      1.737      2.807
REMARK  3 active torsions:
REMARK  status: ('A' for Active; 'I' for Inactive)
REMARK    1  A    between atoms: C5_5  and  N1_6
REMARK    2  A    between atoms: N1_6  and  C6_8
REMARK    3  A    between atoms: C10_15  and  N4_16
ROOT
HETATM    1  C6  UNL     1     221.729  -4.751  20.285  1.00  0.00     0.121 A
HETATM    2  N2  UNL     1     221.698  -4.790  21.628  1.00  0.00    -0.350 N
ATOM      3  H2  UNL     1     220.987  -5.366  22.078  1.00  0.00     0.166 HD
HETATM    4  C7  UNL     1     222.552  -4.111  22.410  1.00  0.00     0.114 A
HETATM    5  C8  UNL     1     223.542  -3.308  21.889  1.00  0.00     0.088 A
HETATM    6  C9  UNL     1     224.452  -2.580  22.727  1.00  0.00     0.103 C
HETATM    7  N3  UNL     1     225.203  -2.002  23.396  1.00  0.00    -0.191 NA
HETATM    8  C10 UNL     1     223.602  -3.246  20.489  1.00  0.00     0.077 A
HETATM    9  C12 UNL     1     222.723  -3.946  19.712  1.00  0.00     0.083 A
HETATM   10 BR1  UNL     1     222.815  -3.841  17.811  1.00  0.00    -0.045 Br
ENDROOT
BRANCH   8  11
HETATM   11  N4  UNL     1     224.586  -2.417  19.904  1.00  0.00    -0.331 N
HETATM   12  C11 UNL     1     225.741  -2.771  19.486  1.00  0.00     0.201 C
HETATM   13  N5  UNL     1     226.581  -1.788  18.932  1.00  0.00    -0.066 NA
HETATM   14  N6  UNL     1     226.247  -4.106  19.552  1.00  0.00    -0.066 NA
ATOM     15  H4  UNL     1     224.350  -1.429  19.807  1.00  0.00     0.168 HD
ENDBRANCH   8  11
BRANCH   1  16
HETATM   16  N1  UNL     1     220.908  -5.390  19.548  1.00  0.00    -0.370 N
ATOM     17  H1  UNL     1     221.329  -6.165  19.037  1.00  0.00     0.161 HD
BRANCH  16  18
HETATM   18  C5  UNL     1     219.542  -5.232  19.306  1.00  0.00     0.088 C
HETATM   19  C4  UNL     1     218.715  -6.118  20.275  1.00  0.00     0.055 C
HETATM   20  C2  UNL     1     217.286  -5.674  20.223  1.00  0.00     0.021 C
HETATM   21  C1  UNL     1     217.150  -4.679  21.392  1.00  0.00     0.037 C
HETATM   22  C3  UNL     1     216.351  -6.818  20.552  1.00  0.00     0.037 C
HETATM   23  N7  UNL     1     216.880  -5.019  19.057  1.00  0.00    -0.405 N
HETATM   24  C14 UNL     1     217.611  -5.145  17.858  1.00  0.00     0.021 C
ATOM     25  H7  UNL     1     216.041  -4.439  19.073  1.00  0.00     0.154 HD
HETATM   26  C13 UNL     1     219.019  -5.658  17.958  1.00  0.00     0.055 C
HETATM   27  C15 UNL     1     216.807  -6.030  16.902  1.00  0.00     0.037 C
HETATM   28  C16 UNL     1     217.676  -3.775  17.206  1.00  0.00     0.037 C
ENDBRANCH  16  18
ENDBRANCH   1  16
TORSDOF 3
ENDMDL