MODEL 3
REMARK VINA RESULT: -7.134603178      1.510      1.572
REMARK  7 active torsions:
REMARK  status: ('A' for Active; 'I' for Inactive)
REMARK       I    between atoms: C2_2  and  N1_4
REMARK    1  A    between atoms: N1_4  and  N2_6
REMARK    2  A    between atoms: N2_6  and  C3_8
REMARK    3  A    between atoms: C3_8  and  O2_9
REMARK    4  A    between atoms: C3_8  and  N3_11
REMARK    5  A    between atoms: C4_13  and  O3_14
REMARK    6  A    between atoms: C4_13  and  C5_16
REMARK    7  A    between atoms: N5_25  and  C11_27
ROOT
HETATM    1  C5  UNL     1     217.454  -5.460  18.973  1.00  0.00     0.060 A
HETATM    2  C6  UNL     1     218.210  -5.382  20.152  1.00  0.00     0.040 A
HETATM    3  C7  UNL     1     217.802  -6.120  21.235  1.00  0.00     0.034 A
HETATM    4 BR1  UNL     1     218.771  -6.078  22.896  1.00  0.00    -0.049 Br
HETATM    5  C8  UNL     1     216.676  -6.903  21.122  1.00  0.00     0.024 A
HETATM    6  C9  UNL     1     216.236  -7.707  22.300  1.00  0.00     0.069 C
HETATM    7  N4  UNL     1     215.962  -6.962  19.976  1.00  0.00    -0.344 N
ATOM      8  H4  UNL     1     215.133  -7.555  19.935  1.00  0.00     0.167 HD
HETATM    9  C10 UNL     1     216.320  -6.261  18.892  1.00  0.00     0.116 A
HETATM   10  N5  UNL     1     215.667  -6.278  17.812  1.00  0.00    -0.367 N
ATOM     11  H5  UNL     1     216.040  -5.685  17.071  1.00  0.00     0.162 HD
ENDROOT
BRANCH   1  12
HETATM   12  C4  UNL     1     217.976  -4.661  17.875  1.00  0.00     0.157 C
HETATM   13  N3  UNL     1     218.985  -4.849  16.984  1.00  0.00    -0.301 N
ATOM     14  H3  UNL     1     219.008  -4.151  16.240  1.00  0.00     0.171 HD
BRANCH  13  15
HETATM   15  C3  UNL     1     219.987  -5.796  16.886  1.00  0.00     0.238 C
BRANCH  15  16
HETATM   16  N2  UNL     1     220.998  -6.108  17.798  1.00  0.00    -0.263 N
ATOM     17  H2  UNL     1     221.188  -7.077  18.055  1.00  0.00     0.190 HD
BRANCH  16  18
HETATM   18  N1  UNL     1     221.756  -5.045  18.360  1.00  0.00    -0.267 N
HETATM   19  C2  UNL     1     222.060  -5.031  19.738  1.00  0.00     0.232 C
HETATM   20  C1  UNL     1     222.857  -3.902  20.298  1.00  0.00     0.119 C
HETATM   21  O1  UNL     1     221.668  -5.949  20.489  1.00  0.00    -0.272 OA
ATOM     22  H1  UNL     1     222.084  -4.286  17.763  1.00  0.00     0.190 HD
ENDBRANCH  16  18
ENDBRANCH  15  16
BRANCH  15  23
HETATM   23  O2  UNL     1     220.022  -6.512  15.798  1.00  0.00    -0.331 OA
ATOM     24  H2  UNL     1     219.942  -7.446  15.951  1.00  0.00     0.221 HD
ENDBRANCH  15  23
ENDBRANCH  13  15
BRANCH  12  25
HETATM   25  O3  UNL     1     217.300  -3.531  17.756  1.00  0.00    -0.345 OA
ATOM     26  H3  UNL     1     216.710  -3.321  18.471  1.00  0.00     0.219 HD
ENDBRANCH  12  25
ENDBRANCH   1  12
BRANCH  10  27
HETATM   27  C11 UNL     1     214.487  -7.000  17.471  1.00  0.00     0.021 C
HETATM   28  C12 UNL     1     214.376  -8.355  18.090  1.00  0.00     0.037 C
HETATM   29  C13 UNL     1     214.527  -7.189  15.946  1.00  0.00     0.037 C
HETATM   30  C14 UNL     1     213.217  -6.245  17.777  1.00  0.00     0.037 C
ENDBRANCH  10  27
TORSDOF 7
ENDMDL