MODEL 3
REMARK VINA RESULT: -7.467849045      1.727      2.243
REMARK  6 active torsions:
REMARK  status: ('A' for Active; 'I' for Inactive)
REMARK    1  A    between atoms: C2_2  and  C3_3
REMARK    2  A    between atoms: C2_2  and  C4_5
REMARK       I    between atoms: C4_5  and  N1_7
REMARK    3  A    between atoms: N1_7  and  N2_9
REMARK       I    between atoms: N2_9  and  C5_11
REMARK       I    between atoms: C5_11  and  N3_13
REMARK    4  A    between atoms: N3_13  and  N4_15
REMARK    5  A    between atoms: N4_15  and  C6_17
REMARK    6  A    between atoms: C6_17  and  C7_19
ROOT
HETATM    1  N2  UNL     1     222.439  -4.596  17.048  1.00  0.00    -0.247 N
ATOM      2  H2  UNL     1     222.600  -4.290  16.089  1.00  0.00     0.192 HD
HETATM    3  C5  UNL     1     221.135  -5.052  17.384  1.00  0.00     0.353 C
HETATM    4  O3  UNL     1     220.904  -5.441  18.560  1.00  0.00    -0.244 OA
HETATM    5  N3  UNL     1     220.146  -5.046  16.365  1.00  0.00    -0.249 N
ATOM      6  H3  UNL     1     220.377  -4.720  15.426  1.00  0.00     0.192 HD
ENDROOT
BRANCH   5   7
HETATM    7  N4  UNL     1     218.864  -5.485  16.657  1.00  0.00    -0.286 N
ATOM      8  H4  UNL     1     218.555  -6.363  16.239  1.00  0.00     0.188 HD
BRANCH   7   9
HETATM    9  C6  UNL     1     217.957  -4.798  17.495  1.00  0.00     0.126 C
HETATM   10  S1  UNL     1     217.791  -3.201  17.209  1.00  0.00    -0.058 SA
BRANCH   9  11
HETATM   11  C7  UNL     1     217.256  -5.541  18.521  1.00  0.00     0.011 A
HETATM   12  C8  UNL     1     217.632  -5.494  19.870  1.00  0.00     0.016 A
HETATM   13  C9  UNL     1     216.947  -6.202  20.835  1.00  0.00     0.009 A
HETATM   14  C10 UNL     1     215.859  -6.988  20.503  1.00  0.00    -0.044 A
HETATM   15  C11 UNL     1     215.152  -7.737  21.599  1.00  0.00     0.049 C
HETATM   16  C12 UNL     1     215.486  -7.039  19.183  1.00  0.00     0.023 A
HETATM   17 BR1  UNL     1     213.978  -8.130  18.724  1.00  0.00    -0.050 Br
HETATM   18  C13 UNL     1     216.179  -6.321  18.207  1.00  0.00    -0.031 A
HETATM   19  C14 UNL     1     215.714  -6.437  16.832  1.00  0.00     0.050 C
ENDBRANCH   9  11
ENDBRANCH   7   9
ENDBRANCH   5   7
BRANCH   1  20
HETATM   20  N1  UNL     1     223.510  -4.536  17.931  1.00  0.00    -0.262 N
HETATM   21  C4  UNL     1     224.225  -3.334  18.085  1.00  0.00     0.268 C
HETATM   22  O2  UNL     1     223.833  -2.332  17.380  1.00  0.00    -0.266 OA
ATOM     23  H1  UNL     1     223.777  -5.362  18.466  1.00  0.00     0.190 HD
BRANCH  21  24
HETATM   24  C2  UNL     1     225.352  -3.150  18.964  1.00  0.00     0.045 C
HETATM   25  C1  UNL     1     226.735  -2.837  18.483  1.00  0.00     0.057 C
BRANCH  24  26
HETATM   26  C3  UNL     1     225.197  -3.243  20.270  1.00  0.00     0.271 C
HETATM   27  O1  UNL     1     225.200  -3.660  21.460  1.00  0.00    -0.302 OA
ENDBRANCH  24  26
ENDBRANCH  21  24
ENDBRANCH   1  20
TORSDOF 6
ENDMDL