MODEL 4
REMARK VINA RESULT: -6.527563541      1.563      2.608
REMARK  7 active torsions:
REMARK  status: ('A' for Active; 'I' for Inactive)
REMARK       I    between atoms: C2_2  and  N1_4
REMARK    1  A    between atoms: N1_4  and  N2_6
REMARK       I    between atoms: N2_6  and  C3_8
REMARK    2  A    between atoms: C3_8  and  C4_10
REMARK    3  A    between atoms: C4_10  and  N3_11
REMARK       I    between atoms: N3_11  and  C5_13
REMARK    4  A    between atoms: C5_13  and  C6_15
REMARK    5  A    between atoms: N4_16  and  C7_17
REMARK    6  A    between atoms: C7_17  and  N5_19
REMARK    7  A    between atoms: N5_19  and  C8_21
ROOT
HETATM    1  C6  UNL     1     217.833   6.462  19.521  1.00  0.00     0.186 C
HETATM    2  N4  UNL     1     217.700   6.091  18.121  1.00  0.00    -0.344 N
HETATM    3  C12 UNL     1     218.505   4.900  17.986  1.00  0.00     0.127 C
HETATM    4  C13 UNL     1     219.709   5.151  18.847  1.00  0.00     0.031 C
HETATM    5  C14 UNL     1     219.228   6.088  19.904  1.00  0.00    -0.017 C
HETATM    6  C15 UNL     1     220.154   7.317  19.903  1.00  0.00     0.017 C
HETATM    7  C16 UNL     1     219.370   5.478  21.266  1.00  0.00     0.017 C
ENDROOT
BRANCH   1   8
HETATM    8  C5  UNL     1     216.776   5.855  20.356  1.00  0.00     0.241 C
HETATM    9  N3  UNL     1     216.202   4.587  20.096  1.00  0.00    -0.350 N
ATOM     10  H3  UNL     1     216.554   4.069  19.291  1.00  0.00     0.163 HD
HETATM   11  O3  UNL     1     216.367   6.503  21.349  1.00  0.00    -0.271 OA
BRANCH   9  12
HETATM   12  C4  UNL     1     215.174   3.979  20.869  1.00  0.00     0.227 C
BRANCH  12  13
HETATM   13  C3  UNL     1     215.584   3.259  22.076  1.00  0.00     0.253 C
HETATM   14  N2  UNL     1     216.387   3.826  23.082  1.00  0.00    -0.266 N
ATOM     15  H2  UNL     1     216.716   4.789  23.007  1.00  0.00     0.190 HD
HETATM   16  O2  UNL     1     215.195   2.068  22.223  1.00  0.00    -0.270 OA
BRANCH  14  17
HETATM   17  N1  UNL     1     216.727   3.037  24.190  1.00  0.00    -0.268 N
HETATM   18  C2  UNL     1     217.500   3.571  25.226  1.00  0.00     0.232 C
HETATM   19  C1  UNL     1     217.852   2.731  26.392  1.00  0.00     0.119 C
HETATM   20  O1  UNL     1     217.890   4.755  25.168  1.00  0.00    -0.272 OA
ATOM     21  H1  UNL     1     216.409   2.069  24.240  1.00  0.00     0.190 HD
ENDBRANCH  14  17
ENDBRANCH  12  13
ENDBRANCH   9  12
ENDBRANCH   1   8
BRANCH   2  22
HETATM   22  C7  UNL     1     216.963   6.722  17.091  1.00  0.00     0.171 C
HETATM   23  S1  UNL     1     215.355   6.380  16.916  1.00  0.00    -0.041 SA
BRANCH  22  24
HETATM   24  N5  UNL     1     217.593   7.627  16.220  1.00  0.00    -0.359 N
ATOM     25  H5  UNL     1     217.807   7.316  15.272  1.00  0.00     0.162 HD
BRANCH  24  26
HETATM   26  C8  UNL     1     217.955   8.981  16.595  1.00  0.00     0.021 C
HETATM   27  C9  UNL     1     217.716   9.943  15.430  1.00  0.00     0.037 C
HETATM   28  C10 UNL     1     217.163   9.496  17.771  1.00  0.00     0.037 C
HETATM   29  C11 UNL     1     219.447   9.110  16.896  1.00  0.00     0.037 C
ENDBRANCH  24  26
ENDBRANCH  22  24
ENDBRANCH   2  22
TORSDOF 7
ENDMDL