MODEL 4
REMARK VINA RESULT: -7.749140746      4.068      6.408
REMARK  4 active torsions:
REMARK  status: ('A' for Active; 'I' for Inactive)
REMARK    1  A    between atoms: N1_2  and  C2_5
REMARK    2  A    between atoms: C2_5  and  C4_8
REMARK    3  A    between atoms: C16_21  and  O2_22
REMARK    4  A    between atoms: C17_24  and  O3_25
ROOT
HETATM    1  C4  UNL     1     221.728   7.677  19.510  1.00  0.00     0.136 C
HETATM    2  C5  UNL     1     220.258   7.426  19.135  1.00  0.00     0.041 C
HETATM    3  C6  UNL     1     219.628   6.336  19.830  1.00  0.00    -0.002 C
HETATM    4  C7  UNL     1     218.941   6.713  21.156  1.00  0.00     0.178 C
HETATM    5  O1  UNL     1     218.826   5.378  21.612  1.00  0.00    -0.385 OA
HETATM    6  C8  UNL     1     218.158   4.743  20.530  1.00  0.00     0.127 C
HETATM    7  C9  UNL     1     216.746   4.803  20.904  1.00  0.00     0.033 C
HETATM    8  C10 UNL     1     215.750   4.862  19.787  1.00  0.00     0.008 C
HETATM    9  C11 UNL     1     216.150   6.063  19.012  1.00  0.00     0.004 C
HETATM   10  C12 UNL     1     215.375   6.173  17.689  1.00  0.00     0.022 C
HETATM   11  C13 UNL     1     215.773   4.910  17.021  1.00  0.00     0.009 C
HETATM   12  C14 UNL     1     217.162   4.651  17.486  1.00  0.00     0.013 C
HETATM   13  C15 UNL     1     217.542   5.852  18.395  1.00  0.00    -0.001 C
HETATM   14  C16 UNL     1     217.615   6.987  17.463  1.00  0.00     0.156 C
HETATM   15  C17 UNL     1     216.155   7.313  17.087  1.00  0.00     0.152 C
HETATM   16  C18 UNL     1     218.606   5.459  19.260  1.00  0.00     0.037 C
HETATM   17  C19 UNL     1     220.777   5.418  20.330  1.00  0.00     0.115 C
HETATM   18  C20 UNL     1     221.531   6.172  21.380  1.00  0.00     0.218 C
HETATM   19  O4  UNL     1     221.755   5.771  22.527  1.00  0.00    -0.274 OA
HETATM   20  N2  UNL     1     221.989   7.461  20.905  1.00  0.00    -0.353 N
ATOM     21  H2  UNL     1     222.450   8.148  21.503  1.00  0.00     0.163 HD
ENDROOT
BRANCH   1  22
HETATM   22  C2  UNL     1     222.199   8.997  18.995  1.00  0.00     0.216 C
HETATM   23  C3  UNL     1     221.976  10.157  19.902  1.00  0.00     0.067 C
HETATM   24 CL1  UNL     1     221.393   9.389  17.435  1.00  0.00    -0.086 Cl
BRANCH  22  25
HETATM   25  N1  UNL     1     223.618   8.819  18.653  1.00  0.00    -0.055 N
HETATM   26  C1  UNL     1     223.783   7.930  17.520  1.00  0.00     0.269 C
ATOM     27  H12 UNL     1     224.159   8.502  19.457  1.00  0.00     0.279 HD
ATOM     28  H11 UNL     1     224.079   9.715  18.495  1.00  0.00     0.279 HD
ENDBRANCH  22  25
ENDBRANCH   1  22
BRANCH  14  29
HETATM   29  O2  UNL     1     218.211   6.651  16.225  1.00  0.00    -0.392 OA
ATOM     30  H2  UNL     1     219.160   6.678  16.250  1.00  0.00     0.210 HD
ENDBRANCH  14  29
BRANCH  15  31
HETATM   31  O3  UNL     1     215.951   7.443  15.745  1.00  0.00    -0.393 OA
ATOM     32  H3  UNL     1     216.279   8.265  15.399  1.00  0.00     0.210 HD
ENDBRANCH  15  31
TORSDOF 4
ENDMDL