MODEL 4
REMARK VINA RESULT: -5.514851300      4.593      6.046
REMARK  9 active torsions:
REMARK  status: ('A' for Active; 'I' for Inactive)
REMARK    1  A    between atoms: C2_2  and  C3_3
REMARK    2  A    between atoms: C3_3  and  O1_4
REMARK    3  A    between atoms: O1_4  and  C4_5
REMARK       I    between atoms: C4_5  and  N1_7
REMARK    4  A    between atoms: N1_7  and  C5_9
REMARK    5  A    between atoms: C5_9  and  N2_11
REMARK    6  A    between atoms: N2_11  and  N3_13
REMARK    7  A    between atoms: N3_13  and  C6_15
REMARK    8  A    between atoms: C6_15  and  N4_17
REMARK    9  A    between atoms: N4_17  and  C7_19
ROOT
HETATM    1  N3  UNL     1     220.368   6.968  16.138  1.00  0.00    -0.274 N
ATOM      2  H3  UNL     1     220.649   7.288  15.211  1.00  0.00     0.189 HD
ENDROOT
BRANCH   1   3
HETATM    3  N2  UNL     1     221.239   6.219  16.907  1.00  0.00    -0.274 N
ATOM      4  H2  UNL     1     221.108   5.211  16.992  1.00  0.00     0.189 HD
BRANCH   3   5
HETATM    5  C5  UNL     1     222.315   6.853  17.577  1.00  0.00     0.195 C
HETATM    6  S1  UNL     1     223.115   8.064  16.791  1.00  0.00    -0.039 SA
BRANCH   5   7
HETATM    7  N1  UNL     1     222.726   6.495  18.881  1.00  0.00    -0.278 N
HETATM    8  C4  UNL     1     221.824   6.532  19.965  1.00  0.00     0.367 C
HETATM    9  O2  UNL     1     220.619   6.876  19.859  1.00  0.00    -0.238 OA
ATOM     10  H1  UNL     1     223.691   6.204  19.041  1.00  0.00     0.173 HD
BRANCH   8  11
HETATM   11  O1  UNL     1     222.223   6.178  21.267  1.00  0.00    -0.300 OA
BRANCH  11  12
HETATM   12  C3  UNL     1     221.271   6.063  22.304  1.00  0.00     0.207 C
BRANCH  12  13
HETATM   13  C2  UNL     1     220.819   4.696  22.538  1.00  0.00    -0.011 C
HETATM   14  C1  UNL     1     219.589   4.460  22.940  1.00  0.00     0.009 C
ENDBRANCH  12  13
ENDBRANCH  11  12
ENDBRANCH   8  11
ENDBRANCH   5   7
ENDBRANCH   3   5
ENDBRANCH   1   3
BRANCH   1  15
HETATM   15  C6  UNL     1     219.089   7.288  16.639  1.00  0.00     0.192 C
HETATM   16  S2  UNL     1     218.851   8.741  17.332  1.00  0.00    -0.039 SA
BRANCH  15  17
HETATM   17  N4  UNL     1     218.045   6.344  16.528  1.00  0.00    -0.318 N
ATOM     18  H4  UNL     1     217.736   6.029  15.608  1.00  0.00     0.170 HD
BRANCH  17  19
HETATM   19  C7  UNL     1     217.492   5.887  17.577  1.00  0.00     0.107 A
HETATM   20  C8  UNL     1     216.128   5.806  17.660  1.00  0.00     0.050 A
HETATM   21  C9  UNL     1     215.510   5.313  18.790  1.00  0.00     0.024 A
HETATM   22  C10 UNL     1     216.302   4.904  19.833  1.00  0.00     0.026 A
HETATM   23 BR1  UNL     1     215.510   4.216  21.414  1.00  0.00    -0.050 Br
HETATM   24  C11 UNL     1     217.667   4.986  19.748  1.00  0.00     0.108 A
HETATM   25  N5  UNL     1     218.231   5.479  18.613  1.00  0.00    -0.351 N
ATOM     26  H5  UNL     1     219.247   5.539  18.551  1.00  0.00     0.166 HD
ENDBRANCH  17  19
ENDBRANCH  15  17
ENDBRANCH   1  15
TORSDOF 9
ENDMDL