MODEL 3
REMARK VINA RESULT: -7.490670969      4.694      7.099
REMARK  4 active torsions:
REMARK  status: ('A' for Active; 'I' for Inactive)
REMARK    1  A    between atoms: O1_2  and  C2_3
REMARK    2  A    between atoms: C2_3  and  C3_4
REMARK    3  A    between atoms: C13_20  and  C14_21
REMARK       I    between atoms: C14_21  and  N3_23
REMARK    4  A    between atoms: N3_23  and  C15_25
ROOT
HETATM    1  C3  UNL     1     215.069   4.185  18.959  1.00  0.00     0.153 C
HETATM    2  C4  UNL     1     216.422   4.587  19.369  1.00  0.00     0.079 C
HETATM    3  C5  UNL     1     217.470   4.990  18.464  1.00  0.00     0.259 C
HETATM    4  C6  UNL     1     217.226   5.858  17.313  1.00  0.00     0.262 C
HETATM    5  N1  UNL     1     215.904   6.342  17.248  1.00  0.00    -0.060 N
ATOM      6  H11 UNL     1     215.872   7.257  16.798  1.00  0.00     0.278 HD
ATOM      7  H12 UNL     1     215.564   6.600  18.174  1.00  0.00     0.278 HD
HETATM    8  C7  UNL     1     215.016   5.438  16.617  1.00  0.00     0.221 C
HETATM    9  C8  UNL     1     213.772   5.340  17.476  1.00  0.00     0.218 C
HETATM   10  C9  UNL     1     213.391   3.850  17.449  1.00  0.00     0.043 C
HETATM   11  C10 UNL     1     214.839   3.401  17.734  1.00  0.00     0.032 C
HETATM   12  C11 UNL     1     215.450   4.025  16.482  1.00  0.00     0.021 C
HETATM   13  C12 UNL     1     214.787   3.471  15.211  1.00  0.00     0.012 C
HETATM   14  N2  UNL     1     214.228   5.394  18.866  1.00  0.00    -0.057 N
ATOM     15  H21 UNL     1     214.688   6.263  19.136  1.00  0.00     0.278 HD
ATOM     16  H22 UNL     1     213.485   5.459  19.561  1.00  0.00     0.278 HD
HETATM   17  C13 UNL     1     218.284   6.825  17.833  1.00  0.00     0.347 C
HETATM   18  N6  UNL     1     218.301   6.072  19.024  1.00  0.00     0.107 N
HETATM   19  C18 UNL     1     219.504   5.635  19.624  1.00  0.00     0.311 C
ENDROOT
BRANCH  17  20
HETATM   20  C14 UNL     1     219.553   6.823  17.059  1.00  0.00     0.259 C
HETATM   21  O2  UNL     1     219.941   5.915  16.308  1.00  0.00    -0.271 OA
HETATM   22  N3  UNL     1     220.460   7.948  17.144  1.00  0.00    -0.310 N
ATOM     23  H3  UNL     1     220.143   8.890  16.918  1.00  0.00     0.170 HD
BRANCH  22  24
HETATM   24  C15 UNL     1     221.689   7.732  17.516  1.00  0.00     0.125 A
HETATM   25  C16 UNL     1     222.699   8.662  17.389  1.00  0.00     0.093 A
HETATM   26  C17 UNL     1     223.854   8.071  17.890  1.00  0.00     0.121 A
HETATM   27 CL1  UNL     1     225.451   8.786  17.984  1.00  0.00    -0.063 Cl
HETATM   28  N4  UNL     1     223.525   6.836  18.297  1.00  0.00    -0.288 N
HETATM   29  N5  UNL     1     222.231   6.639  18.071  1.00  0.00    -0.284 N
ATOM     30  H4  UNL     1     224.163   6.158  18.712  1.00  0.00     0.188 HD
ATOM     31  H5  UNL     1     221.725   5.781  18.287  1.00  0.00     0.188 HD
ENDBRANCH  22  24
ENDBRANCH  17  20
BRANCH   1  32
HETATM   32  C2  UNL     1     214.499   3.380  20.119  1.00  0.00     0.206 C
BRANCH  32  33
HETATM   33  O1  UNL     1     215.074   3.830  21.333  1.00  0.00    -0.393 OA
HETATM   34  C1  UNL     1     215.043   2.755  22.214  1.00  0.00     0.201 C
ENDBRANCH  32  33
ENDBRANCH   1  32
TORSDOF 4
ENDMDL