MODEL 5
REMARK VINA RESULT: -6.210281237      3.285      4.741
REMARK  7 active torsions:
REMARK  status: ('A' for Active; 'I' for Inactive)
REMARK       I    between atoms: C1_2  and  N1_3
REMARK    1  A    between atoms: C1_2  and  C9_20
REMARK    2  A    between atoms: N1_3  and  N2_5
REMARK    3  A    between atoms: N2_5  and  C2_7
REMARK    4  A    between atoms: C2_7  and  N3_9
REMARK    5  A    between atoms: N3_9  and  N4_11
REMARK    6  A    between atoms: N4_11  and  C3_13
REMARK    7  A    between atoms: C3_13  and  C4_15
ROOT
HETATM    1  N2  UNL     1     219.626   7.615  21.894  1.00  0.00    -0.272 N
ATOM      2  H2  UNL     1     219.814   8.435  22.470  1.00  0.00     0.189 HD
ENDROOT
BRANCH   1   3
HETATM    3  N1  UNL     1     219.181   7.759  20.584  1.00  0.00    -0.266 N
HETATM    4  C1  UNL     1     217.790   7.749  20.325  1.00  0.00     0.269 C
HETATM    5  O1  UNL     1     217.005   7.609  21.296  1.00  0.00    -0.269 OA
ATOM      6  H1  UNL     1     219.849   7.870  19.821  1.00  0.00     0.190 HD
BRANCH   4   7
HETATM    7  C9  UNL     1     217.258   7.898  18.941  1.00  0.00     0.318 C
HETATM    8  C10 UNL     1     217.532   9.287  18.413  1.00  0.00     0.050 C
HETATM    9  C11 UNL     1     217.655   9.174  16.899  1.00  0.00    -0.007 C
HETATM   10  C12 UNL     1     218.982   8.486  16.620  1.00  0.00     0.035 C
HETATM   11  C15 UNL     1     216.564   8.228  16.442  1.00  0.00     0.056 C
HETATM   12  C13 UNL     1     219.060   7.245  17.477  1.00  0.00     0.276 C
HETATM   13  N5  UNL     1     217.782   6.918  18.043  1.00  0.00     0.120 N
HETATM   14  C14 UNL     1     216.839   6.819  16.919  1.00  0.00     0.319 C
HETATM   15 CL1  UNL     1     215.359   6.002  17.450  1.00  0.00    -0.092 Cl
ENDBRANCH   4   7
ENDBRANCH   1   3
BRANCH   1  16
HETATM   16  C2  UNL     1     219.813   6.310  22.415  1.00  0.00     0.205 C
HETATM   17  S1  UNL     1     220.980   5.360  21.777  1.00  0.00    -0.038 SA
BRANCH  16  18
HETATM   18  N3  UNL     1     218.984   5.878  23.479  1.00  0.00    -0.274 N
ATOM     19  H3  UNL     1     219.356   5.802  24.426  1.00  0.00     0.189 HD
BRANCH  18  20
HETATM   20  N4  UNL     1     217.657   5.560  23.213  1.00  0.00    -0.291 N
ATOM     21  H4  UNL     1     217.003   6.292  22.938  1.00  0.00     0.187 HD
BRANCH  20  22
HETATM   22  C3  UNL     1     217.218   4.224  23.324  1.00  0.00     0.096 C
HETATM   23  S2  UNL     1     217.480   3.490  24.772  1.00  0.00    -0.064 SA
BRANCH  22  24
HETATM   24  C4  UNL     1     216.567   3.546  22.205  1.00  0.00     0.048 C
HETATM   25  C5  UNL     1     215.938   4.512  21.271  1.00  0.00     0.011 C
HETATM   26  C6  UNL     1     214.944   3.636  20.495  1.00  0.00     0.001 C
HETATM   27  C7  UNL     1     214.666   2.452  21.361  1.00  0.00     0.001 C
HETATM   28  C8  UNL     1     215.405   2.681  22.661  1.00  0.00     0.011 C
ENDBRANCH  22  24
ENDBRANCH  20  22
ENDBRANCH  18  20
ENDBRANCH  16  18
ENDBRANCH   1  16
TORSDOF 7
ENDMDL