MODEL 1
REMARK VINA RESULT: -6.677547850      0.000      0.000
REMARK  6 active torsions:
REMARK  status: ('A' for Active; 'I' for Inactive)
REMARK       I    between atoms: N1_2  and  C2_4
REMARK    1  A    between atoms: C2_4  and  C3_6
REMARK    2  A    between atoms: C6_9  and  N2_10
REMARK    3  A    between atoms: N2_10  and  C7_12
REMARK    4  A    between atoms: C7_12  and  N3_14
REMARK    5  A    between atoms: N3_14  and  C8_16
REMARK    6  A    between atoms: C12_25  and  O2_26
ROOT
HETATM    1  C3  UNL     1     217.987   5.627  17.460  1.00  0.00     0.089 C
HETATM    2  C4  UNL     1     218.761   5.266  18.735  1.00  0.00     0.022 C
HETATM    3  C5  UNL     1     219.249   6.583  19.220  1.00  0.00     0.020 C
HETATM    4  C6  UNL     1     220.231   7.225  18.228  1.00  0.00     0.118 C
HETATM    5  C12 UNL     1     219.411   7.481  16.985  1.00  0.00     0.151 C
HETATM    6  C13 UNL     1     217.993   7.107  17.431  1.00  0.00     0.003 C
HETATM    7  C14 UNL     1     216.949   7.806  16.669  1.00  0.00     0.019 C
HETATM    8  C15 UNL     1     218.046   7.479  18.894  1.00  0.00    -0.032 C
HETATM    9  C16 UNL     1     218.447   8.895  19.142  1.00  0.00     0.016 C
HETATM   10  C17 UNL     1     216.833   7.190  19.664  1.00  0.00     0.016 C
ENDROOT
BRANCH   4  11
HETATM   11  N2  UNL     1     221.356   6.336  17.991  1.00  0.00    -0.359 N
ATOM     12  H2  UNL     1     221.204   5.330  17.909  1.00  0.00     0.162 HD
BRANCH  11  13
HETATM   13  C7  UNL     1     222.663   6.866  17.874  1.00  0.00     0.173 C
HETATM   14  S1  UNL     1     223.496   7.205  19.233  1.00  0.00    -0.041 SA
BRANCH  13  15
HETATM   15  N3  UNL     1     223.270   7.112  16.623  1.00  0.00    -0.318 N
ATOM     16  H3  UNL     1     223.941   6.433  16.266  1.00  0.00     0.170 HD
BRANCH  15  17
HETATM   17  C8  UNL     1     223.013   8.162  15.908  1.00  0.00     0.122 A
HETATM   18  C9  UNL     1     223.563   9.377  16.258  1.00  0.00     0.137 A
HETATM   19  N4  UNL     1     223.351  10.511  15.579  1.00  0.00    -0.352 N
HETATM   20  C10 UNL     1     222.556  10.454  14.497  1.00  0.00     0.118 A
ATOM     21  H4  UNL     1     223.780  11.389  15.872  1.00  0.00     0.166 HD
HETATM   22 CL1  UNL     1     222.275  11.934  13.603  1.00  0.00    -0.063 Cl
HETATM   23  C11 UNL     1     221.984   9.264  14.108  1.00  0.00     0.132 A
HETATM   24  N5  UNL     1     222.220   8.129  14.821  1.00  0.00    -0.348 N
ATOM     25  H5  UNL     1     221.793   7.249  14.530  1.00  0.00     0.167 HD
ENDBRANCH  15  17
ENDBRANCH  13  15
ENDBRANCH  11  13
ENDBRANCH   4  11
BRANCH   5  26
HETATM   26  O2  UNL     1     219.817   6.645  15.927  1.00  0.00    -0.393 OA
ATOM     27  H2  UNL     1     219.377   6.878  15.118  1.00  0.00     0.210 HD
ENDBRANCH   5  26
BRANCH   1  28
HETATM   28  C2  UNL     1     216.714   4.935  17.403  1.00  0.00     0.222 C
HETATM   29  N1  UNL     1     216.058   4.620  16.200  1.00  0.00    -0.365 N
HETATM   30  C1  UNL     1     214.785   3.931  16.130  1.00  0.00     0.149 C
ATOM     31  H1  UNL     1     216.505   4.893  15.325  1.00  0.00     0.161 HD
HETATM   32  O1  UNL     1     216.159   4.593  18.479  1.00  0.00    -0.273 OA
ENDBRANCH   1  28
TORSDOF 6
ENDMDL