MODEL 3
REMARK VINA RESULT: -6.595605544      5.048      8.052
REMARK  7 active torsions:
REMARK  status: ('A' for Active; 'I' for Inactive)
REMARK    1  A    between atoms: N1_2  and  C2_4
REMARK    2  A    between atoms: C2_4  and  N2_6
REMARK    3  A    between atoms: N2_6  and  C3_8
REMARK    4  A    between atoms: C3_8  and  N3_10
REMARK    5  A    between atoms: N3_10  and  N4_12
REMARK       I    between atoms: N4_12  and  C4_14
REMARK    6  A    between atoms: C4_14  and  C5_16
REMARK    7  A    between atoms: C6_17  and  C7_18
ROOT
HETATM    1  C7  UNL     1     216.740   5.501  19.204  1.00  0.00    -0.033 A
HETATM    2  C8  UNL     1     215.624   5.036  18.545  1.00  0.00     0.030 A
HETATM    3  C9  UNL     1     214.700   4.167  19.113  1.00  0.00     0.013 A
HETATM    4 BR1  UNL     1     213.166   3.531  18.186  1.00  0.00    -0.051 Br
HETATM    5  C10 UNL     1     214.958   3.772  20.422  1.00  0.00     0.041 A
HETATM    6  C11 UNL     1     216.043   4.194  21.132  1.00  0.00     0.046 A
HETATM    7  C12 UNL     1     216.267   3.753  22.491  1.00  0.00     0.099 C
HETATM    8  N5  UNL     1     216.468   3.407  23.579  1.00  0.00    -0.191 NA
HETATM    9  C13 UNL     1     216.922   5.056  20.508  1.00  0.00     0.034 A
ENDROOT
BRANCH   1  10
HETATM   10  C6  UNL     1     217.702   6.399  18.606  1.00  0.00     0.017 C
HETATM   11  C5  UNL     1     218.342   6.162  17.476  1.00  0.00     0.076 C
BRANCH  11  12
HETATM   12  C4  UNL     1     219.292   7.122  16.948  1.00  0.00     0.259 C
HETATM   13  N4  UNL     1     220.168   6.891  15.883  1.00  0.00    -0.264 N
ATOM     14  H4  UNL     1     220.159   5.976  15.432  1.00  0.00     0.190 HD
HETATM   15  O1  UNL     1     219.327   8.276  17.502  1.00  0.00    -0.267 OA
BRANCH  13  16
HETATM   16  N3  UNL     1     221.057   7.859  15.410  1.00  0.00    -0.273 N
ATOM     17  H3  UNL     1     220.742   8.542  14.721  1.00  0.00     0.189 HD
BRANCH  16  18
HETATM   18  C3  UNL     1     222.373   7.898  15.875  1.00  0.00     0.192 C
HETATM   19  S2  UNL     1     223.425   8.994  15.121  1.00  0.00    -0.039 SA
BRANCH  18  20
HETATM   20  N2  UNL     1     222.980   7.156  16.887  1.00  0.00    -0.309 N
ATOM     21  H2  UNL     1     223.698   6.512  16.555  1.00  0.00     0.170 HD
BRANCH  20  22
HETATM   22  C2  UNL     1     222.793   7.130  18.245  1.00  0.00     0.173 C
HETATM   23  S1  UNL     1     222.744   8.639  19.000  1.00  0.00    -0.041 SA
BRANCH  22  24
HETATM   24  N1  UNL     1     222.638   6.060  19.125  1.00  0.00    -0.371 N
HETATM   25  C1  UNL     1     221.354   5.826  19.826  1.00  0.00     0.148 C
ATOM     26  H1  UNL     1     223.422   5.429  19.288  1.00  0.00     0.161 HD
ENDBRANCH  22  24
ENDBRANCH  20  22
ENDBRANCH  18  20
ENDBRANCH  16  18
ENDBRANCH  13  16
ENDBRANCH  11  12
ENDBRANCH   1  10
TORSDOF 7
ENDMDL