MODEL 3
REMARK VINA RESULT: -7.609572139      2.898      5.369
REMARK  6 active torsions:
REMARK  status: ('A' for Active; 'I' for Inactive)
REMARK    1  A    between atoms: C2_2  and  N1_5
REMARK       I    between atoms: N1_5  and  C4_7
REMARK       I    between atoms: C4_7  and  N2_9
REMARK    2  A    between atoms: C8_16  and  N4_17
REMARK    3  A    between atoms: N4_17  and  C9_19
REMARK    4  A    between atoms: C9_19  and  O3_20
REMARK    5  A    between atoms: C9_19  and  N5_22
REMARK       I    between atoms: N5_22  and  C10_24
REMARK    6  A    between atoms: C10_24  and  C11_26
ROOT
HETATM    1  N1  UNL     1     219.082   5.915  22.088  1.00  0.00    -0.321 N
ATOM      2  H1  UNL     1     219.555   6.570  22.710  1.00  0.00     0.166 HD
HETATM    3  C4  UNL     1     219.383   5.962  20.696  1.00  0.00     0.321 C
HETATM    4  O1  UNL     1     218.737   5.097  20.002  1.00  0.00    -0.247 OA
HETATM    5  N2  UNL     1     220.291   6.854  20.108  1.00  0.00    -0.302 N
HETATM    6  C5  UNL     1     220.987   7.823  20.913  1.00  0.00     0.150 C
HETATM    7  C6  UNL     1     222.487   7.551  20.891  1.00  0.00     0.143 C
HETATM    8  N3  UNL     1     222.881   7.067  19.578  1.00  0.00    -0.356 N
ATOM      9  H3  UNL     1     223.830   6.717  19.448  1.00  0.00     0.162 HD
HETATM   10  C7  UNL     1     221.996   7.063  18.473  1.00  0.00     0.260 C
HETATM   11  O2  UNL     1     222.397   7.255  17.293  1.00  0.00    -0.269 OA
HETATM   12  C8  UNL     1     220.553   6.827  18.700  1.00  0.00     0.285 C
ENDROOT
BRANCH  12  13
HETATM   13  N4  UNL     1     220.107   5.611  18.033  1.00  0.00    -0.327 N
ATOM     14  H4  UNL     1     220.361   4.700  18.414  1.00  0.00     0.165 HD
BRANCH  13  15
HETATM   15  C9  UNL     1     219.334   5.689  16.877  1.00  0.00     0.221 C
BRANCH  15  16
HETATM   16  O3  UNL     1     219.950   6.169  15.834  1.00  0.00    -0.332 OA
ATOM     17  H3  UNL     1     219.624   7.005  15.524  1.00  0.00     0.220 HD
ENDBRANCH  15  16
BRANCH  15  18
HETATM   18  N5  UNL     1     218.007   5.307  16.756  1.00  0.00    -0.292 N
HETATM   19  C10 UNL     1     216.906   5.967  17.312  1.00  0.00     0.233 C
HETATM   20  O4  UNL     1     217.014   6.992  17.992  1.00  0.00    -0.272 OA
ATOM     21  H5  UNL     1     217.815   4.467  16.210  1.00  0.00     0.172 HD
BRANCH  19  22
HETATM   22  C11 UNL     1     215.494   5.456  17.108  1.00  0.00     0.038 C
HETATM   23  C12 UNL     1     214.781   6.594  16.370  1.00  0.00     0.025 C
HETATM   24  C13 UNL     1     214.883   5.355  18.458  1.00  0.00     0.019 C
HETATM   25  C14 UNL     1     213.655   4.492  18.434  1.00  0.00     0.001 C
HETATM   26  C15 UNL     1     214.155   3.092  18.067  1.00  0.00     0.000 C
HETATM   27  C16 UNL     1     214.588   3.145  16.640  1.00  0.00     0.001 C
HETATM   28  C17 UNL     1     215.530   4.238  16.296  1.00  0.00     0.019 C
ENDBRANCH  19  22
ENDBRANCH  15  18
ENDBRANCH  13  15
ENDBRANCH  12  13
BRANCH   1  29
HETATM   29  C2  UNL     1     218.144   4.987  22.659  1.00  0.00     0.104 C
HETATM   30  C1  UNL     1     216.757   5.138  22.087  1.00  0.00     0.056 C
HETATM   31  C3  UNL     1     218.664   3.575  22.517  1.00  0.00     0.056 C
HETATM   32 CL1  UNL     1     218.040   5.303  24.426  1.00  0.00    -0.096 Cl
ENDBRANCH   1  29
TORSDOF 6
ENDMDL