MODEL 4
REMARK VINA RESULT: -6.576698611      2.901      4.901
REMARK  6 active torsions:
REMARK  status: ('A' for Active; 'I' for Inactive)
REMARK       I    between atoms: N1_2  and  C2_4
REMARK       I    between atoms: C2_4  and  N2_6
REMARK    1  A    between atoms: C3_7  and  C4_8
REMARK    2  A    between atoms: C4_8  and  O3_10
REMARK    3  A    between atoms: C8_18  and  N5_19
REMARK    4  A    between atoms: N5_19  and  C9_21
REMARK    5  A    between atoms: C9_21  and  N6_23
REMARK    6  A    between atoms: N6_23  and  C10_25
ROOT
HETATM    1  C1  UNL     1     222.090  10.459  19.621  1.00  0.00     0.151 C
HETATM    2  N1  UNL     1     221.387   9.406  18.923  1.00  0.00    -0.347 N
ATOM      3  H1  UNL     1     221.902   8.855  18.237  1.00  0.00     0.163 HD
HETATM    4  C2  UNL     1     220.027   9.096  19.139  1.00  0.00     0.319 C
HETATM    5  O1  UNL     1     219.437   9.824  20.015  1.00  0.00    -0.247 OA
HETATM    6  N2  UNL     1     219.333   8.062  18.456  1.00  0.00    -0.301 N
HETATM    7  C3  UNL     1     217.958   7.743  18.679  1.00  0.00     0.229 A
HETATM    8  C6  UNL     1     217.681   6.640  17.750  1.00  0.00     0.046 A
HETATM    9  C7  UNL     1     218.807   6.322  17.039  1.00  0.00     0.066 A
HETATM   10  N3  UNL     1     218.461   5.301  16.214  1.00  0.00    -0.300 N
ATOM     11  H3  UNL     1     219.084   4.839  15.552  1.00  0.00     0.186 HD
HETATM   12  N4  UNL     1     217.183   5.000  16.404  1.00  0.00    -0.285 N
ATOM     13  H4  UNL     1     216.672   4.269  15.911  1.00  0.00     0.188 HD
HETATM   14  C8  UNL     1     216.667   5.805  17.345  1.00  0.00     0.133 A
HETATM   15  C14 UNL     1     219.884   7.210  17.467  1.00  0.00     0.075 A
HETATM   16  C15 UNL     1     220.392   7.961  16.248  1.00  0.00     0.045 C
HETATM   17  C16 UNL     1     221.023   6.350  17.977  1.00  0.00     0.045 C
ENDROOT
BRANCH  14  18
HETATM   18  N5  UNL     1     215.467   5.800  17.781  1.00  0.00    -0.318 N
ATOM     19  H5  UNL     1     214.834   6.545  17.490  1.00  0.00     0.170 HD
BRANCH  18  20
HETATM   20  C9  UNL     1     214.978   4.789  18.661  1.00  0.00     0.173 C
HETATM   21  S1  UNL     1     213.506   4.189  18.318  1.00  0.00    -0.041 SA
BRANCH  20  22
HETATM   22  N6  UNL     1     215.700   4.314  19.767  1.00  0.00    -0.362 N
ATOM     23  H6  UNL     1     216.694   4.112  19.654  1.00  0.00     0.162 HD
BRANCH  22  24
HETATM   24  C10 UNL     1     215.082   4.096  21.076  1.00  0.00     0.083 C
HETATM   25  C11 UNL     1     214.721   2.654  21.343  1.00  0.00     0.025 C
HETATM   26  C12 UNL     1     215.535   2.703  22.636  1.00  0.00     0.004 C
HETATM   27  C13 UNL     1     216.067   4.038  22.203  1.00  0.00     0.025 C
ENDBRANCH  22  24
ENDBRANCH  20  22
ENDBRANCH  18  20
ENDBRANCH  14  18
BRANCH   7  28
HETATM   28  C4  UNL     1     217.664   7.299  20.050  1.00  0.00     0.286 C
HETATM   29  O2  UNL     1     216.874   7.948  20.759  1.00  0.00    -0.263 OA
BRANCH  28  30
HETATM   30  O3  UNL     1     218.264   6.165  20.547  1.00  0.00    -0.325 OA
HETATM   31  C5  UNL     1     219.261   6.271  21.548  1.00  0.00     0.213 C
ENDBRANCH  28  30
ENDBRANCH   7  28
TORSDOF 6
ENDMDL