MODEL 3
REMARK VINA RESULT: -7.602702023      2.420      3.184
REMARK  7 active torsions:
REMARK  status: ('A' for Active; 'I' for Inactive)
REMARK    1  A    between atoms: C5_5  and  N1_6
REMARK       I    between atoms: N1_6  and  C6_8
REMARK    2  A    between atoms: C6_8  and  C7_10
REMARK    3  A    between atoms: C10_13  and  C11_14
REMARK    4  A    between atoms: C11_14  and  N2_15
REMARK       I    between atoms: N2_15  and  C12_17
REMARK    5  A    between atoms: C12_17  and  C13_19
REMARK       I    between atoms: C13_19  and  N3_21
REMARK    6  A    between atoms: N3_21  and  C14_23
REMARK    7  A    between atoms: C14_23  and  C16_26
ROOT
HETATM    1  C14 UNL     1      -5.031   1.756  14.659  1.00  0.00     0.196 C
HETATM    2  C15 UNL     1      -4.729   0.359  14.974  1.00  0.00     0.085 C
HETATM    3  N4  UNL     1      -4.478  -0.740  15.229  1.00  0.00    -0.195 NA
ENDROOT
BRANCH   1   4
HETATM    4  N3  UNL     1      -3.959   2.379  13.908  1.00  0.00    -0.336 N
HETATM    5  C13 UNL     1      -4.092   2.771  12.564  1.00  0.00     0.310 C
HETATM    6  O3  UNL     1      -5.196   2.569  11.989  1.00  0.00    -0.262 OA
ATOM      7  H3  UNL     1      -3.066   2.539  14.376  1.00  0.00     0.164 HD
BRANCH   5   8
HETATM    8  C12 UNL     1      -2.978   3.389  11.873  1.00  0.00     0.309 C
HETATM    9  N2  UNL     1      -3.208   4.051  10.643  1.00  0.00    -0.350 N
ATOM     10  H2  UNL     1      -4.158   4.076  10.272  1.00  0.00     0.162 HD
HETATM   11  O2  UNL     1      -1.835   3.321  12.386  1.00  0.00    -0.262 OA
BRANCH   9  12
HETATM   12  C11 UNL     1      -2.159   4.691   9.892  1.00  0.00     0.155 C
BRANCH  12  13
HETATM   13  C10 UNL     1      -2.434   4.662   8.422  1.00  0.00     0.140 C
HETATM   14  C9  UNL     1      -1.486   5.594   7.694  1.00  0.00     0.036 C
HETATM   15  C8  UNL     1      -2.414   6.225   6.676  1.00  0.00     0.044 C
HETATM   16  C7  UNL     1      -3.775   5.590   6.889  1.00  0.00     0.214 C
HETATM   17  O4  UNL     1      -3.711   5.190   8.221  1.00  0.00    -0.370 OA
BRANCH  16  18
HETATM   18  C6  UNL     1      -4.870   6.561   6.746  1.00  0.00     0.247 C
HETATM   19  N1  UNL     1      -5.623   6.972   7.857  1.00  0.00    -0.354 N
ATOM     20  H1  UNL     1      -5.388   6.576   8.767  1.00  0.00     0.162 HD
HETATM   21  O1  UNL     1      -5.133   7.025   5.619  1.00  0.00    -0.271 OA
BRANCH  19  22
HETATM   22  C5  UNL     1      -6.704   7.914   7.795  1.00  0.00     0.088 C
HETATM   23  C2  UNL     1      -7.148   8.505   9.102  1.00  0.00     0.004 C
HETATM   24  C1  UNL     1      -6.262   8.292  10.273  1.00  0.00     0.012 C
HETATM   25  C3  UNL     1      -8.361   7.632   9.135  1.00  0.00     0.008 C
HETATM   26  C4  UNL     1      -8.046   7.204   7.718  1.00  0.00     0.026 C
ENDBRANCH  19  22
ENDBRANCH  16  18
ENDBRANCH  12  13
ENDBRANCH   9  12
ENDBRANCH   5   8
ENDBRANCH   1   4
BRANCH   1  27
HETATM   27  C16 UNL     1      -5.191   2.534  15.959  1.00  0.00     0.022 C
HETATM   28  C17 UNL     1      -5.570   1.638  17.101  1.00  0.00     0.007 C
HETATM   29  C18 UNL     1      -6.927   2.063  17.552  1.00  0.00     0.000 C
HETATM   30  C19 UNL     1      -6.976   3.531  17.142  1.00  0.00     0.000 C
HETATM   31  C20 UNL     1      -6.353   3.480  15.761  1.00  0.00     0.007 C
ENDBRANCH   1  27
TORSDOF 7
ENDMDL