MODEL 2
REMARK VINA RESULT: -6.663651639      1.415      2.021
REMARK  7 active torsions:
REMARK  status: ('A' for Active; 'I' for Inactive)
REMARK    1  A    between atoms: O1_2  and  C2_3
REMARK    2  A    between atoms: C2_3  and  C3_4
REMARK    3  A    between atoms: C2_3  and  C13_18
REMARK       I    between atoms: C3_4  and  N1_6
REMARK    4  A    between atoms: N1_6  and  C4_8
REMARK    5  A    between atoms: C13_18  and  O3_19
REMARK    6  A    between atoms: C13_18  and  C14_21
REMARK    7  A    between atoms: C14_21  and  N3_22
ROOT
HETATM    1  C2  UNL     1      -3.152   4.748  12.980  1.00  0.00     0.242 C
ENDROOT
BRANCH   1   2
HETATM    2  O1  UNL     1      -2.451   3.597  12.789  1.00  0.00    -0.379 OA
HETATM    3  C1  UNL     1      -1.297   3.654  12.087  1.00  0.00     0.202 C
ENDBRANCH   1   2
BRANCH   1   4
HETATM    4  C3  UNL     1      -4.127   5.078  11.942  1.00  0.00     0.249 C
HETATM    5  O2  UNL     1      -4.707   4.141  11.336  1.00  0.00    -0.271 OA
HETATM    6  N1  UNL     1      -4.493   6.391  11.538  1.00  0.00    -0.354 N
ATOM      7  H1  UNL     1      -4.039   7.171  12.014  1.00  0.00     0.162 HD
BRANCH   6   8
HETATM    8  C4  UNL     1      -5.438   6.705  10.528  1.00  0.00     0.088 C
HETATM    9  C5  UNL     1      -4.841   6.837   9.144  1.00  0.00     0.061 C
HETATM   10  C6  UNL     1      -5.946   7.008   8.131  1.00  0.00     0.225 C
HETATM   11  C7  UNL     1      -5.938   8.413   7.595  1.00  0.00     0.042 C
HETATM   12  N2  UNL     1      -7.222   6.925   8.800  1.00  0.00     0.094 N
HETATM   13  C8  UNL     1      -6.678   9.185   8.652  1.00  0.00     0.017 C
HETATM   14  C9  UNL     1      -7.822   9.954   8.042  1.00  0.00     0.012 C
HETATM   15  C10 UNL     1      -7.206   8.122   9.619  1.00  0.00     0.228 C
HETATM   16  C11 UNL     1      -6.248   7.949  10.782  1.00  0.00     0.061 C
HETATM   17  C12 UNL     1      -8.322   6.875   7.892  1.00  0.00     0.310 C
ENDBRANCH   6   8
ENDBRANCH   1   4
BRANCH   1  18
HETATM   18  C13 UNL     1      -3.697   4.890  14.388  1.00  0.00     0.184 C
BRANCH  18  19
HETATM   19  O3  UNL     1      -3.811   6.246  14.733  1.00  0.00    -0.391 OA
ATOM     20  H3  UNL     1      -4.018   6.336  15.655  1.00  0.00     0.210 HD
ENDBRANCH  18  19
BRANCH  18  21
HETATM   21  C14 UNL     1      -5.036   4.280  14.590  1.00  0.00     0.307 C
BRANCH  21  22
HETATM   22  N3  UNL     1      -5.174   3.320  15.617  1.00  0.00     0.095 N
HETATM   23  C15 UNL     1      -6.408   2.596  15.644  1.00  0.00     0.304 C
HETATM   24  C16 UNL     1      -6.268   1.544  16.735  1.00  0.00     0.210 C
HETATM   25  C17 UNL     1      -7.598   1.016  17.168  1.00  0.00     0.042 C
HETATM   26  N4  UNL     1      -5.349   0.507  16.329  1.00  0.00    -0.064 N
HETATM   27  C18 UNL     1      -4.283   1.018  15.489  1.00  0.00     0.210 C
ATOM     28  H42 UNL     1      -4.975   0.007  17.136  1.00  0.00     0.278 HD
ATOM     29  H41 UNL     1      -5.840  -0.264  15.874  1.00  0.00     0.278 HD
HETATM   30  C19 UNL     1      -4.465   0.609  14.043  1.00  0.00     0.042 C
HETATM   31  C20 UNL     1      -4.038   2.474  15.663  1.00  0.00     0.304 C
ENDBRANCH  21  22
ENDBRANCH  18  21
ENDBRANCH   1  18
TORSDOF 7
ENDMDL