MODEL 5
REMARK VINA RESULT: -6.224609080      3.842      5.693
REMARK  7 active torsions:
REMARK  status: ('A' for Active; 'I' for Inactive)
REMARK    1  A    between atoms: C2_2  and  C3_3
REMARK    2  A    between atoms: C3_3  and  C5_5
REMARK    3  A    between atoms: C5_5  and  N1_6
REMARK    4  A    between atoms: C5_5  and  C13_21
REMARK       I    between atoms: N1_6  and  C6_8
REMARK    5  A    between atoms: C6_8  and  C7_10
REMARK    6  A    between atoms: C7_10  and  N2_11
REMARK       I    between atoms: C13_21  and  N4_23
REMARK    7  A    between atoms: N5_26  and  C16_27
ROOT
HETATM    1  C5  UNL     1      -2.720   5.583   9.900  1.00  0.00     0.180 C
ENDROOT
BRANCH   1   2
HETATM    2  C3  UNL     1      -1.361   4.940   9.694  1.00  0.00     0.013 C
HETATM    3  C4  UNL     1      -0.459   5.678   8.759  1.00  0.00     0.012 C
BRANCH   2   4
HETATM    4  C2  UNL     1      -0.695   4.405  10.919  1.00  0.00     0.002 C
HETATM    5  C1  UNL     1       0.738   4.022  10.759  1.00  0.00     0.005 C
ENDBRANCH   2   4
ENDBRANCH   1   2
BRANCH   1   6
HETATM    6  N1  UNL     1      -3.326   4.881  11.061  1.00  0.00    -0.345 N
HETATM    7  C6  UNL     1      -3.896   5.573  12.135  1.00  0.00     0.255 C
HETATM    8  O1  UNL     1      -3.865   6.844  12.090  1.00  0.00    -0.271 OA
ATOM      9  H1  UNL     1      -3.326   3.861  11.076  1.00  0.00     0.163 HD
BRANCH   7  10
HETATM   10  C7  UNL     1      -4.523   4.961  13.304  1.00  0.00     0.207 C
HETATM   11  C9  UNL     1      -4.737   3.499  13.261  1.00  0.00     0.068 C
HETATM   12  C10 UNL     1      -5.805   3.151  14.279  1.00  0.00     0.116 C
HETATM   13  N3  UNL     1      -5.995   4.122  15.291  1.00  0.00    -0.421 N
HETATM   14  C11 UNL     1      -6.323   5.436  14.853  1.00  0.00     0.116 C
ATOM     15  H3  UNL     1      -5.901   3.893  16.280  1.00  0.00     0.153 HD
HETATM   16  C12 UNL     1      -5.928   5.609  13.397  1.00  0.00     0.068 C
BRANCH  10  17
HETATM   17  N2  UNL     1      -3.793   5.343  14.501  1.00  0.00    -0.061 N
HETATM   18  C8  UNL     1      -2.472   4.740  14.456  1.00  0.00     0.268 C
ATOM     19  H22 UNL     1      -3.755   6.354  14.627  1.00  0.00     0.278 HD
ATOM     20  H21 UNL     1      -4.299   5.112  15.356  1.00  0.00     0.278 HD
ENDBRANCH  10  17
ENDBRANCH   7  10
ENDBRANCH   1   6
BRANCH   1  21
HETATM   21  C13 UNL     1      -3.615   5.545   8.758  1.00  0.00     0.243 C
HETATM   22  O2  UNL     1      -3.764   4.401   8.162  1.00  0.00    -0.271 OA
HETATM   23  N4  UNL     1      -4.366   6.606   8.187  1.00  0.00    -0.347 N
HETATM   24  C14 UNL     1      -5.161   6.330   6.995  1.00  0.00     0.156 C
HETATM   25  C20 UNL     1      -4.364   7.902   8.768  1.00  0.00     0.156 C
HETATM   26  C15 UNL     1      -5.916   7.521   6.517  1.00  0.00     0.292 C
HETATM   27  N5  UNL     1      -6.491   8.316   7.556  1.00  0.00     0.095 N
HETATM   28  C19 UNL     1      -5.621   8.681   8.603  1.00  0.00     0.292 C
BRANCH  27  29
HETATM   29  C16 UNL     1      -7.761   7.779   7.992  1.00  0.00     0.215 C
HETATM   30  C17 UNL     1      -8.834   8.797   7.630  1.00  0.00     0.042 C
HETATM   31  C18 UNL     1      -7.823   7.544   9.458  1.00  0.00     0.042 C
ENDBRANCH  27  29
ENDBRANCH   1  21
TORSDOF 7
ENDMDL