MODEL 1
REMARK VINA RESULT: -7.025813116      0.000      0.000
REMARK  9 active torsions:
REMARK  status: ('A' for Active; 'I' for Inactive)
REMARK    1  A    between atoms: C2_2  and  C3_3
REMARK    2  A    between atoms: C3_3  and  N1_4
REMARK    3  A    between atoms: N1_4  and  C4_6
REMARK    4  A    between atoms: C5_9  and  N3_10
REMARK    5  A    between atoms: N3_10  and  C6_12
REMARK    6  A    between atoms: C6_12  and  C7_13
REMARK    7  A    between atoms: C7_13  and  C8_14
REMARK    8  A    between atoms: C8_14  and  N4_15
REMARK    9  A    between atoms: N6_24  and  C14_26
ROOT
HETATM    1  C4  UNL     1      -2.314   6.504  11.905  1.00  0.00     0.707 A
HETATM    2  N2  UNL     1      -2.457   5.148  12.069  1.00  0.00    -0.022 N
ATOM      3  H2  UNL     1      -1.739   4.612  12.558  1.00  0.00     0.203 HD
HETATM    4  C5  UNL     1      -3.540   4.534  11.586  1.00  0.00     0.707 A
HETATM    5  N5  UNL     1      -4.480   5.288  10.937  1.00  0.00    -0.022 N
ATOM      6  H5  UNL     1      -5.304   4.810  10.572  1.00  0.00     0.203 HD
HETATM    7  C13 UNL     1      -4.391   6.603  10.751  1.00  0.00     0.707 A
HETATM    8  N6  UNL     1      -5.261   7.312  10.119  1.00  0.00    -0.220 N
ATOM      9  H6  UNL     1      -5.068   8.311  10.053  1.00  0.00     0.178 HD
HETATM   10  N7  UNL     1      -3.267   7.193  11.261  1.00  0.00    -0.021 N
ATOM     11  H7  UNL     1      -3.149   8.200  11.147  1.00  0.00     0.203 HD
ENDROOT
BRANCH   4  12
HETATM   12  N3  UNL     1      -3.763   3.296  11.647  1.00  0.00    -0.225 N
ATOM     13  H3  UNL     1      -3.318   2.732  10.923  1.00  0.00     0.177 HD
BRANCH  12  14
HETATM   14  C6  UNL     1      -4.566   2.560  12.605  1.00  0.00     0.140 C
BRANCH  14  15
HETATM   15  C7  UNL     1      -4.821   3.336  13.839  1.00  0.00     0.050 C
BRANCH  15  16
HETATM   16  C8  UNL     1      -5.980   2.946  14.645  1.00  0.00     0.274 C
BRANCH  16  17
HETATM   17  N4  UNL     1      -5.759   2.605  16.003  1.00  0.00     0.092 N
HETATM   18  C9  UNL     1      -4.547   1.746  16.090  1.00  0.00     0.298 C
HETATM   19  C10 UNL     1      -4.828   0.330  15.717  1.00  0.00     0.198 C
HETATM   20  O1  UNL     1      -5.674  -0.275  16.649  1.00  0.00    -0.388 OA
HETATM   21  C11 UNL     1      -6.267   0.672  17.460  1.00  0.00     0.198 C
HETATM   22  C12 UNL     1      -6.805   1.851  16.639  1.00  0.00     0.298 C
ENDBRANCH  16  17
ENDBRANCH  15  16
ENDBRANCH  14  15
ENDBRANCH  12  14
ENDBRANCH   4  12
BRANCH   1  23
HETATM   23  N1  UNL     1      -1.246   7.012  12.391  1.00  0.00    -0.222 N
ATOM     24  H1  UNL     1      -0.381   6.541  12.124  1.00  0.00     0.178 HD
BRANCH  23  25
HETATM   25  C3  UNL     1      -1.086   8.132  13.243  1.00  0.00     0.164 C
BRANCH  25  26
HETATM   26  C2  UNL     1      -1.918   7.880  14.475  1.00  0.00    -0.017 C
HETATM   27  C1  UNL     1      -1.865   8.704  15.514  1.00  0.00     0.008 C
ENDBRANCH  25  26
ENDBRANCH  23  25
ENDBRANCH   1  23
BRANCH   8  28
HETATM   28  C14 UNL     1      -6.447   6.866   9.510  1.00  0.00     0.103 C
HETATM   29  C15 UNL     1      -7.693   7.699   9.837  1.00  0.00     0.030 C
HETATM   30  C16 UNL     1      -8.541   7.720   8.599  1.00  0.00    -0.012 C
HETATM   31  C17 UNL     1      -8.049   8.856   7.728  1.00  0.00     0.005 C
HETATM   32  C20 UNL     1      -7.929   6.558   7.795  1.00  0.00     0.011 C
HETATM   33  C18 UNL     1      -6.570   8.460   7.619  1.00  0.00     0.007 C
HETATM   34  C19 UNL     1      -6.468   7.018   7.992  1.00  0.00     0.009 C
ENDBRANCH   8  28
TORSDOF 9
ENDMDL