MODEL 4
REMARK VINA RESULT: -7.321685876      2.141      3.315
REMARK  7 active torsions:
REMARK  status: ('A' for Active; 'I' for Inactive)
REMARK    1  A    between atoms: N1_2  and  C2_5
REMARK    2  A    between atoms: C2_5  and  C4_7
REMARK       I    between atoms: C4_7  and  N2_9
REMARK    3  A    between atoms: N2_9  and  C5_11
REMARK    4  A    between atoms: C5_11  and  C6_12
REMARK    5  A    between atoms: C5_11  and  C15_25
REMARK       I    between atoms: C6_12  and  N3_14
REMARK    6  A    between atoms: C9_17  and  C10_18
REMARK    7  A    between atoms: C13_21  and  C14_22
ROOT
HETATM    1  C5  UNL     1      -4.247   5.019  11.743  1.00  0.00     0.181 C
ENDROOT
BRANCH   1   2
HETATM    2  N2  UNL     1      -3.396   4.661  10.581  1.00  0.00    -0.346 N
HETATM    3  C4  UNL     1      -3.770   5.010   9.268  1.00  0.00     0.248 C
HETATM    4  O1  UNL     1      -4.842   5.630   9.106  1.00  0.00    -0.271 OA
ATOM      5  H2  UNL     1      -2.524   4.153  10.735  1.00  0.00     0.163 HD
BRANCH   3   6
HETATM    6  C2  UNL     1      -2.946   4.671   8.086  1.00  0.00     0.272 C
HETATM    7  C3  UNL     1      -1.572   5.251   8.322  1.00  0.00     0.050 C
BRANCH   6   8
HETATM    8  N1  UNL     1      -3.582   5.165   6.905  1.00  0.00    -0.067 N
HETATM    9  C1  UNL     1      -2.758   6.035   6.119  1.00  0.00     0.267 C
ATOM     10  H12 UNL     1      -4.464   5.621   7.139  1.00  0.00     0.277 HD
ATOM     11  H11 UNL     1      -3.931   4.392   6.337  1.00  0.00     0.277 HD
ENDBRANCH   6   8
ENDBRANCH   3   6
ENDBRANCH   1   2
BRANCH   1  12
HETATM   12  C6  UNL     1      -4.446   3.802  12.563  1.00  0.00     0.243 C
HETATM   13  O2  UNL     1      -4.215   2.715  11.934  1.00  0.00    -0.271 OA
HETATM   14  N3  UNL     1      -4.852   3.748  13.907  1.00  0.00    -0.337 N
HETATM   15  C7  UNL     1      -5.174   4.852  14.754  1.00  0.00     0.127 C
HETATM   16  C13 UNL     1      -5.048   2.561  14.761  1.00  0.00     0.180 C
HETATM   17  C8  UNL     1      -6.286   4.355  15.616  1.00  0.00     0.027 C
HETATM   18  C9  UNL     1      -6.367   2.835  15.397  1.00  0.00     0.022 C
BRANCH  18  19
HETATM   19  C10 UNL     1      -6.695   2.222  16.689  1.00  0.00    -0.016 C
HETATM   20  C11 UNL     1      -7.801   1.205  16.680  1.00  0.00     0.010 C
HETATM   21  C12 UNL     1      -7.177   3.347  17.614  1.00  0.00     0.010 C
ENDBRANCH  18  19
BRANCH  16  22
HETATM   22  C14 UNL     1      -3.915   2.285  15.609  1.00  0.00     0.254 C
HETATM   23  N4  UNL     1      -3.692   1.049  16.319  1.00  0.00    -0.060 NA
HETATM   24  O3  UNL     1      -2.993   3.118  15.811  1.00  0.00    -0.275 OA
ENDBRANCH  16  22
ENDBRANCH   1  12
BRANCH   1  25
HETATM   25  C15 UNL     1      -3.506   6.124  12.457  1.00  0.00     0.018 C
HETATM   26  C16 UNL     1      -3.579   7.456  11.747  1.00  0.00     0.007 C
HETATM   27  C17 UNL     1      -2.627   8.458  12.340  1.00  0.00     0.000 C
HETATM   28  C18 UNL     1      -2.238   8.124  13.758  1.00  0.00     0.000 C
HETATM   29  C19 UNL     1      -1.677   6.761  13.958  1.00  0.00     0.000 C
HETATM   30  C20 UNL     1      -2.142   5.767  12.901  1.00  0.00     0.007 C
ENDBRANCH   1  25
TORSDOF 7
ENDMDL