MODEL 4
REMARK VINA RESULT: -7.183330495      0.697      1.230
REMARK  8 active torsions:
REMARK  status: ('A' for Active; 'I' for Inactive)
REMARK    1  A    between atoms: C5_6  and  C6_7
REMARK       I    between atoms: C6_7  and  N2_9
REMARK    2  A    between atoms: N2_9  and  N3_11
REMARK       I    between atoms: N3_11  and  C7_13
REMARK    3  A    between atoms: C7_13  and  C8_15
REMARK    4  A    between atoms: C8_15  and  C9_16
REMARK    5  A    between atoms: C9_16  and  C10_17
REMARK    6  A    between atoms: C10_17  and  C11_18
REMARK    7  A    between atoms: C11_18  and  C12_19
REMARK    8  A    between atoms: C12_19  and  N4_20
ROOT
HETATM    1  C6  UNL     1      -5.831   5.546  13.462  1.00  0.00     0.241 C
HETATM    2  O1  UNL     1      -7.038   5.857  13.365  1.00  0.00    -0.271 OA
HETATM    3  N2  UNL     1      -4.898   6.153  12.587  1.00  0.00    -0.267 N
ATOM      4  H2  UNL     1      -3.911   5.906  12.658  1.00  0.00     0.190 HD
ENDROOT
BRANCH   3   5
HETATM    5  N3  UNL     1      -5.308   7.090  11.619  1.00  0.00    -0.268 N
HETATM    6  C7  UNL     1      -5.706   6.593  10.353  1.00  0.00     0.236 C
HETATM    7  O2  UNL     1      -5.706   5.382  10.064  1.00  0.00    -0.272 OA
ATOM      8  H3  UNL     1      -5.318   8.090  11.822  1.00  0.00     0.190 HD
BRANCH   6   9
HETATM    9  C8  UNL     1      -6.143   7.580   9.325  1.00  0.00     0.104 C
BRANCH   9  10
HETATM   10  C9  UNL     1      -7.629   7.771   9.428  1.00  0.00     0.009 C
BRANCH  10  11
HETATM   11  C10 UNL     1      -8.273   7.458   8.109  1.00  0.00     0.002 C
BRANCH  11  12
HETATM   12  C11 UNL     1      -8.043   8.553   7.121  1.00  0.00     0.030 C
BRANCH  12  13
HETATM   13  C12 UNL     1      -8.417   9.910   7.683  1.00  0.00     0.272 C
BRANCH  13  14
HETATM   14  N4  UNL     1      -8.537  10.849   6.607  1.00  0.00     0.088 N
HETATM   15  C13 UNL     1      -8.730  10.115   5.362  1.00  0.00     0.272 C
HETATM   16  C14 UNL     1     -10.055  10.423   4.760  1.00  0.00     0.030 C
HETATM   17  C15 UNL     1     -11.146  10.352   5.777  1.00  0.00     0.003 C
HETATM   18  C16 UNL     1     -10.918  11.286   6.917  1.00  0.00     0.030 C
HETATM   19  C17 UNL     1      -9.524  11.866   6.788  1.00  0.00     0.272 C
ENDBRANCH  13  14
ENDBRANCH  12  13
ENDBRANCH  11  12
ENDBRANCH  10  11
ENDBRANCH   9  10
ENDBRANCH   6   9
ENDBRANCH   3   5
BRANCH   1  20
HETATM   20  C5  UNL     1      -5.385   4.583  14.451  1.00  0.00     0.105 C
HETATM   21  C4  UNL     1      -6.517   3.592  14.769  1.00  0.00     0.024 C
HETATM   22  C3  UNL     1      -6.044   2.817  15.944  1.00  0.00     0.047 C
HETATM   23  C2  UNL     1      -6.891   1.667  16.367  1.00  0.00     0.278 C
HETATM   24  C19 UNL     1      -4.796   2.051  15.468  1.00  0.00     0.219 C
HETATM   25  N1  UNL     1      -5.949   0.927  17.224  1.00  0.00     0.086 N
HETATM   26  C1  UNL     1      -5.984   1.593  18.525  1.00  0.00     0.310 C
HETATM   27  C20 UNL     1      -4.629   1.103  16.597  1.00  0.00     0.305 C
HETATM   28  N5  UNL     1      -3.773   3.024  15.294  1.00  0.00    -0.068 N
HETATM   29  C18 UNL     1      -4.150   3.822  14.114  1.00  0.00     0.246 C
ATOM     30  H52 UNL     1      -2.839   2.620  15.225  1.00  0.00     0.277 HD
ATOM     31  H51 UNL     1      -3.608   3.589  16.126  1.00  0.00     0.277 HD
ENDBRANCH   1  20
TORSDOF 8
ENDMDL