MODEL 4
REMARK VINA RESULT: -6.478956268      1.194      1.474
REMARK  8 active torsions:
REMARK  status: ('A' for Active; 'I' for Inactive)
REMARK    1  A    between atoms: C2_2  and  N1_3
REMARK       I    between atoms: N1_3  and  C3_5
REMARK       I    between atoms: C3_5  and  N2_7
REMARK    2  A    between atoms: N3_10  and  C6_11
REMARK    3  A    between atoms: C6_11  and  C7_12
REMARK    4  A    between atoms: C9_14  and  N4_15
REMARK    5  A    between atoms: N4_15  and  C10_18
REMARK    6  A    between atoms: C10_18  and  C11_19
REMARK    7  A    between atoms: C11_19  and  N5_20
REMARK    8  A    between atoms: C11_19  and  C14_25
REMARK       I    between atoms: N5_20  and  C12_22
ROOT
HETATM    1  C7  UNL     1      -4.615   7.084  10.041  1.00  0.00     0.166 C
HETATM    2  C8  UNL     1      -5.093   6.387  11.325  1.00  0.00     0.098 C
HETATM    3  C9  UNL     1      -3.847   5.550  11.241  1.00  0.00     0.324 C
HETATM    4  O3  UNL     1      -3.738   6.009   9.905  1.00  0.00    -0.348 OA
ENDROOT
BRANCH   3   5
HETATM    5  N4  UNL     1      -4.055   4.123  11.203  1.00  0.00    -0.047 N
ATOM      6  H42 UNL     1      -5.051   3.905  11.166  1.00  0.00     0.280 HD
ATOM      7  H41 UNL     1      -3.764   3.741  10.304  1.00  0.00     0.280 HD
BRANCH   5   8
HETATM    8  C10 UNL     1      -3.418   3.413  12.290  1.00  0.00     0.261 C
BRANCH   8   9
HETATM    9  C11 UNL     1      -4.509   2.721  13.076  1.00  0.00     0.117 C
BRANCH   9  10
HETATM   10  N5  UNL     1      -4.177   1.308  13.094  1.00  0.00    -0.354 N
HETATM   11  C12 UNL     1      -4.544   0.391  12.098  1.00  0.00     0.213 C
HETATM   12  C13 UNL     1      -4.152  -1.020  12.222  1.00  0.00     0.117 C
HETATM   13  O2  UNL     1      -5.204   0.767  11.099  1.00  0.00    -0.274 OA
ATOM     14  H5  UNL     1      -3.641   0.957  13.887  1.00  0.00     0.162 HD
ENDBRANCH   9  10
BRANCH   9  15
HETATM   15  C14 UNL     1      -4.590   3.199  14.497  1.00  0.00    -0.029 C
HETATM   16  C15 UNL     1      -3.497   4.165  14.855  1.00  0.00     0.016 C
HETATM   17  C16 UNL     1      -4.572   2.060  15.490  1.00  0.00     0.016 C
HETATM   18  C17 UNL     1      -5.909   3.935  14.684  1.00  0.00     0.016 C
ENDBRANCH   9  15
ENDBRANCH   8   9
ENDBRANCH   5   8
ENDBRANCH   3   5
BRANCH   1  19
HETATM   19  C6  UNL     1      -5.746   7.107   9.063  1.00  0.00     0.090 C
BRANCH  19  20
HETATM   20  N3  UNL     1      -6.829   7.935   9.398  1.00  0.00    -0.388 N
HETATM   21  C5  UNL     1      -8.100   7.563   8.931  1.00  0.00     0.142 C
HETATM   22  C4  UNL     1      -8.228   8.038   7.474  1.00  0.00     0.147 C
HETATM   23  N2  UNL     1      -7.985   9.455   7.484  1.00  0.00    -0.331 N
HETATM   24  C3  UNL     1      -8.897  10.348   6.916  1.00  0.00     0.318 C
HETATM   25  C19 UNL     1      -6.738   9.906   8.113  1.00  0.00     0.147 C
HETATM   26  N1  UNL     1     -10.091   9.934   6.301  1.00  0.00    -0.343 N
HETATM   27  O1  UNL     1      -8.634  11.578   6.960  1.00  0.00    -0.247 OA
ATOM     28  H1  UNL     1     -10.330   8.943   6.251  1.00  0.00     0.164 HD
HETATM   29  C18 UNL     1      -6.646   9.321   9.531  1.00  0.00     0.142 C
BRANCH  26  30
HETATM   30  C2  UNL     1     -10.991  10.944   5.734  1.00  0.00     0.120 C
HETATM   31  C1  UNL     1     -11.842  10.282   4.693  1.00  0.00     0.026 C
ENDBRANCH  26  30
ENDBRANCH  19  20
ENDBRANCH   1  19
TORSDOF 8
ENDMDL