MODEL 4
REMARK VINA RESULT: -6.919482679      3.992      5.346
REMARK  8 active torsions:
REMARK  status: ('A' for Active; 'I' for Inactive)
REMARK    1  A    between atoms: N1_2  and  C3_4
REMARK    2  A    between atoms: C3_4  and  C4_5
REMARK    3  A    between atoms: C4_5  and  N2_6
REMARK    4  A    between atoms: C7_9  and  C8_10
REMARK    5  A    between atoms: C8_10  and  N3_11
REMARK    6  A    between atoms: N3_11  and  C9_13
REMARK    7  A    between atoms: C13_20  and  N6_21
REMARK    8  A    between atoms: C14_23  and  C15_24
ROOT
HETATM    1  C9  UNL     1      -4.320   4.510  13.082  1.00  0.00     0.679 A
HETATM    2  N4  UNL     1      -4.455   4.070  11.824  1.00  0.00    -0.200 N
ATOM      3  H4  UNL     1      -4.527   4.756  11.071  1.00  0.00     0.183 HD
HETATM    4  C10 UNL     1      -4.500   2.767  11.511  1.00  0.00     0.132 A
HETATM    5  C11 UNL     1      -4.396   1.860  12.580  1.00  0.00     0.105 A
HETATM    6  C12 UNL     1      -4.439   0.482  12.208  1.00  0.00     0.104 C
HETATM    7  N5  UNL     1      -4.469  -0.636  11.870  1.00  0.00    -0.191 NA
HETATM    8  C13 UNL     1      -4.257   2.262  13.879  1.00  0.00     0.142 A
HETATM    9  N8  UNL     1      -4.223   3.639  14.090  1.00  0.00    -0.175 N
ATOM     10  H8  UNL     1      -4.120   3.991  15.041  1.00  0.00     0.186 HD
ENDROOT
BRANCH   8  11
HETATM   11  N6  UNL     1      -4.166   1.511  14.845  1.00  0.00    -0.354 N
HETATM   12  C14 UNL     1      -4.468   1.405  16.161  1.00  0.00     0.069 C
ATOM     13  H6  UNL     1      -3.691   0.659  14.551  1.00  0.00     0.166 HD
BRANCH  12  14
HETATM   14  C15 UNL     1      -5.835   0.794  16.465  1.00  0.00     0.051 C
HETATM   15  C16 UNL     1      -6.867   1.833  16.138  1.00  0.00     0.039 C
HETATM   16  C17 UNL     1      -6.761   2.758  17.331  1.00  0.00     0.233 C
HETATM   17  N7  UNL     1      -6.300   1.990  18.454  1.00  0.00    -0.074 N
HETATM   18  C18 UNL     1      -5.899   0.681  17.975  1.00  0.00     0.242 C
ATOM     19  H72 UNL     1      -5.560   2.461  18.974  1.00  0.00     0.277 HD
ATOM     20  H71 UNL     1      -6.988   1.940  19.206  1.00  0.00     0.277 HD
ENDBRANCH  12  14
ENDBRANCH   8  11
BRANCH   1  21
HETATM   21  N3  UNL     1      -4.278   5.765  13.342  1.00  0.00    -0.226 N
ATOM     22  H3  UNL     1      -4.732   6.364  12.653  1.00  0.00     0.177 HD
BRANCH  21  23
HETATM   23  C8  UNL     1      -3.700   6.443  14.438  1.00  0.00     0.142 C
BRANCH  23  24
HETATM   24  C7  UNL     1      -2.396   7.162  14.118  1.00  0.00     0.007 C
HETATM   25  C6  UNL     1      -2.527   7.803  12.765  1.00  0.00     0.036 C
HETATM   26  C5  UNL     1      -1.275   8.615  12.532  1.00  0.00     0.273 C
HETATM   27  N2  UNL     1      -1.144   9.710  13.441  1.00  0.00     0.090 N
HETATM   28  C20 UNL     1      -1.829   9.564  14.680  1.00  0.00     0.273 C
HETATM   29  C19 UNL     1      -2.142   8.201  15.142  1.00  0.00     0.036 C
BRANCH  27  30
HETATM   30  C4  UNL     1      -1.350  10.999  12.816  1.00  0.00     0.302 C
BRANCH  30  31
HETATM   31  C3  UNL     1      -1.913  11.937  13.825  1.00  0.00     0.301 C
BRANCH  31  32
HETATM   32  N1  UNL     1      -1.120  13.124  14.026  1.00  0.00     0.081 N
HETATM   33  C1  UNL     1      -0.693  13.762  12.821  1.00  0.00     0.309 C
HETATM   34  C2  UNL     1       0.022  12.848  14.878  1.00  0.00     0.309 C
ENDBRANCH  31  32
ENDBRANCH  30  31
ENDBRANCH  27  30
ENDBRANCH  23  24
ENDBRANCH  21  23
ENDBRANCH   1  21
TORSDOF 8
ENDMDL