MODEL 2
REMARK VINA RESULT: -8.284479994      0.722      1.115
REMARK  9 active torsions:
REMARK  status: ('A' for Active; 'I' for Inactive)
REMARK    1  A    between atoms: C2_2  and  O1_3
REMARK    2  A    between atoms: C2_2  and  C9_17
REMARK    3  A    between atoms: O1_3  and  N1_4
REMARK    4  A    between atoms: N2_6  and  O2_7
REMARK    5  A    between atoms: N2_6  and  N3_9
REMARK    6  A    between atoms: N3_9  and  C3_11
REMARK       I    between atoms: C9_17  and  N4_19
REMARK    7  A    between atoms: N4_19  and  C10_21
REMARK    8  A    between atoms: C10_21  and  C11_22
REMARK    9  A    between atoms: C10_21  and  C13_29
REMARK       I    between atoms: C11_22  and  N5_24
ROOT
HETATM    1  C1  UNL     1      -1.665   4.407  10.368  1.00  0.00     0.052 C
HETATM    2  C2  UNL     1      -3.102   4.703  10.106  1.00  0.00     0.241 C
ENDROOT
BRANCH   2   3
HETATM    3  O1  UNL     1      -3.427   4.289   8.800  1.00  0.00    -0.247 OA
BRANCH   3   4
HETATM    4  N1  UNL     1      -3.071   4.934   7.669  1.00  0.00    -0.165 N
HETATM    5  N2  UNL     1      -3.787   5.675   6.960  1.00  0.00    -0.079 N
ATOM      6  H1  UNL     1      -2.109   4.802   7.357  1.00  0.00     0.220 HD
BRANCH   5   7
HETATM    7  O2  UNL     1      -3.181   6.228   5.833  1.00  0.00    -0.252 OA
ATOM      8  H2  UNL     1      -3.496   7.081   5.560  1.00  0.00     0.248 HD
ENDBRANCH   5   7
BRANCH   5   9
HETATM    9  N3  UNL     1      -5.109   6.000   7.177  1.00  0.00    -0.289 N
ATOM     10  H3  UNL     1      -5.818   5.405   6.747  1.00  0.00     0.184 HD
BRANCH   9  11
HETATM   11  C3  UNL     1      -5.564   7.116   7.964  1.00  0.00     0.103 C
HETATM   12  C4  UNL     1      -6.593   7.929   7.211  1.00  0.00     0.027 C
HETATM   13  C5  UNL     1      -7.977   7.467   7.624  1.00  0.00     0.002 C
HETATM   14  C6  UNL     1      -8.201   7.865   9.053  1.00  0.00     0.000 C
HETATM   15  C7  UNL     1      -6.924   7.854   9.840  1.00  0.00     0.002 C
HETATM   16  C8  UNL     1      -6.028   6.716   9.336  1.00  0.00     0.027 C
ENDBRANCH   9  11
ENDBRANCH   5   9
ENDBRANCH   3   4
ENDBRANCH   2   3
BRANCH   2  17
HETATM   17  C9  UNL     1      -4.014   4.179  11.126  1.00  0.00     0.249 C
HETATM   18  O3  UNL     1      -4.874   3.333  10.754  1.00  0.00    -0.271 OA
HETATM   19  N4  UNL     1      -3.996   4.556  12.489  1.00  0.00    -0.345 N
ATOM     20  H4  UNL     1      -3.305   5.239  12.798  1.00  0.00     0.163 HD
BRANCH  19  21
HETATM   21  C10 UNL     1      -4.918   4.012  13.460  1.00  0.00     0.184 C
BRANCH  21  22
HETATM   22  C11 UNL     1      -4.257   3.018  14.343  1.00  0.00     0.247 C
HETATM   23  O4  UNL     1      -3.352   3.385  15.138  1.00  0.00    -0.271 OA
HETATM   24  N5  UNL     1      -4.630   1.673  14.299  1.00  0.00    -0.302 N
HETATM   25  C12 UNL     1      -4.405   0.792  15.192  1.00  0.00     0.203 C
ATOM     26  H5  UNL     1      -5.133   1.363  13.468  1.00  0.00     0.171 HD
HETATM   27  N6  UNL     1      -4.870  -0.532  14.958  1.00  0.00    -0.066 NA
HETATM   28  N7  UNL     1      -3.719   1.048  16.408  1.00  0.00    -0.066 NA
ENDBRANCH  21  22
BRANCH  21  29
HETATM   29  C13 UNL     1      -5.574   5.110  14.276  1.00  0.00    -0.022 C
HETATM   30  C14 UNL     1      -4.574   6.143  14.728  1.00  0.00     0.017 C
HETATM   31  C15 UNL     1      -6.391   4.533  15.406  1.00  0.00     0.017 C
HETATM   32  C16 UNL     1      -6.557   5.863  13.366  1.00  0.00     0.017 C
ENDBRANCH  21  29
ENDBRANCH  19  21
ENDBRANCH   2  17
TORSDOF 9
ENDMDL