MODEL 3
REMARK VINA RESULT: -7.333897221      0.910      1.274
REMARK  7 active torsions:
REMARK  status: ('A' for Active; 'I' for Inactive)
REMARK    1  A    between atoms: C2_2  and  C4_4
REMARK    2  A    between atoms: C4_4  and  N1_5
REMARK    3  A    between atoms: C7_8  and  C8_9
REMARK    4  A    between atoms: C8_9  and  N2_10
REMARK    5  A    between atoms: N2_10  and  O1_11
REMARK    6  A    between atoms: N2_10  and  C9_13
REMARK    7  A    between atoms: C17_24  and  C18_25
ROOT
HETATM    1  C9  UNL     1      -4.721   3.487  13.253  1.00  0.00     0.119 C
HETATM    2  C10 UNL     1      -4.735   4.048  14.665  1.00  0.00     0.033 C
HETATM    3  C11 UNL     1      -4.934   3.070  15.753  1.00  0.00     0.037 C
HETATM    4  C12 UNL     1      -6.352   2.947  16.261  1.00  0.00     0.243 C
HETATM    5  N3  UNL     1      -6.386   1.665  16.920  1.00  0.00    -0.072 N
HETATM    6  C13 UNL     1      -7.682   1.021  16.804  1.00  0.00     0.272 C
HETATM    7  C14 UNL     1      -5.986   1.861  18.309  1.00  0.00     0.272 C
HETATM    8  C15 UNL     1      -5.423   0.805  16.327  1.00  0.00     0.261 C
HETATM    9  C16 UNL     1      -4.474   1.678  15.526  1.00  0.00     0.109 C
HETATM   10  N4  UNL     1      -4.498   1.199  14.210  1.00  0.00    -0.401 N
ATOM     11  H4  UNL     1      -4.133   0.274  13.980  1.00  0.00     0.154 HD
HETATM   12  C17 UNL     1      -5.055   2.056  13.190  1.00  0.00     0.199 C
ENDROOT
BRANCH   1  13
HETATM   13  N2  UNL     1      -3.515   3.854  12.639  1.00  0.00    -0.192 NA
BRANCH  13  14
HETATM   14  C8  UNL     1      -3.379   5.112  12.075  1.00  0.00     0.125 C
BRANCH  14  15
HETATM   15  C7  UNL     1      -4.593   5.534  11.235  1.00  0.00     0.004 C
HETATM   16  C6  UNL     1      -4.140   5.764   9.811  1.00  0.00     0.036 C
HETATM   17  C5  UNL     1      -5.033   6.541   8.972  1.00  0.00     0.273 C
HETATM   18  N1  UNL     1      -5.842   7.581   9.502  1.00  0.00     0.088 N
HETATM   19  C20 UNL     1      -5.928   7.596  10.933  1.00  0.00     0.273 C
HETATM   20  C19 UNL     1      -4.854   6.996  11.710  1.00  0.00     0.036 C
BRANCH  18  21
HETATM   21  C4  UNL     1      -5.375   8.883   9.007  1.00  0.00     0.276 C
BRANCH  21  22
HETATM   22  C2  UNL     1      -5.335   9.944  10.033  1.00  0.00     0.006 C
HETATM   23  C1  UNL     1      -6.301  11.077   9.852  1.00  0.00     0.011 C
HETATM   24  C3  UNL     1      -3.916  10.393  10.300  1.00  0.00     0.011 C
ENDBRANCH  21  22
ENDBRANCH  18  21
ENDBRANCH  14  15
ENDBRANCH  13  14
BRANCH  13  25
HETATM   25  O1  UNL     1      -2.459   3.594  13.444  1.00  0.00    -0.313 OA
ATOM     26  H1  UNL     1      -2.764   3.246  14.274  1.00  0.00     0.237 HD
ENDBRANCH  13  25
ENDBRANCH   1  13
BRANCH  12  27
HETATM   27  C18 UNL     1      -4.829   1.417  11.908  1.00  0.00     0.198 C
HETATM   28  O2  UNL     1      -4.293   0.215  11.891  1.00  0.00    -0.646 OA
HETATM   29  O3  UNL     1      -5.125   1.955  10.676  1.00  0.00    -0.646 OA
ENDBRANCH  12  27
TORSDOF 7
ENDMDL