MODEL 5
REMARK VINA RESULT: -6.706904371      1.864      6.999
REMARK  10 active torsions:
REMARK  status: ('A' for Active; 'I' for Inactive)
REMARK    1  A    between atoms: C2_2  and  C4_4
REMARK    2  A    between atoms: C4_4  and  N1_5
REMARK    3  A    between atoms: C4_4  and  C5_9
REMARK    4  A    between atoms: C5_9  and  C6_10
REMARK    5  A    between atoms: C6_10  and  O2_12
REMARK    6  A    between atoms: O2_12  and  C7_13
REMARK    7  A    between atoms: C7_13  and  C9_15
REMARK    8  A    between atoms: C9_15  and  N2_16
REMARK    9  A    between atoms: C9_15  and  C17_26
REMARK       I    between atoms: N2_16  and  C10_18
REMARK   10  A    between atoms: C10_18  and  C11_20
REMARK       I    between atoms: C17_26  and  N3_28
ROOT
HETATM    1  C9  UNL     1      -5.019   1.621  12.007  1.00  0.00     0.205 C
ENDROOT
BRANCH   1   2
HETATM    2  C7  UNL     1      -4.134   2.665  11.353  1.00  0.00     0.159 C
HETATM    3  C8  UNL     1      -3.084   3.197  12.306  1.00  0.00     0.042 C
BRANCH   2   4
HETATM    4  O2  UNL     1      -4.952   3.673  10.848  1.00  0.00    -0.314 OA
BRANCH   4   5
HETATM    5  C6  UNL     1      -4.443   4.707  10.046  1.00  0.00     0.261 C
HETATM    6  O1  UNL     1      -3.759   4.325   9.064  1.00  0.00    -0.265 OA
BRANCH   5   7
HETATM    7  C5  UNL     1      -4.720   6.120  10.375  1.00  0.00     0.148 C
BRANCH   7   8
HETATM    8  C4  UNL     1      -5.646   6.796   9.437  1.00  0.00     0.220 C
BRANCH   8   9
HETATM    9  C2  UNL     1      -6.929   7.253   9.999  1.00  0.00    -0.063 C
HETATM   10  C1  UNL     1      -7.196   7.423  11.280  1.00  0.00     0.016 C
HETATM   11  C3  UNL     1      -8.056   7.593   9.038  1.00  0.00     0.044 C
ENDBRANCH   8   9
BRANCH   8  12
HETATM   12  N1  UNL     1      -5.000   7.933   8.760  1.00  0.00    -0.071 N
ATOM     13  H13 UNL     1      -5.593   8.762   8.736  1.00  0.00     0.275 HD
ATOM     14  H12 UNL     1      -4.231   8.326   9.302  1.00  0.00     0.275 HD
ATOM     15  H11 UNL     1      -4.709   7.633   7.829  1.00  0.00     0.275 HD
ENDBRANCH   8  12
ENDBRANCH   7   8
ENDBRANCH   5   7
ENDBRANCH   4   5
ENDBRANCH   2   4
ENDBRANCH   1   2
BRANCH   1  16
HETATM   16  N2  UNL     1      -4.842   1.633  13.423  1.00  0.00    -0.345 N
HETATM   17  C10 UNL     1      -5.619   2.437  14.286  1.00  0.00     0.222 C
HETATM   18  O3  UNL     1      -6.500   3.171  13.778  1.00  0.00    -0.273 OA
ATOM     19  H2  UNL     1      -4.123   1.034  13.830  1.00  0.00     0.163 HD
BRANCH  17  20
HETATM   20  C11 UNL     1      -5.445   2.458  15.761  1.00  0.00     0.078 C
HETATM   21  C12 UNL     1      -6.430   3.349  16.428  1.00  0.00     0.014 C
HETATM   22  C13 UNL     1      -7.353   2.468  17.273  1.00  0.00     0.001 C
HETATM   23  C14 UNL     1      -6.435   1.965  18.397  1.00  0.00     0.000 C
HETATM   24  C15 UNL     1      -5.528   0.964  17.792  1.00  0.00     0.001 C
HETATM   25  C16 UNL     1      -5.334   1.072  16.318  1.00  0.00     0.014 C
ENDBRANCH  17  20
ENDBRANCH   1  16
BRANCH   1  26
HETATM   26  C17 UNL     1      -4.670   0.315  11.392  1.00  0.00     0.242 C
HETATM   27  O4  UNL     1      -4.826   0.222  10.151  1.00  0.00    -0.271 OA
HETATM   28  N3  UNL     1      -4.187  -0.787  12.117  1.00  0.00    -0.364 N
HETATM   29  C18 UNL     1      -3.874  -2.013  11.438  1.00  0.00     0.149 C
ATOM     30  H3  UNL     1      -4.058  -0.716  13.126  1.00  0.00     0.161 HD
ENDBRANCH   1  26
TORSDOF 10
ENDMDL