MODEL 3
REMARK VINA RESULT: -6.452074098      2.424      3.916
REMARK  10 active torsions:
REMARK  status: ('A' for Active; 'I' for Inactive)
REMARK    1  A    between atoms: C2_2  and  C4_4
REMARK    2  A    between atoms: C4_4  and  N1_6
REMARK    3  A    between atoms: N1_6  and  C6_8
REMARK    4  A    between atoms: C6_8  and  O1_9
REMARK    5  A    between atoms: C6_8  and  C7_11
REMARK    6  A    between atoms: C7_11  and  C8_12
REMARK    7  A    between atoms: C8_12  and  C9_13
REMARK       I    between atoms: C9_13  and  N2_15
REMARK    8  A    between atoms: N2_15  and  C10_17
REMARK    9  A    between atoms: C10_17  and  C11_18
REMARK       I    between atoms: C11_18  and  N3_20
REMARK   10  A    between atoms: N3_20  and  N4_22
ROOT
HETATM    1  N4  UNL     1      -6.046   2.001  16.307  1.00  0.00    -0.230 N
HETATM    2  C12 UNL     1      -7.219   1.257  16.744  1.00  0.00     0.191 C
HETATM    3  C13 UNL     1      -4.831   1.338  16.246  1.00  0.00     0.200 C
HETATM    4  N5  UNL     1      -3.818   0.766  16.174  1.00  0.00    -0.170 NA
ENDROOT
BRANCH   1   5
HETATM    5  N3  UNL     1      -6.176   3.325  15.959  1.00  0.00    -0.258 N
HETATM    6  C11 UNL     1      -6.136   3.777  14.651  1.00  0.00     0.254 C
HETATM    7  O3  UNL     1      -5.954   2.965  13.663  1.00  0.00    -0.270 OA
ATOM      8  H3  UNL     1      -6.307   4.010  16.703  1.00  0.00     0.191 HD
BRANCH   6   9
HETATM    9  C10 UNL     1      -6.302   5.209  14.317  1.00  0.00     0.227 C
BRANCH   9  10
HETATM   10  N2  UNL     1      -5.623   5.632  13.126  1.00  0.00    -0.352 N
HETATM   11  C9  UNL     1      -6.353   6.362  12.159  1.00  0.00     0.227 C
HETATM   12  O2  UNL     1      -7.562   6.658  12.315  1.00  0.00    -0.273 OA
ATOM     13  H2  UNL     1      -4.637   5.412  12.980  1.00  0.00     0.162 HD
BRANCH  11  14
HETATM   14  C8  UNL     1      -5.619   6.791  10.908  1.00  0.00     0.048 C
HETATM   15  C14 UNL     1      -5.514   8.267  10.908  1.00  0.00     0.020 C
HETATM   16  C15 UNL     1      -6.370   8.802   9.799  1.00  0.00     0.001 C
HETATM   17  C16 UNL     1      -7.055   7.610   9.166  1.00  0.00     0.001 C
HETATM   18  C17 UNL     1      -6.478   6.364   9.766  1.00  0.00     0.020 C
BRANCH  14  19
HETATM   19  C7  UNL     1      -4.287   6.066  10.990  1.00  0.00     0.103 C
BRANCH  19  20
HETATM   20  C6  UNL     1      -4.238   4.798  10.281  1.00  0.00     0.112 C
BRANCH  20  21
HETATM   21  N1  UNL     1      -3.602   4.632   9.068  1.00  0.00    -0.370 N
ATOM     22  H1  UNL     1      -3.856   3.810   8.519  1.00  0.00     0.161 HD
BRANCH  21  23
HETATM   23  C4  UNL     1      -2.587   5.540   8.494  1.00  0.00     0.082 C
HETATM   24  C5  UNL     1      -1.305   4.799   8.255  1.00  0.00     0.032 C
BRANCH  23  25
HETATM   25  C2  UNL     1      -3.105   6.361   7.380  1.00  0.00    -0.000 C
HETATM   26  C1  UNL     1      -4.325   5.714   6.778  1.00  0.00     0.011 C
HETATM   27  C3  UNL     1      -3.465   7.776   7.746  1.00  0.00     0.011 C
ENDBRANCH  23  25
ENDBRANCH  21  23
ENDBRANCH  20  21
BRANCH  20  28
HETATM   28  O1  UNL     1      -4.823   3.739  10.788  1.00  0.00    -0.350 OA
ATOM     29  H1  UNL     1      -5.662   3.496  10.415  1.00  0.00     0.219 HD
ENDBRANCH  20  28
ENDBRANCH  19  20
ENDBRANCH  14  19
ENDBRANCH  11  14
ENDBRANCH   9  10
ENDBRANCH   6   9
ENDBRANCH   1   5
TORSDOF 10
ENDMDL