MODEL 1
REMARK VINA RESULT: -7.080235286      0.000      0.000
REMARK  9 active torsions:
REMARK  status: ('A' for Active; 'I' for Inactive)
REMARK    1  A    between atoms: C2_2  and  O1_3
REMARK    2  A    between atoms: O1_3  and  C3_4
REMARK    3  A    between atoms: C3_4  and  C4_6
REMARK    4  A    between atoms: C4_6  and  N1_7
REMARK       I    between atoms: N1_7  and  C5_9
REMARK    5  A    between atoms: C5_9  and  C6_11
REMARK    6  A    between atoms: C6_11  and  C7_12
REMARK    7  A    between atoms: C6_11  and  N2_16
REMARK    8  A    between atoms: C7_12  and  C8_13
REMARK       I    between atoms: N2_16  and  C11_18
REMARK       I    between atoms: C11_18  and  N3_20
REMARK    9  A    between atoms: N3_20  and  C12_22
ROOT
HETATM    1  N1  UNL     1      -4.995   3.177  15.363  1.00  0.00    -0.339 N
ATOM      2  H1  UNL     1      -4.277   3.644  15.916  1.00  0.00     0.164 HD
HETATM    3  C5  UNL     1      -5.456   3.863  14.221  1.00  0.00     0.241 C
HETATM    4  O3  UNL     1      -6.345   3.311  13.531  1.00  0.00    -0.271 OA
ENDROOT
BRANCH   3   5
HETATM    5  C6  UNL     1      -4.970   5.188  13.770  1.00  0.00     0.178 C
BRANCH   5   6
HETATM    6  C7  UNL     1      -4.205   5.963  14.760  1.00  0.00     0.038 C
BRANCH   6   7
HETATM    7  C8  UNL     1      -3.089   6.821  14.355  1.00  0.00    -0.020 C
HETATM    8  C9  UNL     1      -2.796   7.992  15.285  1.00  0.00     0.009 C
HETATM    9  C10 UNL     1      -1.814   6.175  13.939  1.00  0.00     0.009 C
ENDBRANCH   6   7
ENDBRANCH   5   6
BRANCH   5  10
HETATM   10  N2  UNL     1      -5.995   5.928  13.073  1.00  0.00    -0.330 N
HETATM   11  C11 UNL     1      -5.921   6.329  11.716  1.00  0.00     0.317 C
HETATM   12  O4  UNL     1      -4.895   6.024  11.068  1.00  0.00    -0.247 OA
HETATM   13  N3  UNL     1      -6.938   7.052  11.058  1.00  0.00    -0.339 N
ATOM     14  H3  UNL     1      -7.782   7.308  11.571  1.00  0.00     0.164 HD
ATOM     15  H2  UNL     1      -6.834   6.180  13.596  1.00  0.00     0.165 HD
BRANCH  13  16
HETATM   16  C12 UNL     1      -6.808   7.431   9.684  1.00  0.00     0.086 A
HETATM   17  C13 UNL     1      -7.162   8.781   9.235  1.00  0.00     0.027 A
HETATM   18  C14 UNL     1      -8.118   7.639   8.943  1.00  0.00     0.027 A
ENDBRANCH  13  16
ENDBRANCH   5  10
ENDBRANCH   3   5
BRANCH   1  19
HETATM   19  C4  UNL     1      -5.425   1.906  15.824  1.00  0.00     0.144 C
HETATM   20  C15 UNL     1      -5.271   1.770  17.347  1.00  0.00     0.070 C
HETATM   21  C16 UNL     1      -6.303   0.714  17.634  1.00  0.00     0.170 C
HETATM   22  O5  UNL     1      -7.074   0.541  16.509  1.00  0.00    -0.388 OA
HETATM   23  C17 UNL     1      -6.916   1.665  15.703  1.00  0.00     0.209 C
BRANCH  19  24
HETATM   24  C3  UNL     1      -4.636   0.824  15.238  1.00  0.00     0.289 C
HETATM   25  O2  UNL     1      -3.716   0.291  15.904  1.00  0.00    -0.262 OA
BRANCH  24  26
HETATM   26  O1  UNL     1      -4.828   0.318  13.958  1.00  0.00    -0.320 OA
BRANCH  26  27
HETATM   27  C2  UNL     1      -4.100   0.702  12.831  1.00  0.00     0.174 C
HETATM   28  C1  UNL     1      -4.887   0.717  11.562  1.00  0.00     0.034 C
ENDBRANCH  26  27
ENDBRANCH  24  26
ENDBRANCH  19  24
ENDBRANCH   1  19
TORSDOF 9
ENDMDL