MODEL 3
REMARK VINA RESULT: -6.623757250      1.344      1.724
REMARK  8 active torsions:
REMARK  status: ('A' for Active; 'I' for Inactive)
REMARK       I    between atoms: C2_2  and  N1_4
REMARK    1  A    between atoms: N1_4  and  C3_6
REMARK    2  A    between atoms: C3_6  and  C5_8
REMARK       I    between atoms: C5_8  and  N2_10
REMARK    3  A    between atoms: N2_10  and  C6_12
REMARK    4  A    between atoms: C6_12  and  C7_13
REMARK    5  A    between atoms: C6_12  and  C11_17
REMARK    6  A    between atoms: C7_13  and  C8_14
REMARK       I    between atoms: C11_17  and  N3_19
REMARK    7  A    between atoms: N3_19  and  C12_21
REMARK    8  A    between atoms: C12_21  and  C13_22
ROOT
HETATM    1  C6  UNL     1      -4.243   5.525  13.314  1.00  0.00     0.177 C
ENDROOT
BRANCH   1   2
HETATM    2  N2  UNL     1      -4.311   4.190  13.833  1.00  0.00    -0.346 N
HETATM    3  C5  UNL     1      -4.096   3.030  13.049  1.00  0.00     0.240 C
HETATM    4  O2  UNL     1      -3.823   3.109  11.806  1.00  0.00    -0.271 OA
ATOM      5  H2  UNL     1      -4.526   4.069  14.823  1.00  0.00     0.163 HD
BRANCH   3   6
HETATM    6  C3  UNL     1      -4.173   1.658  13.619  1.00  0.00     0.172 C
HETATM    7  C4  UNL     1      -4.455   0.666  12.497  1.00  0.00     0.042 C
BRANCH   6   8
HETATM    8  N1  UNL     1      -5.184   1.544  14.632  1.00  0.00    -0.349 N
HETATM    9  C2  UNL     1      -4.854   1.064  15.928  1.00  0.00     0.214 C
HETATM   10  C1  UNL     1      -5.910   0.951  16.974  1.00  0.00     0.117 C
HETATM   11  O1  UNL     1      -3.671   0.723  16.232  1.00  0.00    -0.274 OA
ATOM     12  H1  UNL     1      -6.146   1.809  14.421  1.00  0.00     0.163 HD
ENDBRANCH   6   8
ENDBRANCH   3   6
ENDBRANCH   1   2
BRANCH   1  13
HETATM   13  C7  UNL     1      -3.946   6.565  14.321  1.00  0.00     0.038 C
BRANCH  13  14
HETATM   14  C8  UNL     1      -2.636   7.236  14.290  1.00  0.00    -0.020 C
HETATM   15  C9  UNL     1      -2.402   8.343  15.254  1.00  0.00     0.009 C
HETATM   16  C10 UNL     1      -2.474   7.835  12.885  1.00  0.00     0.009 C
ENDBRANCH  13  14
ENDBRANCH   1  13
BRANCH   1  17
HETATM   17  C11 UNL     1      -5.393   5.845  12.450  1.00  0.00     0.240 C
HETATM   18  O3  UNL     1      -6.573   5.959  12.904  1.00  0.00    -0.271 OA
HETATM   19  N3  UNL     1      -5.213   6.035  11.064  1.00  0.00    -0.358 N
ATOM     20  H3  UNL     1      -4.274   5.947  10.676  1.00  0.00     0.162 HD
BRANCH  19  21
HETATM   21  C12 UNL     1      -6.310   6.352  10.168  1.00  0.00     0.137 C
BRANCH  21  22
HETATM   22  C13 UNL     1      -6.024   7.648   9.489  1.00  0.00     0.065 C
HETATM   23  C14 UNL     1      -6.445   8.831  10.352  1.00  0.00     0.017 C
HETATM   24  C15 UNL     1      -5.649  10.023   9.857  1.00  0.00     0.011 C
HETATM   25  C16 UNL     1      -4.176   9.651  10.076  1.00  0.00     0.074 C
HETATM   26  S1  UNL     1      -4.211   7.937   9.413  1.00  0.00    -0.163 SA
ENDBRANCH  21  22
ENDBRANCH  19  21
ENDBRANCH   1  17
TORSDOF 8
ENDMDL