MODEL 5
REMARK VINA RESULT: -7.462186134      3.189      4.982
REMARK  9 active torsions:
REMARK  status: ('A' for Active; 'I' for Inactive)
REMARK    1  A    between atoms: C1_2  and  C2_3
REMARK       I    between atoms: C1_2  and  N3_21
REMARK    2  A    between atoms: C2_3  and  O2_4
REMARK    3  A    between atoms: O2_4  and  C3_5
REMARK    4  A    between atoms: C3_5  and  C4_6
REMARK       I    between atoms: C4_6  and  N1_8
REMARK    5  A    between atoms: N1_8  and  N2_10
REMARK       I    between atoms: N2_10  and  C5_12
REMARK    6  A    between atoms: C5_12  and  C6_14
REMARK    7  A    between atoms: C6_14  and  C7_15
REMARK    8  A    between atoms: N3_21  and  C13_23
REMARK    9  A    between atoms: C13_23  and  C14_24
ROOT
HETATM    1  C4  UNL     1      -4.623   1.518  11.797  1.00  0.00     0.259 C
HETATM    2  O3  UNL     1      -5.729   1.434  11.253  1.00  0.00    -0.269 OA
HETATM    3  N1  UNL     1      -3.921   2.753  11.793  1.00  0.00    -0.266 N
ATOM      4  H1  UNL     1      -3.009   2.835  12.240  1.00  0.00     0.190 HD
ENDROOT
BRANCH   1   5
HETATM    5  C3  UNL     1      -3.990   0.362  12.464  1.00  0.00     0.272 C
BRANCH   5   6
HETATM    6  O2  UNL     1      -4.765  -0.232  13.411  1.00  0.00    -0.373 OA
BRANCH   6   7
HETATM    7  C2  UNL     1      -4.273  -0.292  14.679  1.00  0.00     0.271 C
BRANCH   7   8
HETATM    8  C1  UNL     1      -4.478   1.053  15.351  1.00  0.00     0.245 C
HETATM    9  O1  UNL     1      -3.681   1.270  16.280  1.00  0.00    -0.271 OA
HETATM   10  N3  UNL     1      -5.485   1.888  14.898  1.00  0.00    -0.333 N
ATOM     11  H3  UNL     1      -6.021   1.522  14.111  1.00  0.00     0.168 HD
BRANCH  10  12
HETATM   12  C13 UNL     1      -5.890   3.160  15.346  1.00  0.00     0.123 C
BRANCH  12  13
HETATM   13  C14 UNL     1      -5.048   4.344  15.218  1.00  0.00     0.061 C
HETATM   14  C15 UNL     1      -5.559   5.697  14.991  1.00  0.00     0.068 C
HETATM   15  C16 UNL     1      -4.249   6.486  14.736  1.00  0.00     0.033 C
HETATM   16  C17 UNL     1      -3.343   5.408  14.257  1.00  0.00     0.175 C
HETATM   17  O5  UNL     1      -3.949   4.173  14.360  1.00  0.00    -0.354 OA
ENDBRANCH  12  13
ENDBRANCH  10  12
ENDBRANCH   7   8
ENDBRANCH   6   7
ENDBRANCH   5   6
ENDBRANCH   1   5
BRANCH   3  18
HETATM   18  N2  UNL     1      -4.512   3.848  11.165  1.00  0.00    -0.267 N
HETATM   19  C5  UNL     1      -3.738   4.945  10.712  1.00  0.00     0.236 C
HETATM   20  O4  UNL     1      -2.500   4.894  10.892  1.00  0.00    -0.272 OA
ATOM     21  H2  UNL     1      -5.522   3.860  11.028  1.00  0.00     0.190 HD
BRANCH  19  22
HETATM   22  C6  UNL     1      -4.421   6.067  10.064  1.00  0.00     0.109 C
BRANCH  22  23
HETATM   23  C7  UNL     1      -4.860   7.170  10.968  1.00  0.00    -0.006 C
HETATM   24  C8  UNL     1      -4.901   8.516  10.332  1.00  0.00     0.005 C
HETATM   25  C9  UNL     1      -5.947   8.606   9.235  1.00  0.00     0.000 C
HETATM   26  C10 UNL     1      -7.258   8.015   9.638  1.00  0.00     0.000 C
HETATM   27  C11 UNL     1      -7.338   7.600  11.078  1.00  0.00     0.000 C
HETATM   28  C12 UNL     1      -6.195   6.777  11.567  1.00  0.00     0.005 C
ENDBRANCH  22  23
ENDBRANCH  19  22
ENDBRANCH   3  18
TORSDOF 9
ENDMDL