MODEL 5
REMARK VINA RESULT: -6.707371607      3.077      4.586
REMARK  11 active torsions:
REMARK  status: ('A' for Active; 'I' for Inactive)
REMARK    1  A    between atoms: C2_2  and  C3_3
REMARK    2  A    between atoms: C2_2  and  C9_16
REMARK    3  A    between atoms: C4_4  and  O1_5
REMARK    4  A    between atoms: O1_5  and  C5_6
REMARK    5  A    between atoms: C5_6  and  C6_7
REMARK    6  A    between atoms: C6_7  and  O2_8
REMARK    7  A    between atoms: C6_7  and  C7_10
REMARK    8  A    between atoms: C7_10  and  O3_11
REMARK    9  A    between atoms: C7_10  and  C8_13
REMARK   10  A    between atoms: C8_13  and  O4_14
REMARK   11  A    between atoms: C9_16  and  N1_17
ROOT
HETATM    1  C1  UNL     1      -3.443   6.905  14.538  1.00  0.00     0.045 C
HETATM    2  C2  UNL     1      -4.335   6.008  13.791  1.00  0.00    -0.056 C
ENDROOT
BRANCH   2   3
HETATM    3  C3  UNL     1      -5.337   5.383  14.391  1.00  0.00     0.028 C
HETATM    4  C4  UNL     1      -5.724   4.054  14.713  1.00  0.00     0.135 C
BRANCH   4   5
HETATM    5  O1  UNL     1      -5.078   2.934  14.424  1.00  0.00    -0.360 OA
BRANCH   5   6
HETATM    6  C5  UNL     1      -5.383   1.743  15.002  1.00  0.00     0.208 C
BRANCH   6   7
HETATM    7  C6  UNL     1      -4.691   1.573  16.361  1.00  0.00     0.173 C
BRANCH   7   8
HETATM    8  O2  UNL     1      -3.617   0.726  16.264  1.00  0.00    -0.391 OA
ATOM      9  H2  UNL     1      -3.076   0.771  17.043  1.00  0.00     0.210 HD
ENDBRANCH   7   8
BRANCH   7  10
HETATM   10  C7  UNL     1      -5.760   1.013  17.303  1.00  0.00     0.172 C
BRANCH  10  11
HETATM   11  O3  UNL     1      -5.870  -0.360  17.086  1.00  0.00    -0.391 OA
ATOM     12  H3  UNL     1      -6.782  -0.610  17.181  1.00  0.00     0.210 HD
ENDBRANCH  10  11
BRANCH  10  13
HETATM   13  C8  UNL     1      -7.086   1.708  17.063  1.00  0.00     0.198 C
BRANCH  13  14
HETATM   14  O4  UNL     1      -8.048   0.716  16.903  1.00  0.00    -0.398 OA
ATOM     15  H4  UNL     1      -7.675   0.052  16.335  1.00  0.00     0.209 HD
ENDBRANCH  13  14
ENDBRANCH  10  13
ENDBRANCH   7  10
ENDBRANCH   6   7
ENDBRANCH   5   6
ENDBRANCH   4   5
ENDBRANCH   2   3
BRANCH   2  16
HETATM   16  C9  UNL     1      -4.122   5.669  12.361  1.00  0.00     0.271 C
BRANCH  16  17
HETATM   17  N1  UNL     1      -4.626   6.503  11.330  1.00  0.00    -0.063 N
HETATM   18  C10 UNL     1      -3.886   7.704  11.134  1.00  0.00     0.238 C
HETATM   19  C11 UNL     1      -4.667   8.621  10.182  1.00  0.00     0.035 C
HETATM   20  C12 UNL     1      -5.128   7.783   9.046  1.00  0.00     0.023 C
HETATM   21  C13 UNL     1      -4.285   6.536   8.932  1.00  0.00     0.035 C
HETATM   22  C15 UNL     1      -6.549   7.325   9.159  1.00  0.00     0.068 C
HETATM   23  C14 UNL     1      -4.595   5.664  10.106  1.00  0.00     0.238 C
HETATM   24  C16 UNL     1      -7.490   8.345   8.556  1.00  0.00     0.065 C
HETATM   25  O5  UNL     1      -6.871   6.479   8.092  1.00  0.00    -0.380 OA
HETATM   26  C18 UNL     1      -6.954   6.845  10.495  1.00  0.00     0.066 C
HETATM   27  C17 UNL     1      -8.095   7.123   7.887  1.00  0.00     0.171 C
HETATM   28  C19 UNL     1      -5.999   6.913  11.593  1.00  0.00     0.240 C
ENDBRANCH  16  17
ENDBRANCH   2  16
TORSDOF 11
ENDMDL