MODEL 2
REMARK VINA RESULT: -6.999876282      3.226      4.269
REMARK  9 active torsions:
REMARK  status: ('A' for Active; 'I' for Inactive)
REMARK    1  A    between atoms: C2_2  and  O1_3
REMARK    2  A    between atoms: O1_3  and  C3_4
REMARK       I    between atoms: C3_4  and  N1_6
REMARK    3  A    between atoms: N1_6  and  C4_8
REMARK    4  A    between atoms: C4_8  and  C6_10
REMARK       I    between atoms: C6_10  and  N2_12
REMARK    5  A    between atoms: N2_12  and  C7_14
REMARK    6  A    between atoms: C7_14  and  C9_16
REMARK       I    between atoms: C9_16  and  N3_18
REMARK    7  A    between atoms: N3_18  and  C10_20
REMARK    8  A    between atoms: C10_20  and  C12_22
REMARK    9  A    between atoms: C12_22  and  N4_23
ROOT
HETATM    1  C7  UNL     1      -4.381   5.077  12.385  1.00  0.00     0.172 C
HETATM    2  C8  UNL     1      -3.263   6.031  12.745  1.00  0.00     0.042 C
ENDROOT
BRANCH   1   3
HETATM    3  N2  UNL     1      -3.907   3.737  12.648  1.00  0.00    -0.346 N
HETATM    4  C6  UNL     1      -4.725   2.766  13.273  1.00  0.00     0.240 C
HETATM    5  O3  UNL     1      -5.901   3.069  13.615  1.00  0.00    -0.271 OA
ATOM      6  H2  UNL     1      -2.957   3.485  12.376  1.00  0.00     0.163 HD
BRANCH   4   7
HETATM    7  C4  UNL     1      -4.246   1.397  13.542  1.00  0.00     0.174 C
HETATM    8  C5  UNL     1      -4.419   0.506  12.309  1.00  0.00     0.042 C
BRANCH   7   9
HETATM    9  N1  UNL     1      -4.952   0.809  14.646  1.00  0.00    -0.324 N
HETATM   10  C3  UNL     1      -4.476   0.892  15.983  1.00  0.00     0.361 C
HETATM   11  O2  UNL     1      -3.395   1.496  16.244  1.00  0.00    -0.238 OA
ATOM     12  H1  UNL     1      -5.826   0.315  14.464  1.00  0.00     0.165 HD
BRANCH  10  13
HETATM   13  O1  UNL     1      -5.168   0.320  17.036  1.00  0.00    -0.304 OA
BRANCH  13  14
HETATM   14  C2  UNL     1      -6.091   1.108  17.759  1.00  0.00     0.176 C
HETATM   15  C1  UNL     1      -7.433   1.062  17.060  1.00  0.00     0.034 C
ENDBRANCH  13  14
ENDBRANCH  10  13
ENDBRANCH   7   9
ENDBRANCH   4   7
ENDBRANCH   1   3
BRANCH   1  16
HETATM   16  C9  UNL     1      -4.785   5.230  10.973  1.00  0.00     0.240 C
HETATM   17  O4  UNL     1      -4.962   4.178  10.301  1.00  0.00    -0.271 OA
HETATM   18  N3  UNL     1      -4.970   6.527  10.381  1.00  0.00    -0.353 N
ATOM     19  H3  UNL     1      -4.818   7.359  10.951  1.00  0.00     0.163 HD
BRANCH  18  20
HETATM   20  C10 UNL     1      -5.366   6.681   8.997  1.00  0.00     0.119 C
HETATM   21  C11 UNL     1      -4.127   6.898   8.176  1.00  0.00     0.035 C
BRANCH  20  22
HETATM   22  C12 UNL     1      -6.350   7.819   8.887  1.00  0.00     0.178 A
HETATM   23  C15 UNL     1      -5.744   9.178   8.692  1.00  0.00     0.044 A
HETATM   24  C16 UNL     1      -6.176   9.637  10.059  1.00  0.00     0.005 A
HETATM   25  C17 UNL     1      -6.907   8.298  10.200  1.00  0.00     0.044 A
BRANCH  22  26
HETATM   26  N4  UNL     1      -7.341   7.529   7.872  1.00  0.00     0.091 N
HETATM   27  C13 UNL     1      -8.693   7.521   8.381  1.00  0.00     0.310 C
HETATM   28  C14 UNL     1      -7.281   8.489   6.780  1.00  0.00     0.310 C
ENDBRANCH  22  26
ENDBRANCH  20  22
ENDBRANCH  18  20
ENDBRANCH   1  16
TORSDOF 9
ENDMDL