MODEL 3
REMARK VINA RESULT: -6.414016292      2.297      6.574
REMARK  9 active torsions:
REMARK  status: ('A' for Active; 'I' for Inactive)
REMARK    1  A    between atoms: O1_2  and  C2_3
REMARK    2  A    between atoms: C2_3  and  C4_5
REMARK    3  A    between atoms: C4_5  and  C5_6
REMARK    4  A    between atoms: C4_5  and  C14_23
REMARK    5  A    between atoms: C5_6  and  O2_7
REMARK    6  A    between atoms: C5_6  and  N1_9
REMARK    7  A    between atoms: N1_9  and  C6_11
REMARK    8  A    between atoms: C6_11  and  C8_13
REMARK       I    between atoms: C8_13  and  N2_15
REMARK    9  A    between atoms: C12_19  and  C13_20
ROOT
HETATM    1  N1  UNL     1      -4.121   1.829  13.597  1.00  0.00    -0.384 N
ATOM      2  H1  UNL     1      -3.978   0.822  13.674  1.00  0.00     0.156 HD
ENDROOT
BRANCH   1   3
HETATM    3  C5  UNL     1      -4.170   2.665  14.746  1.00  0.00     0.221 C
BRANCH   3   4
HETATM    4  C4  UNL     1      -5.664   2.972  15.061  1.00  0.00     0.067 C
BRANCH   4   5
HETATM    5  C2  UNL     1      -6.053   2.251  16.302  1.00  0.00     0.125 C
HETATM    6  C3  UNL     1      -7.339   2.772  16.947  1.00  0.00     0.040 C
BRANCH   5   7
HETATM    7  O1  UNL     1      -6.229   0.865  16.102  1.00  0.00    -0.391 OA
HETATM    8  C1  UNL     1      -6.150   0.159  17.297  1.00  0.00     0.202 C
ENDBRANCH   5   7
ENDBRANCH   4   5
BRANCH   4   9
HETATM    9  C14 UNL     1      -5.829   4.442  15.192  1.00  0.00     0.000 A
HETATM   10  C15 UNL     1      -6.334   5.251  14.056  1.00  0.00     0.010 A
HETATM   11  C16 UNL     1      -4.920   5.449  14.625  1.00  0.00    -0.014 A
HETATM   12  C17 UNL     1      -4.724   6.762  15.312  1.00  0.00     0.010 C
ENDBRANCH   4   9
ENDBRANCH   3   4
BRANCH   3  13
HETATM   13  O2  UNL     1      -3.503   2.244  15.860  1.00  0.00    -0.377 OA
ATOM     14  H2  UNL     1      -3.118   1.386  15.729  1.00  0.00     0.212 HD
ENDBRANCH   3  13
ENDBRANCH   1   3
BRANCH   1  15
HETATM   15  C6  UNL     1      -4.284   2.477  12.316  1.00  0.00     0.167 C
HETATM   16  C7  UNL     1      -4.980   1.623  11.311  1.00  0.00     0.042 C
BRANCH  15  17
HETATM   17  C8  UNL     1      -3.079   3.150  11.844  1.00  0.00     0.242 C
HETATM   18  O3  UNL     1      -1.974   2.856  12.408  1.00  0.00    -0.271 OA
HETATM   19  N2  UNL     1      -3.013   4.116  10.804  1.00  0.00    -0.336 N
HETATM   20  C9  UNL     1      -1.717   4.750  10.443  1.00  0.00     0.127 C
HETATM   21  C12 UNL     1      -3.983   4.664   9.924  1.00  0.00     0.188 C
HETATM   22  C10 UNL     1      -1.831   4.777   8.921  1.00  0.00     0.022 C
HETATM   23  C11 UNL     1      -3.241   5.278   8.771  1.00  0.00     0.038 C
BRANCH  21  24
HETATM   24  C13 UNL     1      -4.928   5.629  10.537  1.00  0.00     0.196 C
HETATM   25  O4  UNL     1      -4.480   6.496  11.304  1.00  0.00    -0.646 OA
HETATM   26  O5  UNL     1      -6.264   5.560  10.255  1.00  0.00    -0.646 OA
ENDBRANCH  21  24
ENDBRANCH  15  17
ENDBRANCH   1  15
TORSDOF 9
ENDMDL