MODEL 2
REMARK VINA RESULT: -6.562964198      2.792      5.029
REMARK  6 active torsions:
REMARK  status: ('A' for Active; 'I' for Inactive)
REMARK    1  A    between atoms: O1_2  and  C2_3
REMARK    2  A    between atoms: C2_3  and  C3_5
REMARK    3  A    between atoms: C3_5  and  C4_6
REMARK    4  A    between atoms: C4_6  and  C5_7
REMARK       I    between atoms: N1_10  and  C8_12
REMARK    5  A    between atoms: C8_12  and  C9_14
REMARK    6  A    between atoms: C9_14  and  C15_27
REMARK       I    between atoms: N2_15  and  C10_17
REMARK       I    between atoms: C10_17  and  N3_19
ROOT
HETATM    1  C9  UNL     1      -3.862   6.155  12.387  1.00  0.00     0.085 C
HETATM    2  N2  UNL     1      -4.269   6.691  11.242  1.00  0.00    -0.307 N
ATOM      3  H2  UNL     1      -3.577   6.935  10.533  1.00  0.00     0.170 HD
HETATM    4  C10 UNL     1      -5.652   6.933  10.979  1.00  0.00     0.322 C
HETATM    5  O4  UNL     1      -6.540   6.562  11.763  1.00  0.00    -0.247 OA
HETATM    6  N3  UNL     1      -5.991   7.521   9.740  1.00  0.00    -0.331 N
HETATM    7  C11 UNL     1      -6.865   8.676   9.655  1.00  0.00     0.155 C
HETATM    8  C12 UNL     1      -6.887   9.116   8.201  1.00  0.00     0.252 C
HETATM    9  N4  UNL     1      -7.526   8.037   7.480  1.00  0.00    -0.072 N
ATOM     10  H41 UNL     1      -7.703   8.298   6.510  1.00  0.00     0.277 HD
ATOM     11  H42 UNL     1      -8.488   7.906   7.793  1.00  0.00     0.277 HD
HETATM   12  C13 UNL     1      -6.785   6.804   7.557  1.00  0.00     0.252 C
HETATM   13  C14 UNL     1      -5.605   6.883   8.504  1.00  0.00     0.155 C
ENDROOT
BRANCH   1  14
HETATM   14  C8  UNL     1      -4.704   5.230  13.220  1.00  0.00     0.269 C
HETATM   15  N1  UNL     1      -4.873   3.944  12.678  1.00  0.00    -0.320 N
HETATM   16  C3  UNL     1      -4.914   2.839  13.450  1.00  0.00     0.088 C
ATOM     17  H1  UNL     1      -4.967   3.843  11.667  1.00  0.00     0.169 HD
HETATM   18  O3  UNL     1      -5.128   5.673  14.291  1.00  0.00    -0.266 OA
BRANCH  16  19
HETATM   19  C2  UNL     1      -4.315   1.648  12.669  1.00  0.00     0.305 C
HETATM   20  O2  UNL     1      -3.224   1.902  12.607  1.00  0.00    -0.258 OA
BRANCH  19  21
HETATM   21  O1  UNL     1      -4.917   0.716  12.302  1.00  0.00    -0.322 OA
HETATM   22  C1  UNL     1      -4.973   0.286  10.909  1.00  0.00     0.213 C
ENDBRANCH  19  21
ENDBRANCH  16  19
BRANCH  16  23
HETATM   23  C4  UNL     1      -5.969   2.553  14.473  1.00  0.00     0.067 C
BRANCH  23  24
HETATM   24  C5  UNL     1      -5.402   2.491  15.898  1.00  0.00    -0.017 C
HETATM   25  C6  UNL     1      -4.656   1.206  16.157  1.00  0.00     0.010 C
HETATM   26  C7  UNL     1      -6.672   2.450  16.827  1.00  0.00     0.010 C
ENDBRANCH  23  24
ENDBRANCH  16  23
ENDBRANCH   1  14
BRANCH   1  27
HETATM   27  C15 UNL     1      -2.972   6.954  13.343  1.00  0.00     0.033 C
HETATM   28  C16 UNL     1      -1.836   6.243  14.022  1.00  0.00     0.016 C
HETATM   29  C17 UNL     1      -2.544   8.240  12.772  1.00  0.00     0.016 C
ENDBRANCH   1  27
TORSDOF 6
ENDMDL