MODEL 3
REMARK VINA RESULT: -7.035422834      2.177      2.373
REMARK  8 active torsions:
REMARK  status: ('A' for Active; 'I' for Inactive)
REMARK       I    between atoms: N1_2  and  C2_4
REMARK    1  A    between atoms: C2_4  and  C3_6
REMARK    2  A    between atoms: C3_6  and  N2_7
REMARK    3  A    between atoms: C3_6  and  C12_22
REMARK       I    between atoms: N2_7  and  C4_9
REMARK    4  A    between atoms: C4_9  and  C5_11
REMARK    5  A    between atoms: C5_11  and  N3_12
REMARK    6  A    between atoms: C5_11  and  C9_19
REMARK       I    between atoms: N3_12  and  C6_14
REMARK    7  A    between atoms: C6_14  and  C7_16
REMARK    8  A    between atoms: C7_16  and  S1_17
ROOT
HETATM    1  N2  UNL     1      -4.558   3.434  13.469  1.00  0.00    -0.346 N
ATOM      2  H2  UNL     1      -5.501   3.688  13.174  1.00  0.00     0.163 HD
HETATM    3  C4  UNL     1      -3.504   4.345  13.249  1.00  0.00     0.241 C
HETATM    4  O2  UNL     1      -2.339   3.969  13.640  1.00  0.00    -0.271 OA
ENDROOT
BRANCH   1   5
HETATM    5  C3  UNL     1      -4.348   2.171  14.090  1.00  0.00     0.180 C
BRANCH   5   6
HETATM    6  C2  UNL     1      -4.591   1.094  13.063  1.00  0.00     0.240 C
HETATM    7  N1  UNL     1      -4.851   1.443  11.727  1.00  0.00    -0.364 N
HETATM    8  C1  UNL     1      -5.083   0.423  10.745  1.00  0.00     0.149 C
ATOM      9  H1  UNL     1      -4.875   2.425  11.455  1.00  0.00     0.161 HD
HETATM   10  O1  UNL     1      -4.563  -0.117  13.383  1.00  0.00    -0.271 OA
ENDBRANCH   5   6
BRANCH   5  11
HETATM   11  C12 UNL     1      -5.267   1.877  15.227  1.00  0.00     0.018 C
HETATM   12  C13 UNL     1      -4.614   1.289  16.439  1.00  0.00     0.007 C
HETATM   13  C14 UNL     1      -5.694   0.713  17.310  1.00  0.00     0.000 C
HETATM   14  C15 UNL     1      -6.834   1.612  17.593  1.00  0.00     0.000 C
HETATM   15  C16 UNL     1      -7.248   2.511  16.471  1.00  0.00     0.000 C
HETATM   16  C17 UNL     1      -6.081   3.056  15.678  1.00  0.00     0.007 C
ENDBRANCH   5  11
ENDBRANCH   1   5
BRANCH   3  17
HETATM   17  C5  UNL     1      -3.618   5.672  12.617  1.00  0.00     0.180 C
BRANCH  17  18
HETATM   18  N3  UNL     1      -3.187   5.664  11.240  1.00  0.00    -0.347 N
HETATM   19  C6  UNL     1      -3.881   4.995  10.206  1.00  0.00     0.227 C
HETATM   20  O3  UNL     1      -4.935   4.374  10.531  1.00  0.00    -0.273 OA
ATOM     21  H3  UNL     1      -2.335   6.170  11.000  1.00  0.00     0.163 HD
BRANCH  19  22
HETATM   22  C7  UNL     1      -3.462   4.973   8.803  1.00  0.00     0.176 C
BRANCH  22  23
HETATM   23  S1  UNL     1      -1.660   4.963   8.615  1.00  0.00    -0.164 SA
HETATM   24  C8  UNL     1      -1.151   4.618   6.917  1.00  0.00     0.090 C
ENDBRANCH  22  23
ENDBRANCH  19  22
ENDBRANCH  17  18
BRANCH  17  25
HETATM   25  C9  UNL     1      -2.885   6.774  13.313  1.00  0.00     0.009 C
HETATM   26  C10 UNL     1      -3.423   7.083  14.693  1.00  0.00     0.012 C
HETATM   27  C11 UNL     1      -2.659   8.009  12.510  1.00  0.00     0.012 C
ENDBRANCH  17  25
ENDBRANCH   3  17
TORSDOF 8
ENDMDL