MODEL 5
REMARK VINA RESULT: -6.191956814      4.616      6.430
REMARK  5 active torsions:
REMARK  status: ('A' for Active; 'I' for Inactive)
REMARK    1  A    between atoms: C2_2  and  C3_3
REMARK    2  A    between atoms: C3_3  and  N1_4
REMARK    3  A    between atoms: C6_7  and  N2_8
REMARK       I    between atoms: N2_8  and  C7_10
REMARK       I    between atoms: C7_10  and  N3_12
REMARK    4  A    between atoms: N3_12  and  C8_14
REMARK    5  A    between atoms: C14_24  and  O2_25
ROOT
HETATM    1  N2  UNL     1      -2.096   6.700  14.098  1.00  0.00    -0.338 N
ATOM      2  H2  UNL     1      -1.258   6.210  14.411  1.00  0.00     0.164 HD
HETATM    3  C7  UNL     1      -3.102   5.988  13.405  1.00  0.00     0.316 C
HETATM    4  O1  UNL     1      -4.127   6.590  13.022  1.00  0.00    -0.247 OA
HETATM    5  N3  UNL     1      -2.957   4.617  13.147  1.00  0.00    -0.334 N
ATOM      6  H3  UNL     1      -2.123   4.118  13.456  1.00  0.00     0.164 HD
ENDROOT
BRANCH   5   7
HETATM    7  C8  UNL     1      -4.012   3.917  12.433  1.00  0.00     0.145 C
HETATM    8  C9  UNL     1      -3.442   3.114  11.294  1.00  0.00     0.300 C
HETATM    9  N4  UNL     1      -3.646   1.762  11.658  1.00  0.00     0.101 N
HETATM   10  C10 UNL     1      -3.983   0.887  10.546  1.00  0.00     0.300 C
HETATM   11  C13 UNL     1      -4.768   1.689  12.576  1.00  0.00     0.279 C
HETATM   12  C11 UNL     1      -4.554  -0.384  11.174  1.00  0.00     0.262 C
HETATM   13  N5  UNL     1      -3.998  -0.558  12.505  1.00  0.00    -0.071 N
HETATM   14  C12 UNL     1      -4.544   0.455  13.425  1.00  0.00     0.270 C
ATOM     15  H52 UNL     1      -4.139  -1.506  12.855  1.00  0.00     0.277 HD
ATOM     16  H51 UNL     1      -2.978  -0.551  12.494  1.00  0.00     0.277 HD
HETATM   17  C14 UNL     1      -4.702   2.963  13.385  1.00  0.00     0.180 C
BRANCH  17  18
HETATM   18  O2  UNL     1      -5.968   3.430  13.636  1.00  0.00    -0.386 OA
HETATM   19  C15 UNL     1      -6.018   3.776  14.996  1.00  0.00     0.202 C
ENDBRANCH  17  18
ENDBRANCH   5   7
BRANCH   1  20
HETATM   20  C6  UNL     1      -2.240   8.128  14.371  1.00  0.00     0.089 C
HETATM   21  C5  UNL     1      -1.653   8.880  13.210  1.00  0.00     0.055 C
HETATM   22  C4  UNL     1      -0.149   8.835  13.327  1.00  0.00     0.275 C
HETATM   23  N1  UNL     1       0.239   9.721  14.387  1.00  0.00     0.091 N
HETATM   24  C17 UNL     1      -0.741   9.818  15.448  1.00  0.00     0.275 C
HETATM   25  C16 UNL     1      -1.501   8.521  15.629  1.00  0.00     0.055 C
BRANCH  23  26
HETATM   26  C3  UNL     1       0.515  11.072  13.931  1.00  0.00     0.299 C
BRANCH  26  27
HETATM   27  C2  UNL     1      -0.412  12.062  14.545  1.00  0.00    -0.007 C
HETATM   28  C1  UNL     1      -1.031  12.989  13.830  1.00  0.00     0.008 C
ENDBRANCH  26  27
ENDBRANCH  23  26
ENDBRANCH   1  20
TORSDOF 5
ENDMDL