MODEL 5
REMARK VINA RESULT: -6.555341242      2.919      6.492
REMARK  8 active torsions:
REMARK  status: ('A' for Active; 'I' for Inactive)
REMARK    1  A    between atoms: N1_2  and  C3_4
REMARK    2  A    between atoms: C3_4  and  C4_5
REMARK    3  A    between atoms: C4_5  and  N2_6
REMARK    4  A    between atoms: N2_6  and  C5_8
REMARK    5  A    between atoms: C6_11  and  N4_12
REMARK    6  A    between atoms: N4_12  and  C7_14
REMARK    7  A    between atoms: C10_19  and  N6_20
REMARK    8  A    between atoms: N6_20  and  C11_22
ROOT
HETATM    1  C5  UNL     1      -3.624   3.122  13.174  1.00  0.00     0.707 A
HETATM    2  N3  UNL     1      -4.603   2.583  13.942  1.00  0.00    -0.022 N
ATOM      3  H3  UNL     1      -4.731   1.571  13.923  1.00  0.00     0.203 HD
HETATM    4  C6  UNL     1      -5.402   3.302  14.717  1.00  0.00     0.707 A
HETATM    5  N5  UNL     1      -5.237   4.642  14.747  1.00  0.00    -0.021 N
ATOM      6  H5  UNL     1      -5.842   5.217  15.335  1.00  0.00     0.203 HD
HETATM    7  C10 UNL     1      -4.281   5.218  14.005  1.00  0.00     0.707 A
HETATM    8  N8  UNL     1      -3.478   4.441  13.220  1.00  0.00    -0.022 N
ATOM      9  H8  UNL     1      -2.751   4.884  12.657  1.00  0.00     0.203 HD
ENDROOT
BRANCH   7  10
HETATM   10  N6  UNL     1      -4.110   6.495  14.024  1.00  0.00    -0.220 N
ATOM     11  H6  UNL     1      -4.939   7.090  14.037  1.00  0.00     0.178 HD
BRANCH  10  12
HETATM   12  C11 UNL     1      -2.829   7.127  14.027  1.00  0.00     0.102 C
HETATM   13  C12 UNL     1      -2.664   8.147  15.136  1.00  0.00     0.056 C
HETATM   14  C13 UNL     1      -1.181   8.503  15.170  1.00  0.00     0.274 C
HETATM   15  N7  UNL     1      -0.823   9.141  13.941  1.00  0.00     0.084 N
HETATM   16  C14 UNL     1      -0.488  10.540  14.252  1.00  0.00     0.309 C
HETATM   17  C15 UNL     1      -1.854   9.169  12.953  1.00  0.00     0.274 C
HETATM   18  C16 UNL     1      -2.540   7.859  12.727  1.00  0.00     0.056 C
ENDBRANCH  10  12
ENDBRANCH   7  10
BRANCH   4  19
HETATM   19  N4  UNL     1      -6.344   2.768  15.452  1.00  0.00    -0.220 N
ATOM     20  H4  UNL     1      -7.306   3.106  15.409  1.00  0.00     0.178 HD
BRANCH  19  21
HETATM   21  C7  UNL     1      -5.966   1.682  16.327  1.00  0.00     0.099 A
HETATM   22  C8  UNL     1      -7.156   1.015  17.021  1.00  0.00     0.028 A
HETATM   23  C9  UNL     1      -6.138   1.742  17.782  1.00  0.00     0.028 A
ENDBRANCH  19  21
ENDBRANCH   4  19
BRANCH   1  24
HETATM   24  N2  UNL     1      -2.925   2.318  12.476  1.00  0.00    -0.223 N
ATOM     25  H2  UNL     1      -2.075   1.959  12.911  1.00  0.00     0.177 HD
BRANCH  24  26
HETATM   26  C4  UNL     1      -3.202   1.865  11.150  1.00  0.00     0.168 C
BRANCH  26  27
HETATM   27  C3  UNL     1      -2.464   0.537  10.966  1.00  0.00     0.291 C
BRANCH  27  28
HETATM   28  N1  UNL     1      -3.422  -0.466  10.541  1.00  0.00     0.081 N
HETATM   29  C1  UNL     1      -3.252  -1.666  11.325  1.00  0.00     0.309 C
HETATM   30  C2  UNL     1      -4.783   0.045  10.595  1.00  0.00     0.309 C
ENDBRANCH  27  28
ENDBRANCH  26  27
ENDBRANCH  24  26
ENDBRANCH   1  24
TORSDOF 8
ENDMDL