MODEL 2
REMARK VINA RESULT: -6.074011808      2.311      3.086
REMARK  7 active torsions:
REMARK  status: ('A' for Active; 'I' for Inactive)
REMARK    1  A    between atoms: N1_2  and  C2_4
REMARK    2  A    between atoms: C2_4  and  N2_6
REMARK    3  A    between atoms: N2_6  and  C3_8
REMARK    4  A    between atoms: C3_8  and  C4_9
REMARK       I    between atoms: C4_9  and  N3_11
REMARK    5  A    between atoms: N3_11  and  C5_13
REMARK    6  A    between atoms: N4_16  and  C8_17
REMARK    7  A    between atoms: C8_17  and  C9_18
ROOT
HETATM    1  C5  UNL     1      -5.418   5.863  12.538  1.00  0.00     0.093 C
HETATM    2  C6  UNL     1      -4.087   6.238  13.101  1.00  0.00     0.070 C
HETATM    3  C7  UNL     1      -3.396   4.956  13.534  1.00  0.00     0.065 C
HETATM    4  N4  UNL     1      -4.264   3.956  13.993  1.00  0.00    -0.371 N
HETATM    5  C13 UNL     1      -5.534   4.294  14.486  1.00  0.00     0.065 C
HETATM    6  C14 UNL     1      -6.290   5.291  13.642  1.00  0.00     0.070 C
ENDROOT
BRANCH   1   7
HETATM    7  N3  UNL     1      -6.160   7.001  11.993  1.00  0.00    -0.354 N
HETATM    8  C4  UNL     1      -6.611   6.925  10.659  1.00  0.00     0.235 C
HETATM    9  O1  UNL     1      -6.320   5.835  10.029  1.00  0.00    -0.272 OA
ATOM     10  H3  UNL     1      -6.346   7.827  12.562  1.00  0.00     0.162 HD
BRANCH   8  11
HETATM   11  C3  UNL     1      -7.377   7.968   9.939  1.00  0.00     0.224 C
BRANCH  11  12
HETATM   12  N2  UNL     1      -8.174   7.500   8.845  1.00  0.00    -0.359 N
ATOM     13  H2  UNL     1      -9.090   7.081   9.005  1.00  0.00     0.162 HD
BRANCH  12  14
HETATM   14  C2  UNL     1      -7.654   7.638   7.535  1.00  0.00     0.167 C
HETATM   15  S1  UNL     1      -7.886   9.037   6.748  1.00  0.00    -0.041 SA
BRANCH  14  16
HETATM   16  N1  UNL     1      -6.954   6.592   6.919  1.00  0.00    -0.372 N
HETATM   17  C1  UNL     1      -5.536   6.727   6.614  1.00  0.00     0.148 C
ATOM     18  H1  UNL     1      -7.442   5.728   6.682  1.00  0.00     0.161 HD
ENDBRANCH  14  16
ENDBRANCH  12  14
ENDBRANCH  11  12
ENDBRANCH   8  11
ENDBRANCH   1   7
BRANCH   4  19
HETATM   19  C8  UNL     1      -3.971   2.605  13.711  1.00  0.00     0.161 C
BRANCH  19  20
HETATM   20  C9  UNL     1      -4.899   2.029  12.650  1.00  0.00     0.163 C
HETATM   21  C10 UNL     1      -4.448   2.375  11.249  1.00  0.00     0.201 C
HETATM   22  O2  UNL     1      -3.085   2.109  11.169  1.00  0.00    -0.386 OA
HETATM   23  C11 UNL     1      -2.896   0.748  11.336  1.00  0.00     0.193 C
HETATM   24  C12 UNL     1      -4.080   0.004  11.849  1.00  0.00     0.194 C
HETATM   25  O3  UNL     1      -4.842   0.646  12.785  1.00  0.00    -0.380 OA
ENDBRANCH  19  20
ENDBRANCH   4  19
TORSDOF 7
ENDMDL