MODEL 2
REMARK VINA RESULT: -7.191918577      2.259      6.512
REMARK  5 active torsions:
REMARK  status: ('A' for Active; 'I' for Inactive)
REMARK       I    between atoms: C1_2  and  N2_4
REMARK    1  A    between atoms: N2_4  and  C2_6
REMARK    2  A    between atoms: C11_18  and  O2_19
REMARK    3  A    between atoms: O2_19  and  C12_20
REMARK    4  A    between atoms: C12_20  and  C13_21
REMARK    5  A    between atoms: C13_21  and  N4_22
ROOT
HETATM    1  C2  UNL     1      -4.726   4.474  11.830  1.00  0.00     0.116 C
HETATM    2  C3  UNL     1      -4.227   5.260  10.624  1.00  0.00     0.061 C
HETATM    3  C4  UNL     1      -5.242   6.289  10.284  1.00  0.00     0.192 C
HETATM    4  N3  UNL     1      -4.762   7.202   9.250  1.00  0.00    -0.070 N
ATOM      5  H31 UNL     1      -3.938   6.822   8.784  1.00  0.00     0.277 HD
ATOM      6  H32 UNL     1      -4.349   8.037   9.665  1.00  0.00     0.277 HD
HETATM    7  C5  UNL     1      -5.767   7.552   8.299  1.00  0.00     0.232 C
HETATM    8  C6  UNL     1      -6.622   8.707   8.689  1.00  0.00     0.027 C
HETATM    9  C7  UNL     1      -6.681   8.968  10.164  1.00  0.00     0.002 C
HETATM   10  C8  UNL     1      -7.041   7.761  10.973  1.00  0.00     0.007 C
HETATM   11  C9  UNL     1      -5.728   7.116  11.423  1.00  0.00     0.019 C
HETATM   12  C10 UNL     1      -5.972   6.336  12.686  1.00  0.00     0.041 C
HETATM   13  C11 UNL     1      -4.759   5.474  12.964  1.00  0.00     0.144 C
ENDROOT
BRANCH  13  14
HETATM   14  O2  UNL     1      -4.704   4.922  14.203  1.00  0.00    -0.382 OA
BRANCH  14  15
HETATM   15  C12 UNL     1      -5.892   4.711  14.844  1.00  0.00     0.198 C
BRANCH  15  16
HETATM   16  C13 UNL     1      -6.359   3.297  14.936  1.00  0.00     0.298 C
BRANCH  16  17
HETATM   17  N4  UNL     1      -5.773   2.559  16.034  1.00  0.00     0.094 N
HETATM   18  C14 UNL     1      -4.582   1.898  15.675  1.00  0.00     0.298 C
HETATM   19  C15 UNL     1      -4.514   0.442  15.845  1.00  0.00     0.198 C
HETATM   20  O3  UNL     1      -5.651  -0.189  16.269  1.00  0.00    -0.388 OA
HETATM   21  C16 UNL     1      -6.162   0.542  17.369  1.00  0.00     0.198 C
HETATM   22  C17 UNL     1      -6.754   1.804  16.724  1.00  0.00     0.298 C
ENDBRANCH  16  17
ENDBRANCH  15  16
ENDBRANCH  14  15
ENDBRANCH  13  14
BRANCH   1  23
HETATM   23  N2  UNL     1      -3.936   3.318  12.100  1.00  0.00    -0.338 N
HETATM   24  C1  UNL     1      -4.415   1.989  11.983  1.00  0.00     0.329 C
HETATM   25  N1  UNL     1      -3.561   0.891  12.272  1.00  0.00    -0.040 NA
HETATM   26  O1  UNL     1      -5.599   1.725  11.624  1.00  0.00    -0.251 OA
ATOM     27  H2  UNL     1      -2.970   3.456  12.394  1.00  0.00     0.164 HD
ENDBRANCH   1  23
TORSDOF 5
ENDMDL