MODEL 5
REMARK VINA RESULT: -6.541958609      3.709      5.727
REMARK  6 active torsions:
REMARK  status: ('A' for Active; 'I' for Inactive)
REMARK    1  A    between atoms: N3_4  and  C2_6
REMARK    2  A    between atoms: C2_6  and  C3_7
REMARK    3  A    between atoms: C3_7  and  S1_8
REMARK    4  A    between atoms: S1_8  and  C4_9
REMARK    5  A    between atoms: C4_9  and  C5_10
REMARK       I    between atoms: C5_10  and  N4_12
REMARK    6  A    between atoms: C12_19  and  N5_20
ROOT
HETATM    1  C5  UNL     1      -5.757   5.905  13.049  1.00  0.00     0.229 C
HETATM    2  O1  UNL     1      -6.822   5.435  13.532  1.00  0.00    -0.273 OA
HETATM    3  N4  UNL     1      -5.831   6.923  12.081  1.00  0.00    -0.351 N
HETATM    4  C6  UNL     1      -7.125   7.409  11.665  1.00  0.00     0.129 C
HETATM    5  C7  UNL     1      -7.144   7.281  10.140  1.00  0.00     0.058 C
HETATM    6  C8  UNL     1      -6.135   8.201   9.537  1.00  0.00     0.066 C
HETATM    7  C9  UNL     1      -5.134   8.664  10.559  1.00  0.00     0.058 C
HETATM    8  C10 UNL     1      -4.669   7.520  11.474  1.00  0.00     0.129 C
HETATM    9  C11 UNL     1      -5.488   7.510   8.370  1.00  0.00     0.071 C
HETATM   10  C12 UNL     1      -6.290   7.729   7.108  1.00  0.00     0.188 C
HETATM   11  C13 UNL     1      -6.175   9.207   6.757  1.00  0.00     0.059 C
HETATM   12  C14 UNL     1      -6.024   9.957   8.062  1.00  0.00     0.170 C
HETATM   13  O2  UNL     1      -6.777   9.353   9.061  1.00  0.00    -0.380 OA
ENDROOT
BRANCH   1  14
HETATM   14  C4  UNL     1      -4.468   5.346  13.533  1.00  0.00     0.176 C
BRANCH  14  15
HETATM   15  S1  UNL     1      -4.157   3.796  12.660  1.00  0.00    -0.158 SA
BRANCH  15  16
HETATM   16  C3  UNL     1      -4.896   2.464  13.640  1.00  0.00     0.094 C
BRANCH  16  17
HETATM   17  C2  UNL     1      -5.024   2.875  15.091  1.00  0.00     0.132 C
BRANCH  17  18
HETATM   18  N3  UNL     1      -5.747   1.825  15.776  1.00  0.00    -0.366 N
HETATM   19  C1  UNL     1      -5.215   0.838  16.380  1.00  0.00     0.196 C
HETATM   20  N1  UNL     1      -3.804   0.724  16.405  1.00  0.00    -0.067 NA
HETATM   21  N2  UNL     1      -6.059  -0.112  17.006  1.00  0.00    -0.067 NA
ATOM     22  H3  UNL     1      -6.766   1.881  15.776  1.00  0.00     0.161 HD
ENDBRANCH  17  18
ENDBRANCH  16  17
ENDBRANCH  15  16
ENDBRANCH  14  15
ENDBRANCH   1  14
BRANCH  10  23
HETATM   23  N5  UNL     1      -7.688   7.430   7.278  1.00  0.00    -0.075 N
ATOM     24  H53 UNL     1      -8.270   8.170   6.885  1.00  0.00     0.274 HD
ATOM     25  H52 UNL     1      -7.973   6.658   6.676  1.00  0.00     0.274 HD
ATOM     26  H51 UNL     1      -7.937   7.248   8.250  1.00  0.00     0.274 HD
ENDBRANCH  10  23
TORSDOF 6
ENDMDL