MODEL 2
REMARK VINA RESULT: -6.960230728      2.236      4.731
REMARK  7 active torsions:
REMARK  status: ('A' for Active; 'I' for Inactive)
REMARK    1  A    between atoms: C5_9  and  C6_10
REMARK    2  A    between atoms: C6_10  and  N3_11
REMARK    3  A    between atoms: N3_11  and  C7_13
REMARK    4  A    between atoms: C10_20  and  N6_21
REMARK    5  A    between atoms: N6_21  and  C11_23
REMARK    6  A    between atoms: C12_24  and  C13_25
REMARK    7  A    between atoms: C13_25  and  C15_27
ROOT
HETATM    1  C7  UNL     1      -2.114   5.237  13.825  1.00  0.00     0.698 A
HETATM    2  N4  UNL     1      -1.679   6.462  14.141  1.00  0.00    -0.180 N
ATOM      3  H4  UNL     1      -0.727   6.744  13.909  1.00  0.00     0.185 HD
HETATM    4  C8  UNL     1      -2.512   7.329  14.770  1.00  0.00     0.109 A
HETATM    5  C9  UNL     1      -2.010   8.688  15.112  1.00  0.00     0.090 C
HETATM    6  N5  UNL     1      -3.754   6.911  15.050  1.00  0.00    -0.180 N
ATOM      7  H5  UNL     1      -4.386   7.559  15.522  1.00  0.00     0.185 HD
HETATM    8  C10 UNL     1      -4.216   5.684  14.742  1.00  0.00     0.698 A
HETATM    9  N7  UNL     1      -3.367   4.847  14.120  1.00  0.00    -0.022 N
ATOM     10  H7  UNL     1      -3.676   3.908  13.869  1.00  0.00     0.203 HD
ENDROOT
BRANCH   1  11
HETATM   11  N3  UNL     1      -1.356   4.398  13.233  1.00  0.00    -0.200 N
ATOM     12  H3  UNL     1      -0.675   3.856  13.764  1.00  0.00     0.183 HD
BRANCH  11  13
HETATM   13  C6  UNL     1      -1.473   4.226  11.820  1.00  0.00     0.125 C
BRANCH  13  14
HETATM   14  C5  UNL     1      -1.685   3.031  11.299  1.00  0.00     0.076 A
HETATM   15  C2  UNL     1      -1.057   2.484  10.205  1.00  0.00     0.056 A
HETATM   16  C1  UNL     1      -0.112   3.063   9.460  1.00  0.00     0.045 C
HETATM   17  N1  UNL     1      -1.586   1.251  10.037  1.00  0.00    -0.296 N
HETATM   18  N2  UNL     1      -2.493   0.984  10.938  1.00  0.00    -0.261 N
ATOM     19  H1  UNL     1      -1.309   0.608   9.296  1.00  0.00     0.187 HD
HETATM   20  C3  UNL     1      -3.290  -0.238  11.096  1.00  0.00     0.181 C
HETATM   21  C4  UNL     1      -2.574   2.067  11.732  1.00  0.00     0.275 A
HETATM   22  O1  UNL     1      -3.353   2.179  12.726  1.00  0.00    -0.266 OA
ENDBRANCH  13  14
ENDBRANCH  11  13
ENDBRANCH   1  11
BRANCH   8  23
HETATM   23  N6  UNL     1      -5.435   5.322  15.036  1.00  0.00    -0.201 N
ATOM     24  H6  UNL     1      -5.937   5.759  15.809  1.00  0.00     0.183 HD
BRANCH  23  25
HETATM   25  C11 UNL     1      -6.043   4.308  14.257  1.00  0.00     0.102 C
HETATM   26  C12 UNL     1      -6.195   3.099  14.750  1.00  0.00    -0.005 C
BRANCH  26  27
HETATM   27  C13 UNL     1      -5.715   2.834  16.128  1.00  0.00     0.005 C
HETATM   28  C14 UNL     1      -4.651   1.769  16.084  1.00  0.00     0.014 C
BRANCH  27  29
HETATM   29  C15 UNL     1      -6.908   2.422  16.951  1.00  0.00     0.003 C
HETATM   30  C16 UNL     1      -7.067   0.930  17.044  1.00  0.00     0.006 C
ENDBRANCH  27  29
ENDBRANCH  26  27
ENDBRANCH  23  25
ENDBRANCH   8  23
TORSDOF 7
ENDMDL