MODEL 4
REMARK VINA RESULT: -7.089855816      3.255      5.350
REMARK  5 active torsions:
REMARK  status: ('A' for Active; 'I' for Inactive)
REMARK    1  A    between atoms: C7_9  and  C8_10
REMARK    2  A    between atoms: C8_10  and  S1_11
REMARK    3  A    between atoms: S1_11  and  C9_12
REMARK    4  A    between atoms: C9_12  and  C10_13
REMARK    5  A    between atoms: C10_13  and  N2_14
REMARK       I    between atoms: C11_16  and  N4_18
ROOT
HETATM    1  C8  UNL     1      -4.034   5.912  11.649  1.00  0.00     0.148 A
HETATM    2  C13 UNL     1      -3.611   6.865  12.628  1.00  0.00     0.221 A
HETATM    3  O2  UNL     1      -3.924   5.481  13.032  1.00  0.00    -0.361 OA
ENDROOT
BRANCH   1   4
HETATM    4  C7  UNL     1      -5.408   5.884  11.080  1.00  0.00     0.134 C
HETATM    5  N1  UNL     1      -5.347   6.259   9.683  1.00  0.00    -0.188 NA
HETATM    6  O1  UNL     1      -6.513   6.265   9.046  1.00  0.00    -0.298 OA
HETATM    7  C3  UNL     1      -4.720   7.553   9.573  1.00  0.00     0.121 C
HETATM    8  C2  UNL     1      -7.483   6.998   9.673  1.00  0.00     0.145 C
HETATM    9  C1  UNL     1      -8.226   7.932   8.745  1.00  0.00     0.042 C
HETATM   10  C5  UNL     1      -6.849   7.822  10.765  1.00  0.00     0.019 C
HETATM   11  C4  UNL     1      -5.654   8.552  10.213  1.00  0.00     0.024 C
HETATM   12  C6  UNL     1      -6.324   6.828  11.806  1.00  0.00     0.033 C
ENDBRANCH   1   4
BRANCH   1  13
HETATM   13  S1  UNL     1      -2.707   5.169  10.657  1.00  0.00    -0.126 SA
BRANCH  13  14
HETATM   14  C9  UNL     1      -2.210   3.536  11.136  1.00  0.00     0.097 C
BRANCH  14  15
HETATM   15  C10 UNL     1      -3.308   2.566  11.466  1.00  0.00     0.132 C
BRANCH  15  16
HETATM   16  N2  UNL     1      -3.317   2.468  12.941  1.00  0.00    -0.364 N
HETATM   17  C11 UNL     1      -4.383   2.014  13.535  1.00  0.00     0.190 C
HETATM   18  N3  UNL     1      -5.514   1.621  12.744  1.00  0.00    -0.063 NA
HETATM   19  N4  UNL     1      -4.486   1.887  14.931  1.00  0.00    -0.307 N
HETATM   20  C12 UNL     1      -4.652   0.794  15.571  1.00  0.00     0.203 C
ATOM     21  H4  UNL     1      -4.424   2.743  15.481  1.00  0.00     0.170 HD
HETATM   22  N5  UNL     1      -4.745   0.767  16.983  1.00  0.00    -0.066 NA
HETATM   23  N6  UNL     1      -4.746  -0.420  14.858  1.00  0.00    -0.066 NA
ATOM     24  H2  UNL     1      -2.501   2.752  13.485  1.00  0.00     0.162 HD
ENDBRANCH  15  16
ENDBRANCH  14  15
ENDBRANCH  13  14
ENDBRANCH   1  13
TORSDOF 5
ENDMDL