MODEL 5
REMARK VINA RESULT: -6.173632674      1.726      2.467
REMARK  10 active torsions:
REMARK  status: ('A' for Active; 'I' for Inactive)
REMARK    1  A    between atoms: O1_1  and  C1_3
REMARK    2  A    between atoms: C1_3  and  C2_4
REMARK    3  A    between atoms: C2_4  and  N1_5
REMARK    4  A    between atoms: N1_5  and  C3_6
REMARK    5  A    between atoms: N1_5  and  C5_10
REMARK    6  A    between atoms: C3_6  and  C4_7
REMARK    7  A    between atoms: C4_7  and  O2_8
REMARK    8  A    between atoms: C5_10  and  N2_12
REMARK    9  A    between atoms: C8_15  and  N3_16
REMARK   10  A    between atoms: C14_22  and  O3_23
ROOT
HETATM    1  N2  UNL     1      -4.419   4.139  13.539  1.00  0.00    -0.355 N
HETATM    2  C6  UNL     1      -4.801   5.327  12.635  1.00  0.00     0.127 C
HETATM    3  C7  UNL     1      -3.805   6.376  13.051  1.00  0.00     0.058 C
HETATM    4  C8  UNL     1      -2.374   5.999  12.931  1.00  0.00     0.254 C
HETATM    5  C14 UNL     1      -2.037   4.596  13.349  1.00  0.00     0.169 C
HETATM    6  C15 UNL     1      -3.185   3.642  13.056  1.00  0.00     0.159 C
ENDROOT
BRANCH   1   7
HETATM    7  C5  UNL     1      -5.283   3.811  14.571  1.00  0.00     0.175 C
HETATM    8  S1  UNL     1      -6.340   5.163  14.897  1.00  0.00    -0.041 SA
BRANCH   7   9
HETATM    9  N1  UNL     1      -5.586   2.763  15.416  1.00  0.00    -0.334 N
BRANCH   9  10
HETATM   10  C2  UNL     1      -4.459   1.735  15.645  1.00  0.00     0.156 C
BRANCH  10  11
HETATM   11  C1  UNL     1      -4.468   0.699  14.590  1.00  0.00     0.184 C
BRANCH  11  12
HETATM   12  O1  UNL     1      -4.840  -0.511  15.241  1.00  0.00    -0.399 OA
ATOM     13  H1  UNL     1      -4.245  -1.173  14.911  1.00  0.00     0.209 HD
ENDBRANCH  11  12
ENDBRANCH  10  11
ENDBRANCH   9  10
BRANCH   9  14
HETATM   14  C3  UNL     1      -6.714   2.331  16.154  1.00  0.00     0.092 C
BRANCH  14  15
HETATM   15  C4  UNL     1      -6.666   1.574  17.395  1.00  0.00     0.208 C
BRANCH  15  16
HETATM   16  O2  UNL     1      -7.091   0.240  17.090  1.00  0.00    -0.396 OA
ATOM     17  H2  UNL     1      -6.996  -0.272  17.884  1.00  0.00     0.209 HD
ENDBRANCH  15  16
ENDBRANCH  14  15
ENDBRANCH   9  14
ENDBRANCH   7   9
ENDBRANCH   1   7
BRANCH   5  18
HETATM   18  O3  UNL     1      -0.936   4.131  12.646  1.00  0.00    -0.392 OA
ATOM     19  H3  UNL     1      -0.928   3.181  12.630  1.00  0.00     0.210 HD
ENDBRANCH   5  18
BRANCH   4  20
HETATM   20  N3  UNL     1      -1.575   6.953  13.675  1.00  0.00     0.095 N
HETATM   21  C9  UNL     1      -1.171   8.092  12.890  1.00  0.00     0.273 C
HETATM   22  C10 UNL     1      -0.339   8.977  13.813  1.00  0.00     0.030 C
HETATM   23  C11 UNL     1      -1.345   9.612  14.764  1.00  0.00     0.003 C
HETATM   24  C12 UNL     1      -1.903   8.503  15.589  1.00  0.00     0.030 C
HETATM   25  C13 UNL     1      -2.354   7.303  14.842  1.00  0.00     0.273 C
ENDBRANCH   4  20
TORSDOF 10
ENDMDL