MODEL 4
REMARK VINA RESULT: -6.746303661      4.757      8.823
REMARK  5 active torsions:
REMARK  status: ('A' for Active; 'I' for Inactive)
REMARK    1  A    between atoms: C1_2  and  C2_3
REMARK       I    between atoms: C1_2  and  N3_13
REMARK    2  A    between atoms: C2_3  and  N1_4
REMARK    3  A    between atoms: N3_13  and  C8_15
REMARK    4  A    between atoms: C10_17  and  C11_18
REMARK    5  A    between atoms: C11_18  and  N4_19
ROOT
HETATM    1  C8  UNL     1      -4.825   6.632  12.144  1.00  0.00     0.187 C
HETATM    2  C9  UNL     1      -6.252   6.660  11.630  1.00  0.00     0.062 C
HETATM    3  C10 UNL     1      -5.997   7.097  10.169  1.00  0.00     0.110 C
HETATM    4  C17 UNL     1      -4.828   6.237   9.849  1.00  0.00     0.225 C
HETATM    5  O2  UNL     1      -4.588   5.702   8.742  1.00  0.00    -0.273 OA
HETATM    6  N5  UNL     1      -4.047   6.149  11.045  1.00  0.00    -0.340 N
ATOM      7  H5  UNL     1      -3.092   5.798  11.104  1.00  0.00     0.164 HD
ENDROOT
BRANCH   1   8
HETATM    8  N3  UNL     1      -4.699   5.825  13.334  1.00  0.00    -0.339 N
HETATM    9  C1  UNL     1      -4.724   4.427  13.357  1.00  0.00     0.236 C
HETATM   10  O1  UNL     1      -4.867   3.774  12.280  1.00  0.00    -0.272 OA
ATOM     11  H3  UNL     1      -4.583   6.310  14.224  1.00  0.00     0.164 HD
BRANCH   9  12
HETATM   12  C2  UNL     1      -4.589   3.651  14.608  1.00  0.00     0.219 C
BRANCH  12  13
HETATM   13  N1  UNL     1      -5.471   2.557  14.752  1.00  0.00    -0.402 N
HETATM   14  C3  UNL     1      -6.738   2.793  15.337  1.00  0.00     0.119 C
HETATM   15  C4  UNL     1      -6.637   2.554  16.838  1.00  0.00     0.047 C
HETATM   16  C5  UNL     1      -6.610   1.067  17.089  1.00  0.00     0.234 C
HETATM   17  N2  UNL     1      -5.256   0.575  17.276  1.00  0.00    -0.074 N
HETATM   18  C6  UNL     1      -4.333   1.177  16.335  1.00  0.00     0.251 C
ATOM     19  H22 UNL     1      -4.944   0.705  18.238  1.00  0.00     0.277 HD
ATOM     20  H21 UNL     1      -5.221  -0.443  17.233  1.00  0.00     0.277 HD
HETATM   21  C7  UNL     1      -4.905   1.272  14.953  1.00  0.00     0.144 C
ENDBRANCH  12  13
ENDBRANCH   9  12
ENDBRANCH   1   8
BRANCH   3  22
HETATM   22  C11 UNL     1      -7.179   6.814   9.314  1.00  0.00     0.286 C
BRANCH  22  23
HETATM   23  N4  UNL     1      -7.506   7.933   8.496  1.00  0.00     0.089 N
HETATM   24  C12 UNL     1      -8.952   7.929   8.291  1.00  0.00     0.272 C
HETATM   25  C13 UNL     1      -9.420   9.000   7.368  1.00  0.00     0.030 C
HETATM   26  C14 UNL     1      -8.782  10.342   7.651  1.00  0.00     0.003 C
HETATM   27  C15 UNL     1      -7.290  10.210   7.800  1.00  0.00     0.030 C
HETATM   28  C16 UNL     1      -7.047   9.212   8.946  1.00  0.00     0.272 C
ENDBRANCH  22  23
ENDBRANCH   3  22
TORSDOF 5
ENDMDL