MODEL 1
REMARK VINA RESULT: -8.811022425      0.000      0.000
REMARK  8 active torsions:
REMARK  status: ('A' for Active; 'I' for Inactive)
REMARK    1  A    between atoms: C1_2  and  C2_3
REMARK       I    between atoms: C1_2  and  N5_20
REMARK    2  A    between atoms: C2_3  and  S1_4
REMARK    3  A    between atoms: S1_4  and  C3_5
REMARK    4  A    between atoms: N4_10  and  C4_11
REMARK    5  A    between atoms: C4_11  and  C5_12
REMARK    6  A    between atoms: C4_11  and  C6_15
REMARK    7  A    between atoms: C5_12  and  O2_13
REMARK    8  A    between atoms: N5_20  and  C11_22
ROOT
HETATM    1  C3  UNL     1      -9.024  10.986 -19.398  1.00  0.00     0.173 A
HETATM    2  N1  UNL     1      -9.040   9.771 -18.799  1.00  0.00    -0.265 N
ATOM      3  H1  UNL     1      -9.719   9.024 -18.946  1.00  0.00     0.186 HD
HETATM    4  N2  UNL     1      -7.995   9.749 -17.983  1.00  0.00    -0.007 NA
HETATM    5  N3  UNL     1      -7.348  10.917 -18.073  1.00  0.00    -0.004 NA
HETATM    6  N4  UNL     1      -7.974  11.690 -18.944  1.00  0.00    -0.248 N
ENDROOT
BRANCH   1   7
HETATM    7  S1  UNL     1     -10.204  11.580 -20.607  1.00  0.00    -0.082 SA
BRANCH   7   8
HETATM    8  C2  UNL     1     -10.919  10.214 -21.547  1.00  0.00     0.185 C
BRANCH   8   9
HETATM    9  C1  UNL     1     -11.211  10.590 -22.940  1.00  0.00     0.227 C
HETATM   10  O1  UNL     1     -12.046  11.506 -23.130  1.00  0.00    -0.273 OA
HETATM   11  N5  UNL     1     -10.584   9.950 -24.011  1.00  0.00    -0.356 N
ATOM     12  H5  UNL     1      -9.914   9.213 -23.789  1.00  0.00     0.162 HD
BRANCH  11  13
HETATM   13  C11 UNL     1     -10.806  10.247 -25.413  1.00  0.00     0.084 A
HETATM   14  C12 UNL     1     -10.475   9.145 -26.357  1.00  0.00     0.025 A
HETATM   15  C13 UNL     1      -9.477  10.021 -27.063  1.00  0.00     0.004 A
HETATM   16  C14 UNL     1      -9.732  11.098 -26.038  1.00  0.00     0.025 A
ENDBRANCH  11  13
ENDBRANCH   8   9
ENDBRANCH   7   8
ENDBRANCH   1   7
BRANCH   6  17
HETATM   17  C4  UNL     1      -7.600  13.042 -19.336  1.00  0.00     0.136 C
BRANCH  17  18
HETATM   18  C5  UNL     1      -6.549  13.509 -18.381  1.00  0.00     0.191 C
BRANCH  18  19
HETATM   19  O2  UNL     1      -7.063  13.847 -17.130  1.00  0.00    -0.399 OA
ATOM     20  H2  UNL     1      -6.391  13.929 -16.464  1.00  0.00     0.209 HD
ENDBRANCH  18  19
ENDBRANCH  17  18
BRANCH  17  21
HETATM   21  C6  UNL     1      -7.252  13.131 -20.787  1.00  0.00     0.012 C
HETATM   22  C7  UNL     1      -7.949  14.281 -21.465  1.00  0.00     0.007 C
HETATM   23  C8  UNL     1      -6.902  14.885 -22.407  1.00  0.00     0.000 C
HETATM   24  C9  UNL     1      -5.578  14.591 -21.748  1.00  0.00     0.000 C
HETATM   25  C10 UNL     1      -5.814  13.272 -21.095  1.00  0.00     0.007 C
ENDBRANCH  17  21
ENDBRANCH   6  17
TORSDOF 8
ENDMDL