MODEL 3
REMARK VINA RESULT: -6.633296262      3.073      5.011
REMARK  9 active torsions:
REMARK  status: ('A' for Active; 'I' for Inactive)
REMARK    1  A    between atoms: C2_2  and  C3_3
REMARK    2  A    between atoms: C3_3  and  C4_4
REMARK    3  A    between atoms: C4_4  and  S1_5
REMARK    4  A    between atoms: S1_5  and  C5_6
REMARK    5  A    between atoms: C5_6  and  C6_7
REMARK    6  A    between atoms: C7_9  and  O2_10
REMARK    7  A    between atoms: O2_10  and  N1_11
REMARK    8  A    between atoms: C12_18  and  O5_19
REMARK    9  A    between atoms: C13_21  and  O6_22
ROOT
HETATM    1  C6  UNL     1      -9.195  12.759 -22.248  1.00  0.00     0.165 C
HETATM    2  O1  UNL     1      -8.665  11.858 -21.376  1.00  0.00    -0.344 OA
HETATM    3  C7  UNL     1      -7.751  12.322 -20.459  1.00  0.00     0.202 C
HETATM    4  C8  UNL     1      -7.654  11.272 -19.363  1.00  0.00     0.072 C
HETATM    5  C9  UNL     1      -7.639  11.964 -18.049  1.00  0.00     0.006 C
HETATM    6  C10 UNL     1      -8.069  13.365 -18.291  1.00  0.00     0.013 C
HETATM    7  C11 UNL     1      -8.154  13.575 -19.759  1.00  0.00     0.082 C
HETATM    8  C12 UNL     1      -9.512  14.068 -20.211  1.00  0.00     0.158 C
HETATM    9  C13 UNL     1      -9.433  14.132 -21.740  1.00  0.00     0.177 C
ENDROOT
BRANCH   1  10
HETATM   10  C5  UNL     1     -10.472  12.122 -22.815  1.00  0.00     0.108 C
BRANCH  10  11
HETATM   11  S1  UNL     1     -10.554  10.365 -22.512  1.00  0.00    -0.166 SA
BRANCH  11  12
HETATM   12  C4  UNL     1     -10.703   9.375 -23.998  1.00  0.00     0.074 C
BRANCH  12  13
HETATM   13  C3  UNL     1     -11.045  10.206 -25.217  1.00  0.00     0.010 C
BRANCH  13  14
HETATM   14  C2  UNL     1      -9.995   9.953 -26.295  1.00  0.00    -0.004 C
HETATM   15  C1  UNL     1      -9.183  11.176 -26.598  1.00  0.00     0.005 C
ENDBRANCH  13  14
ENDBRANCH  12  13
ENDBRANCH  11  12
ENDBRANCH  10  11
ENDBRANCH   1  10
BRANCH   9  16
HETATM   16  O6  UNL     1      -8.420  15.008 -22.120  1.00  0.00    -0.390 OA
ATOM     17  H6  UNL     1      -8.627  15.458 -22.931  1.00  0.00     0.210 HD
ENDBRANCH   9  16
BRANCH   3  18
HETATM   18  O2  UNL     1      -6.446  12.401 -21.046  1.00  0.00    -0.180 OA
BRANCH  18  19
HETATM   19  N1  UNL     1      -5.767  13.573 -21.091  1.00  0.00     0.008 N
HETATM   20  O3  UNL     1      -5.168  14.054 -20.110  1.00  0.00    -0.511 OA
HETATM   21  O4  UNL     1      -5.719  14.293 -22.259  1.00  0.00    -0.511 OA
ENDBRANCH  18  19
ENDBRANCH   3  18
BRANCH   8  22
HETATM   22  O5  UNL     1     -10.540  13.201 -19.902  1.00  0.00    -0.392 OA
ATOM     23  H5  UNL     1     -10.534  12.408 -20.426  1.00  0.00     0.210 HD
ENDBRANCH   8  22
TORSDOF 9
ENDMDL