MODEL 4
REMARK VINA RESULT: -7.311786195      3.173      7.861
REMARK  9 active torsions:
REMARK  status: ('A' for Active; 'I' for Inactive)
REMARK    1  A    between atoms: C6_6  and  O1_7
REMARK    2  A    between atoms: O1_7  and  C7_8
REMARK    3  A    between atoms: C9_14  and  N3_15
REMARK    4  A    between atoms: N3_15  and  C10_16
REMARK    5  A    between atoms: N3_15  and  C12_20
REMARK    6  A    between atoms: C10_16  and  C11_17
REMARK    7  A    between atoms: C11_17  and  O2_18
REMARK    8  A    between atoms: C12_20  and  C13_21
REMARK    9  A    between atoms: C13_21  and  O3_22
ROOT
HETATM    1  C1  UNL     1      -6.483  13.418 -17.878  1.00  0.00     0.012 C
HETATM    2  C2  UNL     1      -6.999  12.610 -18.611  1.00  0.00    -0.113 C
HETATM    3  C3  UNL     1      -7.651  11.636 -19.515  1.00  0.00     0.064 C
HETATM    4  C4  UNL     1      -8.081  10.470 -18.687  1.00  0.00     0.019 C
HETATM    5  C5  UNL     1      -9.130   9.619 -19.338  1.00  0.00     0.034 C
HETATM    6  C6  UNL     1      -9.385   9.940 -20.773  1.00  0.00     0.130 C
HETATM    7  C16 UNL     1      -9.566  11.414 -21.048  1.00  0.00     0.034 C
HETATM    8  C17 UNL     1      -8.892  12.311 -20.068  1.00  0.00     0.019 C
ENDROOT
BRANCH   6   9
HETATM    9  O1  UNL     1     -10.544   9.235 -21.186  1.00  0.00    -0.329 OA
BRANCH   9  10
HETATM   10  C7  UNL     1     -10.470   8.212 -22.143  1.00  0.00     0.168 A
HETATM   11  N1  UNL     1     -10.199   6.940 -21.754  1.00  0.00    -0.332 N
HETATM   12  C8  UNL     1     -10.118   5.926 -22.639  1.00  0.00     0.184 A
ATOM     13  H1  UNL     1     -10.053   6.746 -20.764  1.00  0.00     0.168 HD
HETATM   14  N2  UNL     1     -10.312   6.212 -23.916  1.00  0.00    -0.337 N
HETATM   15  C9  UNL     1     -10.585   7.429 -24.415  1.00  0.00     0.129 A
ATOM     16  H2  UNL     1     -10.249   5.441 -24.581  1.00  0.00     0.168 HD
HETATM   17  C14 UNL     1     -10.666   8.468 -23.483  1.00  0.00     0.139 A
HETATM   18  C15 UNL     1     -10.954   9.814 -23.913  1.00  0.00     0.107 C
HETATM   19  N4  UNL     1     -11.185  10.902 -24.261  1.00  0.00    -0.191 NA
BRANCH  15  20
HETATM   20  N3  UNL     1     -10.783   7.669 -25.799  1.00  0.00    -0.362 N
BRANCH  20  21
HETATM   21  C10 UNL     1     -12.086   7.378 -26.356  1.00  0.00     0.150 C
BRANCH  21  22
HETATM   22  C11 UNL     1     -11.924   6.117 -27.206  1.00  0.00     0.183 C
BRANCH  22  23
HETATM   23  O2  UNL     1     -11.838   4.980 -26.415  1.00  0.00    -0.399 OA
ATOM     24  H2  UNL     1     -10.945   4.660 -26.364  1.00  0.00     0.209 HD
ENDBRANCH  22  23
ENDBRANCH  21  22
ENDBRANCH  20  21
BRANCH  20  25
HETATM   25  C12 UNL     1      -9.776   8.187 -26.699  1.00  0.00     0.150 C
BRANCH  25  26
HETATM   26  C13 UNL     1     -10.216   9.429 -27.430  1.00  0.00     0.183 C
BRANCH  26  27
HETATM   27  O3  UNL     1      -9.398  10.474 -26.941  1.00  0.00    -0.399 OA
ATOM     28  H3  UNL     1      -9.924  11.263 -26.998  1.00  0.00     0.209 HD
ENDBRANCH  26  27
ENDBRANCH  25  26
ENDBRANCH  20  25
ENDBRANCH  15  20
ENDBRANCH   9  10
ENDBRANCH   6   9
TORSDOF 9
ENDMDL