MODEL 3
REMARK VINA RESULT: -7.635673141      1.047      2.023
REMARK  9 active torsions:
REMARK  status: ('A' for Active; 'I' for Inactive)
REMARK    1  A    between atoms: C2_2  and  C13_19
REMARK    2  A    between atoms: N1_3  and  O1_5
REMARK    3  A    between atoms: O1_5  and  C3_6
REMARK    4  A    between atoms: C3_6  and  C4_7
REMARK    5  A    between atoms: C4_7  and  O2_8
REMARK    6  A    between atoms: C4_7  and  C5_10
REMARK    7  A    between atoms: C5_10  and  N2_11
REMARK    8  A    between atoms: C13_19  and  O3_20
REMARK    9  A    between atoms: C13_19  and  N3_22
ROOT
HETATM    1  O1  UNL     1      -8.650   9.017 -19.036  1.00  0.00    -0.278 OA
ENDROOT
BRANCH   1   2
HETATM    2  N1  UNL     1      -9.778   8.868 -19.793  1.00  0.00    -0.271 N
HETATM    3  C2  UNL     1      -9.774   8.307 -20.959  1.00  0.00     0.054 C
HETATM    4  C1  UNL     1      -8.469   7.806 -21.484  1.00  0.00     0.070 C
ATOM      5  H1  UNL     1     -10.663   9.214 -19.422  1.00  0.00     0.193 HD
BRANCH   3   6
HETATM    6  C13 UNL     1     -11.026   8.170 -21.736  1.00  0.00     0.273 C
BRANCH   6   7
HETATM    7  O3  UNL     1     -11.593   6.920 -21.448  1.00  0.00    -0.371 OA
ATOM      8  H3  UNL     1     -12.529   7.034 -21.327  1.00  0.00     0.212 HD
ENDBRANCH   6   7
BRANCH   6   9
HETATM    9  N3  UNL     1     -10.814   8.290 -23.159  1.00  0.00    -0.320 N
HETATM   10  C14 UNL     1     -10.867   9.430 -23.876  1.00  0.00     0.112 A
HETATM   11  C15 UNL     1     -10.614   9.159 -25.192  1.00  0.00     0.106 A
HETATM   12  N4  UNL     1     -10.403   7.839 -25.278  1.00  0.00    -0.361 N
HETATM   13  C16 UNL     1     -10.524   7.291 -24.034  1.00  0.00     0.185 A
ATOM     14  H4  UNL     1     -10.188   7.327 -26.133  1.00  0.00     0.166 HD
ENDBRANCH   6   9
ENDBRANCH   3   6
ENDBRANCH   1   2
BRANCH   1  15
HETATM   15  C3  UNL     1      -8.450  10.176 -18.235  1.00  0.00     0.238 C
BRANCH  15  16
HETATM   16  C4  UNL     1      -7.918  11.311 -19.075  1.00  0.00     0.183 C
BRANCH  16  17
HETATM   17  O2  UNL     1      -7.185  10.794 -20.142  1.00  0.00    -0.388 OA
ATOM     18  H2  UNL     1      -6.972   9.884 -19.968  1.00  0.00     0.210 HD
ENDBRANCH  16  17
BRANCH  16  19
HETATM   19  C5  UNL     1      -8.956  12.314 -19.469  1.00  0.00     0.101 C
BRANCH  19  20
HETATM   20  N2  UNL     1      -8.910  12.825 -20.774  1.00  0.00    -0.351 N
HETATM   21  C6  UNL     1      -9.311  12.048 -21.863  1.00  0.00     0.072 C
HETATM   22  C7  UNL     1     -10.133  12.897 -22.809  1.00  0.00     0.021 C
HETATM   23  C8  UNL     1     -11.489  13.236 -22.220  1.00  0.00     0.015 C
HETATM   24  C9  UNL     1      -9.431  14.131 -23.222  1.00  0.00     0.019 C
HETATM   25  C10 UNL     1      -8.408  14.687 -22.309  1.00  0.00     0.021 C
HETATM   26  C11 UNL     1      -7.063  14.869 -23.035  1.00  0.00     0.015 C
HETATM   27  C12 UNL     1      -8.220  14.026 -21.000  1.00  0.00     0.072 C
ENDBRANCH  19  20
ENDBRANCH  16  19
ENDBRANCH  15  16
ENDBRANCH   1  15
TORSDOF 9
ENDMDL