MODEL 5
REMARK VINA RESULT: -5.886975195      2.085      6.504
REMARK  8 active torsions:
REMARK  status: ('A' for Active; 'I' for Inactive)
REMARK    1  A    between atoms: N1_2  and  C2_5
REMARK    2  A    between atoms: C2_5  and  C3_6
REMARK    3  A    between atoms: C3_6  and  C4_7
REMARK    4  A    between atoms: C4_7  and  O1_8
REMARK    5  A    between atoms: O1_8  and  C5_9
REMARK    6  A    between atoms: C5_9  and  C6_10
REMARK    7  A    between atoms: C12_16  and  N2_17
REMARK    8  A    between atoms: C15_20  and  O2_21
ROOT
HETATM    1  C6  UNL     1      -8.756  10.944 -19.507  1.00  0.00     0.162 C
HETATM    2  C7  UNL     1      -7.413  11.503 -19.785  1.00  0.00     0.048 C
HETATM    3  C8  UNL     1      -7.292  12.992 -19.803  1.00  0.00     0.004 C
HETATM    4  C9  UNL     1      -7.892  13.539 -18.495  1.00  0.00     0.012 C
HETATM    5  C10 UNL     1      -6.506  13.509 -17.925  1.00  0.00     0.002 C
HETATM    6  C11 UNL     1      -5.975  13.535 -19.329  1.00  0.00     0.012 C
HETATM    7  C12 UNL     1      -7.947  13.671 -20.946  1.00  0.00     0.320 C
HETATM    8  S1  UNL     1      -9.611  12.875 -21.033  1.00  0.00     0.026 SA
HETATM    9  O3  UNL     1      -9.820  11.768 -19.795  1.00  0.00    -0.310 OA
ENDROOT
BRANCH   1  10
HETATM   10  C5  UNL     1      -8.866   9.617 -20.278  1.00  0.00     0.200 C
BRANCH  10  11
HETATM   11  O1  UNL     1      -9.920   8.905 -19.695  1.00  0.00    -0.389 OA
BRANCH  11  12
HETATM   12  C4  UNL     1     -11.014   8.888 -20.569  1.00  0.00     0.169 C
BRANCH  12  13
HETATM   13  C3  UNL     1     -10.543   8.840 -21.990  1.00  0.00     0.054 C
BRANCH  13  14
HETATM   14  C2  UNL     1     -10.726   7.433 -22.545  1.00  0.00     0.234 C
BRANCH  14  15
HETATM   15  N1  UNL     1     -10.900   6.517 -21.410  1.00  0.00    -0.079 N
HETATM   16  C1  UNL     1      -9.907   5.472 -21.543  1.00  0.00     0.266 C
ATOM     17  H12 UNL     1     -11.851   6.156 -21.331  1.00  0.00     0.276 HD
ATOM     18  H11 UNL     1     -10.862   6.990 -20.508  1.00  0.00     0.276 HD
ENDBRANCH  14  15
ENDBRANCH  13  14
ENDBRANCH  12  13
ENDBRANCH  11  12
ENDBRANCH  10  11
ENDBRANCH   1  10
BRANCH   7  19
HETATM   19  N2  UNL     1      -7.403  13.545 -22.233  1.00  0.00     0.108 N
HETATM   20  C13 UNL     1      -6.504  14.519 -22.717  1.00  0.00     0.277 C
HETATM   21  C14 UNL     1      -7.310  15.755 -23.070  1.00  0.00     0.064 C
HETATM   22  C15 UNL     1      -8.641  15.154 -23.458  1.00  0.00     0.148 C
HETATM   23  C16 UNL     1      -8.530  13.685 -23.179  1.00  0.00     0.305 C
BRANCH  22  24
HETATM   24  O2  UNL     1      -9.655  15.767 -22.732  1.00  0.00    -0.394 OA
ATOM     25  H2  UNL     1     -10.331  16.071 -23.327  1.00  0.00     0.210 HD
ENDBRANCH  22  24
ENDBRANCH   7  19
TORSDOF 8
ENDMDL