MODEL 5
REMARK VINA RESULT: -7.684514484      2.565      3.226
REMARK  9 active torsions:
REMARK  status: ('A' for Active; 'I' for Inactive)
REMARK    1  A    between atoms: C4_4  and  O1_5
REMARK    2  A    between atoms: O1_5  and  C5_6
REMARK    3  A    between atoms: C5_6  and  C6_7
REMARK    4  A    between atoms: C6_7  and  O2_8
REMARK    5  A    between atoms: C6_7  and  C7_10
REMARK    6  A    between atoms: C9_13  and  N1_14
REMARK    7  A    between atoms: C11_21  and  O5_22
REMARK    8  A    between atoms: O5_22  and  C12_23
REMARK    9  A    between atoms: C12_23  and  C13_24
ROOT
HETATM    1  C5  UNL     1     -10.652   8.968 -23.005  1.00  0.00     0.213 C
ENDROOT
BRANCH   1   2
HETATM    2  O1  UNL     1     -11.075   9.286 -21.686  1.00  0.00    -0.341 OA
BRANCH   2   3
HETATM    3  C4  UNL     1     -10.300  10.286 -21.053  1.00  0.00     0.112 A
HETATM    4  C3  UNL     1     -10.590  11.622 -20.966  1.00  0.00     0.054 A
HETATM    5  C2  UNL     1      -9.708  12.405 -20.312  1.00  0.00    -0.018 A
HETATM    6  C1  UNL     1      -9.963  13.908 -20.216  1.00  0.00     0.052 C
HETATM    7  C11 UNL     1      -8.604  11.831 -19.788  1.00  0.00     0.118 A
HETATM    8  S1  UNL     1      -8.819  10.160 -20.228  1.00  0.00    -0.040 SA
BRANCH   7   9
HETATM    9  O5  UNL     1      -7.531  12.337 -19.072  1.00  0.00    -0.343 OA
BRANCH   9  10
HETATM   10  C12 UNL     1      -6.487  13.122 -19.486  1.00  0.00     0.181 C
BRANCH  10  11
HETATM   11  C13 UNL     1      -6.154  13.242 -20.928  1.00  0.00     0.010 A
HETATM   12  C14 UNL     1      -5.296  14.326 -21.446  1.00  0.00     0.007 A
HETATM   13  C15 UNL     1      -6.736  14.401 -21.733  1.00  0.00     0.007 A
ENDBRANCH  10  11
ENDBRANCH   9  10
ENDBRANCH   7   9
ENDBRANCH   2   3
ENDBRANCH   1   2
BRANCH   1  14
HETATM   14  C6  UNL     1     -10.317   7.515 -23.163  1.00  0.00     0.197 C
BRANCH  14  15
HETATM   15  O2  UNL     1     -11.417   6.780 -22.727  1.00  0.00    -0.388 OA
ATOM     16  H2  UNL     1     -11.415   5.956 -23.199  1.00  0.00     0.210 HD
ENDBRANCH  14  15
BRANCH  14  17
HETATM   17  C7  UNL     1     -10.020   7.227 -24.626  1.00  0.00     0.290 C
HETATM   18  O3  UNL     1     -10.661   6.095 -25.078  1.00  0.00    -0.356 OA
HETATM   19  C8  UNL     1     -10.765   6.174 -26.475  1.00  0.00     0.205 C
HETATM   20  C9  UNL     1     -11.854   7.212 -26.748  1.00  0.00     0.231 C
HETATM   21  C10 UNL     1     -11.479   8.446 -25.950  1.00  0.00     0.205 C
HETATM   22  O4  UNL     1     -10.228   8.350 -25.392  1.00  0.00    -0.356 OA
BRANCH  20  23
HETATM   23  N1  UNL     1     -13.096   6.626 -26.227  1.00  0.00    -0.071 N
ATOM     24  H13 UNL     1     -13.037   6.346 -25.247  1.00  0.00     0.274 HD
ATOM     25  H12 UNL     1     -13.852   7.301 -26.114  1.00  0.00     0.274 HD
ATOM     26  H11 UNL     1     -13.322   5.858 -26.859  1.00  0.00     0.274 HD
ENDBRANCH  20  23
ENDBRANCH  14  17
ENDBRANCH   1  14
TORSDOF 9
ENDMDL