MODEL 1
REMARK VINA RESULT: -7.557068897      0.000      0.000
REMARK  10 active torsions:
REMARK  status: ('A' for Active; 'I' for Inactive)
REMARK    1  A    between atoms: C1_2  and  C2_3
REMARK    2  A    between atoms: C1_2  and  O2_12
REMARK    3  A    between atoms: C2_3  and  C3_4
REMARK    4  A    between atoms: C3_4  and  C4_5
REMARK    5  A    between atoms: C4_5  and  C5_6
REMARK    6  A    between atoms: O2_12  and  C10_13
REMARK    7  A    between atoms: C10_13  and  C11_14
REMARK    8  A    between atoms: C11_14  and  C12_15
REMARK    9  A    between atoms: C12_15  and  O3_16
REMARK   10  A    between atoms: C14_20  and  O5_21
ROOT
HETATM    1  O2  UNL     1     -10.781  11.223 -21.593  1.00  0.00    -0.318 OA
ENDROOT
BRANCH   1   2
HETATM    2  C1  UNL     1     -11.339  12.269 -22.347  1.00  0.00     0.258 C
HETATM    3  O1  UNL     1     -12.315  11.980 -23.040  1.00  0.00    -0.265 OA
BRANCH   2   4
HETATM    4  C2  UNL     1     -10.756  13.606 -22.278  1.00  0.00     0.111 C
BRANCH   4   5
HETATM    5  C3  UNL     1      -9.308  13.721 -22.651  1.00  0.00     0.010 C
BRANCH   5   6
HETATM    6  C4  UNL     1      -8.497  14.102 -21.493  1.00  0.00     0.005 C
BRANCH   6   7
HETATM    7  C5  UNL     1      -7.717  12.948 -20.855  1.00  0.00    -0.013 C
HETATM    8  C6  UNL     1      -6.258  13.160 -20.806  1.00  0.00     0.015 C
HETATM    9  C7  UNL     1      -5.634  13.829 -19.658  1.00  0.00     0.074 C
HETATM   10  S1  UNL     1      -6.524  13.493 -18.087  1.00  0.00    -0.169 SA
HETATM   11  C8  UNL     1      -7.518  12.003 -18.507  1.00  0.00     0.074 C
HETATM   12  C9  UNL     1      -8.399  12.420 -19.640  1.00  0.00     0.015 C
ENDBRANCH   6   7
ENDBRANCH   5   6
ENDBRANCH   4   5
ENDBRANCH   2   4
ENDBRANCH   1   2
BRANCH   1  13
HETATM   13  C10 UNL     1     -11.532  10.043 -21.325  1.00  0.00     0.227 C
BRANCH  13  14
HETATM   14  C11 UNL     1     -10.640   8.873 -21.668  1.00  0.00     0.166 C
HETATM   15  O4  UNL     1     -11.184   7.708 -21.131  1.00  0.00    -0.365 OA
HETATM   16  C13 UNL     1     -10.699   6.632 -21.833  1.00  0.00     0.209 C
HETATM   17  C14 UNL     1     -10.322   7.099 -23.200  1.00  0.00     0.214 C
HETATM   18  C15 UNL     1     -10.617   8.561 -23.122  1.00  0.00     0.196 C
HETATM   19  O6  UNL     1     -10.802   9.349 -24.029  1.00  0.00    -0.292 OA
BRANCH  14  20
HETATM   20  C12 UNL     1      -9.243   9.074 -21.116  1.00  0.00     0.212 C
BRANCH  20  21
HETATM   21  O3  UNL     1      -9.262   9.092 -19.735  1.00  0.00    -0.397 OA
ATOM     22  H3  UNL     1      -9.712   9.865 -19.417  1.00  0.00     0.209 HD
ENDBRANCH  20  21
ENDBRANCH  14  20
BRANCH  17  23
HETATM   23  O5  UNL     1     -11.113   6.468 -24.160  1.00  0.00    -0.386 OA
ATOM     24  H5  UNL     1     -11.847   7.024 -24.396  1.00  0.00     0.210 HD
ENDBRANCH  17  23
ENDBRANCH  13  14
ENDBRANCH   1  13
TORSDOF 10
ENDMDL