MODEL 3
REMARK VINA RESULT: -6.708110980      3.187      4.759
REMARK  8 active torsions:
REMARK  status: ('A' for Active; 'I' for Inactive)
REMARK    1  A    between atoms: C2_2  and  C3_3
REMARK    2  A    between atoms: C3_3  and  C4_4
REMARK    3  A    between atoms: C4_4  and  C5_5
REMARK    4  A    between atoms: N1_7  and  C7_8
REMARK    5  A    between atoms: C9_10  and  O1_11
REMARK    6  A    between atoms: O1_11  and  S1_12
REMARK    7  A    between atoms: C10_16  and  C11_17
REMARK    8  A    between atoms: C11_17  and  O5_18
ROOT
HETATM    1  C7  UNL     1      -9.519  11.384 -20.064  1.00  0.00     0.237 C
HETATM    2  C8  UNL     1      -8.196  10.728 -19.724  1.00  0.00     0.091 C
HETATM    3  C9  UNL     1      -8.749   9.546 -18.911  1.00  0.00     0.180 C
HETATM    4  C10 UNL     1      -9.937   9.203 -19.786  1.00  0.00     0.178 C
HETATM    5  O6  UNL     1     -10.348  10.351 -20.409  1.00  0.00    -0.356 OA
ENDROOT
BRANCH   1   6
HETATM    6  N1  UNL     1      -9.387  12.411 -21.056  1.00  0.00    -0.299 N
HETATM    7  C6  UNL     1      -8.909  13.666 -20.997  1.00  0.00     0.117 A
HETATM    8  C5  UNL     1      -9.110  14.025 -22.329  1.00  0.00     0.016 A
HETATM    9  S2  UNL     1      -9.769  12.482 -22.684  1.00  0.00    -0.014 SA
BRANCH   8  10
HETATM   10  C4  UNL     1      -8.876  15.230 -23.174  1.00  0.00     0.049 C
BRANCH  10  11
HETATM   11  C3  UNL     1      -7.424  15.621 -22.991  1.00  0.00     0.005 C
BRANCH  11  12
HETATM   12  C2  UNL     1      -6.510  14.417 -23.049  1.00  0.00    -0.004 C
HETATM   13  C1  UNL     1      -5.567  14.357 -21.887  1.00  0.00     0.005 C
ENDBRANCH  11  12
ENDBRANCH  10  11
ENDBRANCH   8  10
ENDBRANCH   1   6
BRANCH   3  14
HETATM   14  O1  UNL     1      -9.162  10.086 -17.699  1.00  0.00    -0.249 OA
BRANCH  14  15
HETATM   15  S1  UNL     1      -7.934  10.307 -16.614  1.00  0.00     0.252 S
HETATM   16  O2  UNL     1      -7.693  11.799 -16.484  1.00  0.00    -0.572 OA
HETATM   17  O3  UNL     1      -8.418   9.809 -15.258  1.00  0.00    -0.572 OA
HETATM   18  O4  UNL     1      -6.546   9.473 -16.978  1.00  0.00    -0.572 OA
ENDBRANCH  14  15
ENDBRANCH   3  14
BRANCH   4  19
HETATM   19  C11 UNL     1      -9.458   8.232 -20.873  1.00  0.00     0.198 C
BRANCH  19  20
HETATM   20  O5  UNL     1     -10.364   7.187 -21.027  1.00  0.00    -0.398 OA
ATOM     21  H5  UNL     1     -10.265   6.554 -20.326  1.00  0.00     0.209 HD
ENDBRANCH  19  20
ENDBRANCH   4  19
TORSDOF 8
ENDMDL