MODEL 4
REMARK VINA RESULT: -7.056121078      1.458      2.450
REMARK  12 active torsions:
REMARK  status: ('A' for Active; 'I' for Inactive)
REMARK    1  A    between atoms: C2_2  and  O2_4
REMARK    2  A    between atoms: O2_4  and  C3_5
REMARK    3  A    between atoms: C6_9  and  C7_10
REMARK    4  A    between atoms: C7_10  and  O4_11
REMARK    5  A    between atoms: C8_13  and  O5_14
REMARK    6  A    between atoms: O5_14  and  C9_15
REMARK    7  A    between atoms: C9_15  and  C10_16
REMARK    8  A    between atoms: C10_16  and  C11_17
REMARK    9  A    between atoms: C12_18  and  C13_19
REMARK   10  A    between atoms: C13_19  and  C14_20
REMARK   11  A    between atoms: C14_20  and  C15_21
REMARK   12  A    between atoms: C16_22  and  O6_23
ROOT
HETATM    1  C15 UNL     1     -10.040   6.666 -26.654  1.00  0.00     0.056 C
HETATM    2  C16 UNL     1      -9.820   5.467 -26.205  1.00  0.00     0.147 C
HETATM    3  C17 UNL     1      -8.796   4.690 -26.884  1.00  0.00     0.124 C
HETATM    4  N1  UNL     1      -7.981   4.093 -27.440  1.00  0.00    -0.189 NA
ENDROOT
BRANCH   2   5
HETATM    5  O6  UNL     1     -10.491   4.894 -25.140  1.00  0.00    -0.351 OA
ATOM      6  H6  UNL     1     -10.073   4.581 -24.347  1.00  0.00     0.218 HD
ENDBRANCH   2   5
BRANCH   1   7
HETATM    7  C14 UNL     1     -11.032   7.606 -26.097  1.00  0.00     0.059 C
BRANCH   7   8
HETATM    8  C13 UNL     1     -10.950   8.447 -25.223  1.00  0.00    -0.128 C
BRANCH   8   9
HETATM    9  C12 UNL     1     -10.848   9.433 -24.186  1.00  0.00     0.063 C
HETATM   10  C11 UNL     1     -10.920  10.778 -24.531  1.00  0.00     0.061 C
BRANCH  10  11
HETATM   11  C10 UNL     1     -10.811  11.700 -23.438  1.00  0.00    -0.129 C
BRANCH  11  12
HETATM   12  C9  UNL     1     -10.720  12.475 -22.523  1.00  0.00     0.253 C
BRANCH  12  13
HETATM   13  O5  UNL     1     -10.221  12.510 -21.318  1.00  0.00    -0.371 OA
BRANCH  13  14
HETATM   14  C8  UNL     1      -9.525  12.153 -20.270  1.00  0.00     0.165 C
HETATM   15  C3  UNL     1      -8.360  12.931 -19.767  1.00  0.00     0.168 C
HETATM   16  C4  UNL     1      -7.206  11.970 -19.559  1.00  0.00     0.114 C
HETATM   17  C5  UNL     1      -7.982  10.704 -19.319  1.00  0.00     0.138 C
HETATM   18  O3  UNL     1      -7.813   9.913 -18.441  1.00  0.00    -0.297 OA
HETATM   19  C6  UNL     1      -8.968  10.687 -20.391  1.00  0.00     0.110 C
BRANCH  15  20
HETATM   20  O2  UNL     1      -8.004  14.089 -20.444  1.00  0.00    -0.313 OA
BRANCH  20  21
HETATM   21  C2  UNL     1      -7.132  14.119 -21.519  1.00  0.00     0.255 C
HETATM   22  C1  UNL     1      -5.665  14.234 -21.443  1.00  0.00     0.126 C
HETATM   23  O1  UNL     1      -7.646  14.047 -22.675  1.00  0.00    -0.266 OA
ENDBRANCH  20  21
ENDBRANCH  15  20
BRANCH  19  24
HETATM   24  C7  UNL     1     -10.072   9.709 -20.319  1.00  0.00     0.179 C
BRANCH  24  25
HETATM   25  O4  UNL     1      -9.735   8.416 -20.013  1.00  0.00    -0.400 OA
ATOM     26  H4  UNL     1     -10.450   7.815 -19.841  1.00  0.00     0.209 HD
ENDBRANCH  24  25
ENDBRANCH  19  24
ENDBRANCH  13  14
ENDBRANCH  12  13
ENDBRANCH  11  12
ENDBRANCH  10  11
ENDBRANCH   8   9
ENDBRANCH   7   8
ENDBRANCH   1   7
TORSDOF 12
ENDMDL