MODEL 5
REMARK VINA RESULT: -5.461857448      1.547      5.830
REMARK  4 active torsions:
REMARK  status: ('A' for Active; 'I' for Inactive)
REMARK    1  A    between atoms: C2_2  and  O2_4
REMARK    2  A    between atoms: O2_4  and  C3_5
REMARK    3  A    between atoms: C6_8  and  O3_9
REMARK    4  A    between atoms: C7_11  and  O4_12
ROOT
HETATM    1  C3  UNL     1      13.330  20.696   3.971  1.00  0.00     0.168 C
HETATM    2  C4  UNL     1      13.937  22.002   4.455  1.00  0.00     0.045 C
HETATM    3  C5  UNL     1      15.095  22.369   3.563  1.00  0.00     0.015 C
HETATM    4  C6  UNL     1      12.841  23.023   4.430  1.00  0.00     0.154 C
HETATM    5  C7  UNL     1      11.746  22.654   5.347  1.00  0.00     0.161 C
HETATM    6  C8  UNL     1      11.216  21.265   5.230  1.00  0.00     0.049 C
HETATM    7  C9  UNL     1      10.772  20.897   6.665  1.00  0.00     0.024 C
HETATM    8  C10 UNL     1       9.974  21.288   4.426  1.00  0.00     0.233 C
HETATM    9  O5  UNL     1       9.769  22.526   3.764  1.00  0.00    -0.225 OA
HETATM   10  O6  UNL     1       8.528  22.607   3.426  1.00  0.00    -0.200 OA
HETATM   11  C11 UNL     1       8.088  21.724   2.491  1.00  0.00     0.195 C
HETATM   12  C12 UNL     1       8.319  22.324   1.118  1.00  0.00     0.082 C
HETATM   13  C13 UNL     1       6.593  21.473   2.616  1.00  0.00     0.082 C
HETATM   14  O7  UNL     1       8.796  20.479   2.501  1.00  0.00    -0.311 OA
HETATM   15  C14 UNL     1       9.834  20.275   3.390  1.00  0.00     0.112 C
HETATM   16  C15 UNL     1      10.617  19.231   3.276  1.00  0.00     0.075 C
HETATM   17  C16 UNL     1      10.436  18.207   2.188  1.00  0.00     0.079 C
HETATM   18  O8  UNL     1      11.631  19.104   4.209  1.00  0.00    -0.344 OA
HETATM   19  C17 UNL     1      12.218  20.226   4.857  1.00  0.00     0.172 C
ENDROOT
BRANCH   1  20
HETATM   20  O2  UNL     1      14.411  19.753   4.074  1.00  0.00    -0.313 OA
BRANCH  20  21
HETATM   21  C2  UNL     1      14.841  19.288   5.301  1.00  0.00     0.255 C
HETATM   22  C1  UNL     1      16.067  19.883   5.885  1.00  0.00     0.126 C
HETATM   23  O1  UNL     1      14.152  18.386   5.834  1.00  0.00    -0.266 OA
ENDBRANCH  20  21
ENDBRANCH   1  20
BRANCH   4  24
HETATM   24  O3  UNL     1      12.482  23.275   3.126  1.00  0.00    -0.393 OA
ATOM     25  H3  UNL     1      12.393  22.452   2.660  1.00  0.00     0.210 HD
ENDBRANCH   4  24
BRANCH   5  26
HETATM   26  O4  UNL     1      12.187  22.938   6.664  1.00  0.00    -0.392 OA
ATOM     27  H4  UNL     1      11.810  22.280   7.235  1.00  0.00     0.210 HD
ENDBRANCH   5  26
TORSDOF 4
ENDMDL