MODEL 4
REMARK VINA RESULT: -6.923803245      1.838      5.921
REMARK  6 active torsions:
REMARK  status: ('A' for Active; 'I' for Inactive)
REMARK    1  A    between atoms: C6_8  and  O3_9
REMARK    2  A    between atoms: O3_9  and  C7_10
REMARK    3  A    between atoms: C9_13  and  O5_14
REMARK    4  A    between atoms: C10_16  and  O6_17
REMARK    5  A    between atoms: C15_23  and  O7_24
REMARK    6  A    between atoms: O7_24  and  C16_25
ROOT
HETATM    1  C1  UNL     1      11.276  23.692   5.799  1.00  0.00     0.028 C
HETATM    2  C2  UNL     1      12.027  22.835   5.143  1.00  0.00     0.037 C
HETATM    3  C3  UNL     1      12.124  21.516   5.747  1.00  0.00     0.292 C
HETATM    4  O1  UNL     1      11.208  21.180   6.563  1.00  0.00    -0.260 OA
HETATM    5  O2  UNL     1      13.130  20.601   5.505  1.00  0.00    -0.303 OA
HETATM    6  C4  UNL     1      14.259  20.694   4.622  1.00  0.00     0.104 C
HETATM    7  C5  UNL     1      13.726  20.280   3.254  1.00  0.00     0.050 C
HETATM    8  C6  UNL     1      15.214  19.647   5.068  1.00  0.00     0.198 C
HETATM    9  C9  UNL     1      16.516  20.167   5.608  1.00  0.00     0.179 C
HETATM   10  C10 UNL     1      17.149  21.191   4.740  1.00  0.00     0.150 C
HETATM   11  C11 UNL     1      16.215  22.071   4.013  1.00  0.00     0.046 C
HETATM   12  C12 UNL     1      14.797  22.085   4.607  1.00  0.00    -0.005 C
HETATM   13  C13 UNL     1      14.914  22.677   5.975  1.00  0.00     0.018 C
HETATM   14  C14 UNL     1      14.084  23.038   3.720  1.00  0.00     0.050 C
HETATM   15  C15 UNL     1      12.667  23.292   3.903  1.00  0.00     0.171 C
ENDROOT
BRANCH   8  16
HETATM   16  O3  UNL     1      14.695  18.800   6.090  1.00  0.00    -0.310 OA
BRANCH  16  17
HETATM   17  C7  UNL     1      15.410  17.826   6.726  1.00  0.00     0.255 C
HETATM   18  C8  UNL     1      15.620  17.951   8.193  1.00  0.00     0.126 C
HETATM   19  O4  UNL     1      15.854  16.874   6.043  1.00  0.00    -0.266 OA
ENDBRANCH  16  17
ENDBRANCH   8  16
BRANCH   9  20
HETATM   20  O5  UNL     1      17.393  19.059   5.670  1.00  0.00    -0.390 OA
ATOM     21  H5  UNL     1      18.273  19.412   5.622  1.00  0.00     0.210 HD
ENDBRANCH   9  20
BRANCH  10  22
HETATM   22  O6  UNL     1      18.100  21.896   5.515  1.00  0.00    -0.393 OA
ATOM     23  H6  UNL     1      18.193  22.767   5.147  1.00  0.00     0.210 HD
ENDBRANCH  10  22
BRANCH  15  24
HETATM   24  O7  UNL     1      12.379  24.682   3.759  1.00  0.00    -0.311 OA
BRANCH  24  25
HETATM   25  C16 UNL     1      12.738  25.444   2.682  1.00  0.00     0.255 C
HETATM   26  C17 UNL     1      11.813  25.543   1.514  1.00  0.00     0.126 C
HETATM   27  O8  UNL     1      13.841  26.043   2.705  1.00  0.00    -0.266 OA
ENDBRANCH  24  25
ENDBRANCH  15  24
TORSDOF 6
ENDMDL