MODEL 3
REMARK VINA RESULT: -6.178992095      2.217      4.518
REMARK  4 active torsions:
REMARK  status: ('A' for Active; 'I' for Inactive)
REMARK    1  A    between atoms: C4_4  and  O1_5
REMARK    2  A    between atoms: C10_15  and  C12_17
REMARK    3  A    between atoms: C12_17  and  O5_18
REMARK    4  A    between atoms: O5_18  and  C13_19
ROOT
HETATM    1  C1  UNL     1      11.304  23.882   3.770  1.00  0.00     0.010 C
HETATM    2  C2  UNL     1      11.240  23.203   5.095  1.00  0.00    -0.006 C
HETATM    3  C3  UNL     1      12.550  23.173   5.834  1.00  0.00     0.042 C
HETATM    4  C4  UNL     1      13.722  22.800   5.004  1.00  0.00     0.183 C
HETATM    5  C5  UNL     1      13.632  21.344   4.572  1.00  0.00     0.220 C
HETATM    6  C6  UNL     1      14.874  20.942   3.796  1.00  0.00     0.085 C
HETATM    7  O2  UNL     1      13.435  20.493   5.632  1.00  0.00    -0.195 OA
HETATM    8  O3  UNL     1      13.060  19.315   5.127  1.00  0.00    -0.194 OA
HETATM    9  C7  UNL     1      11.665  19.447   4.914  1.00  0.00     0.228 C
HETATM   10  C8  UNL     1      11.048  19.314   6.312  1.00  0.00     0.085 C
HETATM   11  O4  UNL     1      11.293  18.429   4.079  1.00  0.00    -0.347 OA
HETATM   12  C9  UNL     1      10.687  18.818   2.911  1.00  0.00     0.211 C
HETATM   13  C10 UNL     1       9.240  19.140   3.204  1.00  0.00     0.101 C
HETATM   14  C11 UNL     1       8.593  17.882   3.754  1.00  0.00     0.051 C
HETATM   15  O7  UNL     1       9.143  20.176   4.100  1.00  0.00    -0.367 OA
HETATM   16  C14 UNL     1      10.119  21.160   3.912  1.00  0.00     0.171 A
HETATM   17  C15 UNL     1      10.668  21.832   5.076  1.00  0.00     0.065 A
HETATM   18  C16 UNL     1      11.455  20.822   4.365  1.00  0.00     0.156 A
HETATM   19  O8  UNL     1      12.563  21.257   3.690  1.00  0.00    -0.331 OA
ENDROOT
BRANCH  13  20
HETATM   20  C12 UNL     1       8.529  19.452   1.896  1.00  0.00     0.220 C
BRANCH  20  21
HETATM   21  O5  UNL     1       7.210  19.859   2.238  1.00  0.00    -0.303 OA
BRANCH  21  22
HETATM   22  C13 UNL     1       6.719  21.110   1.915  1.00  0.00     0.372 C
HETATM   23  N1  UNL     1       7.545  22.045   1.240  1.00  0.00    -0.032 NA
HETATM   24  O6  UNL     1       5.545  21.420   2.216  1.00  0.00    -0.242 OA
ENDBRANCH  21  22
ENDBRANCH  20  21
ENDBRANCH  13  20
BRANCH   4  25
HETATM   25  O1  UNL     1      14.876  23.009   5.759  1.00  0.00    -0.390 OA
ATOM     26  H1  UNL     1      14.982  22.271   6.350  1.00  0.00     0.210 HD
ENDBRANCH   4  25
TORSDOF 4
ENDMDL