MODEL 2
REMARK VINA RESULT: -2.126321852      1.773      3.462
REMARK  3 active torsions:
REMARK  status: ('A' for Active; 'I' for Inactive)
REMARK    1  A    between atoms: C2_2  and  C4_4
REMARK    2  A    between atoms: C5_5  and  O1_6
REMARK    3  A    between atoms: C8_12  and  O4_14
ROOT
HETATM    1  C4  UNL     1      16.801  22.403   6.152  1.00  0.00     0.103 C
HETATM    2  C5  UNL     1      16.906  21.759   4.769  1.00  0.00     0.271 C
HETATM    3  O2  UNL     1      15.807  21.141   4.327  1.00  0.00    -0.324 OA
HETATM    4  C6  UNL     1      14.940  21.838   3.503  1.00  0.00     0.186 C
HETATM    5  C7  UNL     1      15.620  22.135   2.231  1.00  0.00     0.080 C
HETATM    6  O3  UNL     1      13.897  20.926   3.274  1.00  0.00    -0.293 OA
HETATM    7  C8  UNL     1      13.606  20.127   4.343  1.00  0.00     0.307 C
HETATM    8  C9  UNL     1      12.300  19.397   3.978  1.00  0.00     0.118 C
HETATM    9  O5  UNL     1      13.635  20.600   5.580  1.00  0.00    -0.169 OA
HETATM   10  O6  UNL     1      13.737  21.734   5.994  1.00  0.00    -0.191 OA
HETATM   11  C10 UNL     1      14.501  22.739   5.636  1.00  0.00     0.242 A
HETATM   12  O7  UNL     1      14.608  23.678   6.630  1.00  0.00    -0.338 OA
HETATM   13  C11 UNL     1      15.714  23.370   5.996  1.00  0.00     0.204 A
HETATM   14  C12 UNL     1      14.254  23.009   4.175  1.00  0.00     0.120 C
HETATM   15  C13 UNL     1      14.683  24.345   3.690  1.00  0.00     0.194 C
HETATM   16  O8  UNL     1      13.896  24.779   2.595  1.00  0.00    -0.355 OA
HETATM   17  C14 UNL     1      12.597  25.034   2.947  1.00  0.00     0.156 C
HETATM   18  C15 UNL     1      12.503  26.498   3.394  1.00  0.00     0.078 C
HETATM   19  C16 UNL     1      11.645  24.853   1.791  1.00  0.00     0.078 C
HETATM   20  O9  UNL     1      12.193  24.263   4.001  1.00  0.00    -0.355 OA
HETATM   21  C17 UNL     1      12.732  22.976   4.005  1.00  0.00     0.194 C
ENDROOT
BRANCH   2  22
HETATM   22  O1  UNL     1      18.056  20.976   4.639  1.00  0.00    -0.370 OA
ATOM     23  H1  UNL     1      17.852  20.053   4.549  1.00  0.00     0.212 HD
ENDBRANCH   2  22
BRANCH   7  24
HETATM   24  O4  UNL     1      14.571  19.080   4.284  1.00  0.00    -0.342 OA
ATOM     25  H4  UNL     1      14.628  18.755   5.175  1.00  0.00     0.215 HD
ENDBRANCH   7  24
BRANCH   1  26
HETATM   26  C2  UNL     1      16.826  21.507   7.279  1.00  0.00    -0.082 C
HETATM   27  C1  UNL     1      16.840  21.925   8.518  1.00  0.00     0.014 C
HETATM   28  C3  UNL     1      16.831  20.048   7.017  1.00  0.00     0.043 C
ENDBRANCH   1  26
TORSDOF 3
ENDMDL