MODEL 1
REMARK VINA RESULT: -6.669300975      0.000      0.000
REMARK  4 active torsions:
REMARK  status: ('A' for Active; 'I' for Inactive)
REMARK    1  A    between atoms: O1_2  and  C2_3
REMARK    2  A    between atoms: C2_3  and  C3_5
REMARK    3  A    between atoms: C12_16  and  O5_17
REMARK    4  A    between atoms: C15_21  and  O6_22
ROOT
HETATM    1  C3  UNL     1      15.035  19.889   4.908  1.00  0.00     0.162 C
HETATM    2  C4  UNL     1      13.645  19.491   5.356  1.00  0.00     0.101 C
HETATM    3  C5  UNL     1      12.651  19.648   4.272  1.00  0.00     0.134 C
HETATM    4  O3  UNL     1      13.042  19.697   3.125  1.00  0.00    -0.297 OA
HETATM    5  C6  UNL     1      11.207  19.742   4.591  1.00  0.00     0.080 C
HETATM    6  C7  UNL     1      10.332  19.280   3.436  1.00  0.00     0.020 C
HETATM    7  C8  UNL     1      10.834  21.169   5.013  1.00  0.00     0.128 C
HETATM    8  C9  UNL     1      10.672  21.154   6.510  1.00  0.00     0.040 C
HETATM    9  O4  UNL     1      11.876  21.980   4.587  1.00  0.00    -0.378 OA
HETATM   10  C10 UNL     1      11.684  23.313   4.847  1.00  0.00     0.147 C
HETATM   11  C11 UNL     1      10.220  23.640   4.517  1.00  0.00     0.042 C
HETATM   12  C12 UNL     1      12.533  24.207   4.019  1.00  0.00     0.152 C
HETATM   13  C13 UNL     1      13.857  23.569   3.606  1.00  0.00     0.042 C
HETATM   14  C14 UNL     1      14.373  24.495   2.493  1.00  0.00     0.015 C
HETATM   15  C15 UNL     1      14.853  23.524   4.703  1.00  0.00     0.135 C
HETATM   16  C16 UNL     1      15.801  22.383   4.677  1.00  0.00     0.081 C
HETATM   17  C17 UNL     1      16.215  21.937   3.309  1.00  0.00     0.020 C
HETATM   18  C18 UNL     1      15.328  21.217   5.498  1.00  0.00     0.147 C
HETATM   19  O7  UNL     1      15.171  21.344   6.699  1.00  0.00    -0.297 OA
ENDROOT
BRANCH   1  20
HETATM   20  C2  UNL     1      15.992  18.920   5.482  1.00  0.00     0.270 C
HETATM   21  O2  UNL     1      17.195  18.858   5.196  1.00  0.00    -0.264 OA
BRANCH  20  22
HETATM   22  O1  UNL     1      15.482  18.012   6.419  1.00  0.00    -0.326 OA
HETATM   23  C1  UNL     1      16.012  17.857   7.710  1.00  0.00     0.213 C
ENDBRANCH  20  22
ENDBRANCH   1  20
BRANCH  15  24
HETATM   24  O6  UNL     1      14.247  23.542   5.979  1.00  0.00    -0.394 OA
ATOM     25  H6  UNL     1      14.775  23.104   6.637  1.00  0.00     0.210 HD
ENDBRANCH  15  24
BRANCH  12  26
HETATM   26  O5  UNL     1      11.842  24.439   2.807  1.00  0.00    -0.393 OA
ATOM     27  H5  UNL     1      10.915  24.335   2.986  1.00  0.00     0.210 HD
ENDBRANCH  12  26
TORSDOF 4
ENDMDL