MODEL 3
REMARK VINA RESULT: -5.965035377      2.346      6.370
REMARK  2 active torsions:
REMARK  status: ('A' for Active; 'I' for Inactive)
REMARK    1  A    between atoms: C4_5  and  O1_6
REMARK    2  A    between atoms: C15_19  and  O2_20
ROOT
HETATM    1  N1  UNL     1      15.178  24.693   2.836  1.00  0.00    -0.195 NA
HETATM    2  C1  UNL     1      14.234  24.061   3.053  1.00  0.00     0.085 C
HETATM    3  C2  UNL     1      13.013  23.261   3.343  1.00  0.00     0.195 C
HETATM    4  C3  UNL     1      13.201  22.368   4.533  1.00  0.00     0.112 C
HETATM    5  C4  UNL     1      12.110  22.434   5.558  1.00  0.00     0.275 C
HETATM    6  C5  UNL     1      11.680  23.849   5.857  1.00  0.00     0.116 C
HETATM    7  C6  UNL     1      11.666  24.755   4.669  1.00  0.00     0.064 C
HETATM    8  N2  UNL     1      11.943  24.166   3.438  1.00  0.00    -0.374 N
HETATM    9  C7  UNL     1      10.989  24.190   2.408  1.00  0.00     0.155 C
HETATM   10  C8  UNL     1       9.651  23.583   2.858  1.00  0.00     0.144 C
HETATM   11  C9  UNL     1       9.055  22.722   1.771  1.00  0.00     0.034 C
HETATM   12  C10 UNL     1       7.586  22.570   1.833  1.00  0.00     0.002 C
HETATM   13  C11 UNL     1       7.039  21.245   2.264  1.00  0.00     0.000 C
HETATM   14  C12 UNL     1       7.373  20.086   1.425  1.00  0.00     0.000 C
HETATM   15  C13 UNL     1       8.388  19.123   1.885  1.00  0.00     0.002 C
HETATM   16  C14 UNL     1       8.402  18.709   3.298  1.00  0.00     0.032 C
HETATM   17  C15 UNL     1       9.836  18.447   3.781  1.00  0.00     0.122 C
HETATM   18  C16 UNL     1      10.154  19.238   5.046  1.00  0.00     0.096 C
HETATM   19  C17 UNL     1      11.156  20.321   4.752  1.00  0.00     0.375 C
HETATM   20  O3  UNL     1      10.788  21.031   3.583  1.00  0.00    -0.300 OA
HETATM   21  C18 UNL     1      10.042  21.849   4.409  1.00  0.00     0.518 C
HETATM   22  O4  UNL     1       9.824  23.095   4.065  1.00  0.00    -0.330 OA
HETATM   23  N3  UNL     1      11.021  21.560   5.430  1.00  0.00     0.207 N
ENDROOT
BRANCH   5  24
HETATM   24  O1  UNL     1      12.735  22.007   6.770  1.00  0.00    -0.362 OA
ATOM     25  H1  UNL     1      12.146  22.300   7.456  1.00  0.00     0.212 HD
ENDBRANCH   5  24
BRANCH  17  26
HETATM   26  O2  UNL     1      10.092  17.093   3.920  1.00  0.00    -0.395 OA
ATOM     27  H2  UNL     1       9.733  16.591   3.197  1.00  0.00     0.210 HD
ENDBRANCH  17  26
TORSDOF 2
ENDMDL