MODEL 3
REMARK VINA RESULT: -2.888594262      5.479      8.579
REMARK  4 active torsions:
REMARK  status: ('A' for Active; 'I' for Inactive)
REMARK    1  A    between atoms: C2_2  and  O2_4
REMARK    2  A    between atoms: O2_4  and  C3_5
REMARK    3  A    between atoms: C4_6  and  O3_7
REMARK    4  A    between atoms: C8_13  and  O5_14
ROOT
HETATM    1  C3  UNL     1       6.928  21.928   0.636  1.00  0.00     0.200 C
HETATM    2  C4  UNL     1       6.763  21.414  -0.734  1.00  0.00     0.162 C
HETATM    3  C5  UNL     1       5.953  22.228  -1.675  1.00  0.00     0.027 C
HETATM    4  C6  UNL     1       5.563  21.300  -2.840  1.00  0.00     0.022 C
HETATM    5  C7  UNL     1       4.651  22.721  -1.082  1.00  0.00     0.184 C
HETATM    6  O4  UNL     1       4.609  22.736   0.272  1.00  0.00    -0.357 OA
HETATM    7  C8  UNL     1       5.339  23.750   0.879  1.00  0.00     0.293 C
HETATM    8  C9  UNL     1       6.785  23.447   0.758  1.00  0.00     0.138 C
HETATM    9  C10 UNL     1       7.439  23.754   2.121  1.00  0.00     0.054 C
HETATM   10  O6  UNL     1       7.499  24.131  -0.154  1.00  0.00    -0.341 OA
HETATM   11  C11 UNL     1       6.928  24.516  -1.309  1.00  0.00     0.282 C
HETATM   12  O7  UNL     1       7.765  25.395  -1.967  1.00  0.00    -0.339 OA
HETATM   13  C12 UNL     1       8.899  24.754  -2.390  1.00  0.00     0.105 C
HETATM   14  C13 UNL     1       9.287  25.343  -3.738  1.00  0.00     0.058 C
HETATM   15  C14 UNL     1      10.060  24.819  -1.475  1.00  0.00     0.058 C
HETATM   16  S1  UNL     1       8.383  23.020  -2.736  1.00  0.00    -0.116 SA
HETATM   17  C15 UNL     1       6.640  23.382  -2.284  1.00  0.00     0.069 C
HETATM   18  C16 UNL     1       5.935  23.909  -3.486  1.00  0.00     0.033 C
ENDROOT
BRANCH   1  19
HETATM   19  O2  UNL     1       8.171  21.504   1.169  1.00  0.00    -0.310 OA
BRANCH  19  20
HETATM   20  C2  UNL     1       8.247  20.525   2.150  1.00  0.00     0.255 C
HETATM   21  C1  UNL     1       7.390  19.310   2.139  1.00  0.00     0.126 C
HETATM   22  O1  UNL     1       9.102  20.726   3.072  1.00  0.00    -0.266 OA
ENDBRANCH  19  20
ENDBRANCH   1  19
BRANCH   2  23
HETATM   23  O3  UNL     1       6.185  20.124  -0.638  1.00  0.00    -0.392 OA
ATOM     24  H3  UNL     1       6.889  19.508  -0.474  1.00  0.00     0.210 HD
ENDBRANCH   2  23
BRANCH   7  25
HETATM   25  O5  UNL     1       4.962  23.670   2.247  1.00  0.00    -0.368 OA
ATOM     26  H5  UNL     1       4.032  23.477   2.217  1.00  0.00     0.212 HD
ENDBRANCH   7  25
TORSDOF 4
ENDMDL