MODEL 3
REMARK VINA RESULT: -8.404210015      0.944      1.427
REMARK  5 active torsions:
REMARK  status: ('A' for Active; 'I' for Inactive)
REMARK    1  A    between atoms: C4_5  and  C5_6
REMARK    2  A    between atoms: C5_6  and  C6_7
REMARK    3  A    between atoms: C6_7  and  C7_8
REMARK    4  A    between atoms: C6_7  and  C8_17
REMARK    5  A    between atoms: C13_25  and  C14_26
ROOT
HETATM    1  C6  UNL     1      13.946  21.479   3.326  1.00  0.00     0.065 C
ENDROOT
BRANCH   1   2
HETATM    2  C5  UNL     1      13.325  20.454   2.448  1.00  0.00     0.052 C
BRANCH   2   3
HETATM    3  C4  UNL     1      12.190  20.953   1.629  1.00  0.00    -0.043 A
HETATM    4  C3  UNL     1      12.483  21.937   0.661  1.00  0.00     0.010 A
HETATM    5  C2  UNL     1      11.532  22.517  -0.133  1.00  0.00     0.026 A
HETATM    6  C1  UNL     1      10.235  22.104   0.039  1.00  0.00     0.056 A
HETATM    7 CL1  UNL     1       8.961  22.819  -0.959  1.00  0.00    -0.083 Cl
HETATM    8  C18 UNL     1       9.931  21.127   0.993  1.00  0.00     0.069 A
HETATM    9  C13 UNL     1      10.867  20.543   1.789  1.00  0.00     0.028 A
HETATM   10 CL2  UNL     1       8.252  20.664   1.065  1.00  0.00    -0.082 Cl
BRANCH   9  11
HETATM   11  C14 UNL     1      10.557  19.455   2.732  1.00  0.00     0.087 A
HETATM   12  C15 UNL     1      10.708  18.109   2.553  1.00  0.00     0.040 A
HETATM   13  C16 UNL     1      10.278  17.436   3.722  1.00  0.00     0.027 A
HETATM   14  C17 UNL     1       9.885  18.442   4.554  1.00  0.00     0.142 A
HETATM   15  O1  UNL     1      10.063  19.564   3.946  1.00  0.00    -0.322 OA
ENDBRANCH   9  11
ENDBRANCH   2   3
ENDBRANCH   1   2
BRANCH   1  16
HETATM   16  C7  UNL     1      12.959  21.840   4.415  1.00  0.00     0.117 A
HETATM   17  N1  UNL     1      12.258  20.995   5.192  1.00  0.00    -0.272 N
HETATM   18  N2  UNL     1      11.506  21.736   6.020  1.00  0.00    -0.227 N
ATOM     19  H1  UNL     1      12.293  19.976   5.158  1.00  0.00     0.190 HD
HETATM   20  N3  UNL     1      11.712  23.009   5.788  1.00  0.00    -0.227 N
ATOM     21  H2  UNL     1      10.868  21.364   6.724  1.00  0.00     0.210 HD
HETATM   22  N4  UNL     1      12.593  23.072   4.817  1.00  0.00    -0.272 N
ATOM     23  H3  UNL     1      11.275  23.796   6.267  1.00  0.00     0.210 HD
ATOM     24  H4  UNL     1      12.952  23.940   4.419  1.00  0.00     0.190 HD
ENDBRANCH   1  16
BRANCH   1  25
HETATM   25  C8  UNL     1      15.249  21.100   3.956  1.00  0.00     0.000 C
HETATM   26  C9  UNL     1      16.363  21.555   2.993  1.00  0.00     0.033 C
HETATM   27  C10 UNL     1      17.673  21.649   3.757  1.00  0.00     0.232 C
HETATM   28  N5  UNL     1      17.754  20.678   4.801  1.00  0.00    -0.075 N
HETATM   29  C11 UNL     1      16.789  20.960   5.817  1.00  0.00     0.232 C
ATOM     30  H52 UNL     1      17.665  19.727   4.444  1.00  0.00     0.277 HD
ATOM     31  H51 UNL     1      18.697  20.608   5.182  1.00  0.00     0.277 HD
HETATM   32  C12 UNL     1      15.585  21.731   5.252  1.00  0.00     0.033 C
ENDBRANCH   1  25
TORSDOF 5
ENDMDL