MODEL 1
REMARK VINA RESULT: -7.843093569      0.000      0.000
REMARK  5 active torsions:
REMARK  status: ('A' for Active; 'I' for Inactive)
REMARK    1  A    between atoms: N1_7  and  C7_8
REMARK    2  A    between atoms: C7_8  and  C8_9
REMARK    3  A    between atoms: C8_9  and  N2_10
REMARK    4  A    between atoms: N2_10  and  C9_12
REMARK    5  A    between atoms: C10_13  and  N3_14
ROOT
HETATM    1  C9  UNL     1      14.907  20.910   3.307  1.00  0.00     0.081 A
HETATM    2  C10 UNL     1      16.094  20.827   4.027  1.00  0.00     0.132 A
HETATM    3  C11 UNL     1      17.187  21.559   3.542  1.00  0.00     0.066 A
HETATM    4  C12 UNL     1      17.118  22.332   2.406  1.00  0.00     0.071 A
HETATM    5  N4  UNL     1      18.250  23.065   1.938  1.00  0.00    -0.101 NA
HETATM    6  C13 UNL     1      15.925  22.382   1.726  1.00  0.00     0.078 A
HETATM    7 CL1  UNL     1      15.769  23.355   0.260  1.00  0.00    -0.081 Cl
HETATM    8  C14 UNL     1      14.804  21.673   2.167  1.00  0.00     0.063 A
HETATM    9 BR1  UNL     1      13.190  21.818   1.128  1.00  0.00    -0.047 Br
ENDROOT
BRANCH   1  10
HETATM   10  N2  UNL     1      13.784  20.234   3.798  1.00  0.00    -0.385 N
ATOM     11  H2  UNL     1      13.589  19.345   3.339  1.00  0.00     0.159 HD
BRANCH  10  12
HETATM   12  C8  UNL     1      12.864  20.584   4.839  1.00  0.00     0.150 C
BRANCH  12  13
HETATM   13  C7  UNL     1      11.623  21.302   4.236  1.00  0.00     0.292 C
BRANCH  13  14
HETATM   14  N1  UNL     1      10.606  20.287   4.076  1.00  0.00     0.094 N
HETATM   15  C2  UNL     1      10.520  19.847   2.705  1.00  0.00     0.219 C
HETATM   16  C1  UNL     1       9.105  20.105   2.227  1.00  0.00     0.043 C
HETATM   17  C3  UNL     1      10.847  18.417   2.468  1.00  0.00     0.035 C
HETATM   18  C4  UNL     1       9.950  17.573   3.346  1.00  0.00     0.004 C
HETATM   19  C5  UNL     1      10.036  17.979   4.775  1.00  0.00     0.030 C
HETATM   20  C6  UNL     1      10.794  19.258   5.030  1.00  0.00     0.273 C
ENDBRANCH  13  14
ENDBRANCH  12  13
ENDBRANCH  10  12
ENDBRANCH   1  10
BRANCH   2  21
HETATM   21  N3  UNL     1      16.295  20.067   5.194  1.00  0.00    -0.113 N
HETATM   22  O1  UNL     1      16.940  20.664   6.117  1.00  0.00    -0.532 OA
HETATM   23  O2  UNL     1      15.906  18.810   5.485  1.00  0.00    -0.532 OA
ENDBRANCH   2  21
TORSDOF 5
ENDMDL