MODEL 3
REMARK VINA RESULT: -8.153874239      3.559      5.530
REMARK  5 active torsions:
REMARK  status: ('A' for Active; 'I' for Inactive)
REMARK    1  A    between atoms: C1_2  and  C2_3
REMARK       I    between atoms: C1_2  and  N4_20
REMARK    2  A    between atoms: C2_3  and  S1_4
REMARK    3  A    between atoms: S1_4  and  C3_5
REMARK    4  A    between atoms: C4_8  and  C5_9
REMARK    5  A    between atoms: N4_20  and  C9_22
ROOT
HETATM    1  C3  UNL     1      10.555  21.746   0.821  1.00  0.00     0.161 A
HETATM    2  N1  UNL     1      11.694  22.391   1.070  1.00  0.00    -0.320 N
ATOM      3  H1  UNL     1      11.777  23.403   1.168  1.00  0.00     0.169 HD
HETATM    4  C4  UNL     1      12.719  21.527   1.175  1.00  0.00     0.139 A
HETATM    5  N2  UNL     1      12.194  20.314   0.985  1.00  0.00    -0.282 N
ATOM      6  H2  UNL     1      12.711  19.435   1.001  1.00  0.00     0.188 HD
HETATM    7  N3  UNL     1      10.875  20.440   0.769  1.00  0.00    -0.278 N
ATOM      8  H3  UNL     1      10.225  19.674   0.594  1.00  0.00     0.189 HD
ENDROOT
BRANCH   1   9
HETATM    9  S1  UNL     1       8.914  22.417   0.592  1.00  0.00    -0.083 SA
BRANCH   9  10
HETATM   10  C2  UNL     1       8.622  22.781  -1.158  1.00  0.00     0.185 C
BRANCH  10  11
HETATM   11  C1  UNL     1       9.324  24.027  -1.521  1.00  0.00     0.227 C
HETATM   12  O1  UNL     1       9.052  25.074  -0.875  1.00  0.00    -0.273 OA
HETATM   13  N4  UNL     1      10.285  24.059  -2.573  1.00  0.00    -0.356 N
ATOM     14  H4  UNL     1      10.494  23.203  -3.086  1.00  0.00     0.162 HD
BRANCH  13  15
HETATM   15  C9  UNL     1      10.965  25.273  -2.923  1.00  0.00     0.084 C
HETATM   16  C10 UNL     1      11.146  25.442  -4.402  1.00  0.00     0.025 C
HETATM   17  C11 UNL     1      12.601  25.349  -4.783  1.00  0.00     0.002 C
HETATM   18  C12 UNL     1      13.357  26.476  -4.104  1.00  0.00     0.000 C
HETATM   19  C13 UNL     1      13.021  26.594  -2.645  1.00  0.00     0.002 C
HETATM   20  C14 UNL     1      12.301  25.335  -2.216  1.00  0.00     0.025 C
ENDBRANCH  13  15
ENDBRANCH  10  11
ENDBRANCH   9  10
ENDBRANCH   1   9
BRANCH   4  21
HETATM   21  C5  UNL     1      14.122  21.885   1.446  1.00  0.00     0.053 A
HETATM   22  C6  UNL     1      14.949  21.453   2.448  1.00  0.00     0.048 A
HETATM   23  C7  UNL     1      16.194  21.940   2.467  1.00  0.00     0.064 A
HETATM   24 CL1  UNL     1      17.386  21.472   3.709  1.00  0.00    -0.082 Cl
HETATM   25  C8  UNL     1      16.540  22.829   1.487  1.00  0.00     0.097 A
HETATM   26 CL2  UNL     1      18.098  23.639   1.246  1.00  0.00    -0.074 Cl
HETATM   27  S2  UNL     1      15.105  22.954   0.565  1.00  0.00    -0.072 SA
ENDBRANCH   4  21
TORSDOF 5
ENDMDL