MODEL 5
REMARK VINA RESULT: -8.310535350      1.433      2.023
REMARK  6 active torsions:
REMARK  status: ('A' for Active; 'I' for Inactive)
REMARK    1  A    between atoms: C2_2  and  C3_3
REMARK    2  A    between atoms: C2_2  and  C5_10
REMARK       I    between atoms: C3_3  and  N1_5
REMARK       I    between atoms: N1_5  and  C4_7
REMARK    3  A    between atoms: C5_10  and  O3_11
REMARK    4  A    between atoms: C5_10  and  C6_13
REMARK    5  A    between atoms: C7_15  and  S2_16
REMARK    6  A    between atoms: S2_16  and  C8_17
ROOT
HETATM    1  C6  UNL     1      10.014  20.580   3.152  1.00  0.00     0.076 A
HETATM    2  S1  UNL     1      11.521  19.704   3.386  1.00  0.00    -0.076 SA
HETATM    3  C7  UNL     1      12.376  20.798   4.367  1.00  0.00     0.067 A
HETATM    4  C14 UNL     1      11.487  21.808   4.496  1.00  0.00     0.097 A
HETATM    5 CL1  UNL     1      11.908  23.274   5.465  1.00  0.00    -0.079 Cl
HETATM    6  C15 UNL     1      10.287  21.699   3.877  1.00  0.00     0.159 A
HETATM    7  F1  UNL     1       9.360  22.732   3.998  1.00  0.00    -0.203 F
ENDROOT
BRANCH   1   8
HETATM    8  C5  UNL     1       8.886  20.091   2.385  1.00  0.00     0.076 C
BRANCH   8   9
HETATM    9  C2  UNL     1       8.233  20.404   1.163  1.00  0.00     0.132 C
HETATM   10  C1  UNL     1       8.887  20.985  -0.025  1.00  0.00     0.027 C
BRANCH   9  11
HETATM   11  C3  UNL     1       7.101  21.368   1.463  1.00  0.00     0.235 C
HETATM   12  O1  UNL     1       7.220  22.580   1.245  1.00  0.00    -0.272 OA
HETATM   13  N1  UNL     1       5.905  20.842   1.998  1.00  0.00    -0.281 N
HETATM   14  C4  UNL     1       4.802  21.672   2.345  1.00  0.00     0.335 C
ATOM     15  H1  UNL     1       5.830  19.834   2.140  1.00  0.00     0.173 HD
HETATM   16  N2  UNL     1       4.886  23.063   2.117  1.00  0.00    -0.040 NA
HETATM   17  O2  UNL     1       3.751  21.147   2.851  1.00  0.00    -0.251 OA
ENDBRANCH   9  11
ENDBRANCH   8   9
BRANCH   8  18
HETATM   18  O3  UNL     1       8.323  19.050   2.993  1.00  0.00    -0.363 OA
ATOM     19  H3  UNL     1       7.910  18.461   2.373  1.00  0.00     0.217 HD
ENDBRANCH   8  18
ENDBRANCH   1   8
BRANCH   3  20
HETATM   20  S2  UNL     1      14.063  20.530   4.815  1.00  0.00    -0.116 SA
BRANCH  20  21
HETATM   21  C8  UNL     1      15.323  20.854   3.658  1.00  0.00     0.053 C
HETATM   22  C9  UNL     1      14.767  21.460   2.365  1.00  0.00     0.015 C
HETATM   23  C10 UNL     1      15.408  22.835   2.150  1.00  0.00     0.001 C
HETATM   24  C11 UNL     1      16.911  22.759   2.035  1.00  0.00     0.000 C
HETATM   25  C12 UNL     1      17.462  21.686   2.941  1.00  0.00     0.001 C
HETATM   26  C13 UNL     1      16.513  21.663   4.151  1.00  0.00     0.015 C
ENDBRANCH  20  21
ENDBRANCH   3  20
TORSDOF 6
ENDMDL