MODEL 5
REMARK VINA RESULT: -8.896884717      2.534      3.470
REMARK  5 active torsions:
REMARK  status: ('A' for Active; 'I' for Inactive)
REMARK    1  A    between atoms: S1_2  and  C2_3
REMARK    2  A    between atoms: C4_10  and  N3_11
REMARK    3  A    between atoms: C10_19  and  S2_20
REMARK    4  A    between atoms: S2_20  and  C11_21
REMARK    5  A    between atoms: C11_21  and  C12_22
ROOT
HETATM    1  C2  UNL     1       8.303  20.813  -0.762  1.00  0.00     0.146 A
HETATM    2  N1  UNL     1       7.853  20.364   0.420  1.00  0.00    -0.321 N
ATOM      3  H1  UNL     1       6.970  19.854   0.468  1.00  0.00     0.169 HD
HETATM    4  C3  UNL     1       8.572  20.586   1.557  1.00  0.00     0.130 A
HETATM    5  N2  UNL     1       8.138  20.152   2.680  1.00  0.00    -0.383 N
ATOM      6  H21 UNL     1       8.675  20.319   3.531  1.00  0.00     0.157 HD
ATOM      7  H22 UNL     1       7.252  19.646   2.692  1.00  0.00     0.157 HD
HETATM    8  C4  UNL     1       9.780  21.275   1.541  1.00  0.00     0.108 A
HETATM    9  C10 UNL     1      10.217  21.724   0.326  1.00  0.00     0.102 A
HETATM   10  N4  UNL     1       9.461  21.475  -0.779  1.00  0.00    -0.329 N
ATOM     11  H4  UNL     1       9.802  21.816  -1.678  1.00  0.00     0.168 HD
ENDROOT
BRANCH   8  12
HETATM   12  N3  UNL     1      10.495  21.416   2.726  1.00  0.00    -0.375 N
HETATM   13  C5  UNL     1      10.508  22.515   3.654  1.00  0.00     0.129 C
HETATM   14  C6  UNL     1      11.941  22.622   4.200  1.00  0.00     0.099 C
HETATM   15  C7  UNL     1      12.096  21.510   5.202  1.00  0.00     0.246 C
HETATM   16  F1  UNL     1      11.421  21.874   6.349  1.00  0.00    -0.206 F
HETATM   17  F2  UNL     1      13.418  21.267   5.515  1.00  0.00    -0.206 F
HETATM   18  C8  UNL     1      11.507  20.258   4.640  1.00  0.00     0.099 C
HETATM   19  C9  UNL     1      11.389  20.296   3.129  1.00  0.00     0.129 C
ENDBRANCH   8  12
BRANCH   9  20
HETATM   20  S2  UNL     1      11.780  22.561   0.191  1.00  0.00    -0.105 SA
BRANCH  20  21
HETATM   21  C11 UNL     1      13.124  21.375   0.340  1.00  0.00     0.119 C
BRANCH  21  22
HETATM   22  C12 UNL     1      14.318  21.833   1.027  1.00  0.00    -0.049 A
HETATM   23  C13 UNL     1      14.770  21.363   2.237  1.00  0.00     0.008 A
HETATM   24  C14 UNL     1      15.921  21.828   2.843  1.00  0.00     0.001 A
HETATM   25  C15 UNL     1      16.658  22.804   2.217  1.00  0.00     0.000 A
HETATM   26  C16 UNL     1      16.241  23.296   1.013  1.00  0.00     0.001 A
HETATM   27  C17 UNL     1      15.092  22.827   0.415  1.00  0.00     0.008 A
ENDBRANCH  21  22
ENDBRANCH  20  21
ENDBRANCH   9  20
BRANCH   1  28
HETATM   28  S1  UNL     1       7.350  20.516  -2.255  1.00  0.00    -0.098 SA
HETATM   29  C1  UNL     1       6.504  18.925  -2.186  1.00  0.00     0.099 C
ENDBRANCH   1  28
TORSDOF 5
ENDMDL