MODEL 1
REMARK VINA RESULT: -7.576460518      0.000      0.000
REMARK  7 active torsions:
REMARK  status: ('A' for Active; 'I' for Inactive)
REMARK    1  A    between atoms: C2_2  and  C4_5
REMARK    2  A    between atoms: C4_5  and  C5_6
REMARK    3  A    between atoms: C5_6  and  C6_7
REMARK    4  A    between atoms: C6_7  and  C7_8
REMARK    5  A    between atoms: C7_8  and  N1_9
REMARK    6  A    between atoms: N1_9  and  C8_11
REMARK    7  A    between atoms: C12_18  and  N3_19
ROOT
HETATM    1  C8  UNL     1      13.697  22.161   3.981  1.00  0.00     0.160 A
HETATM    2  N2  UNL     1      12.998  21.929   2.831  1.00  0.00    -0.337 N
ATOM      3  H2  UNL     1      13.545  21.950   1.971  1.00  0.00     0.168 HD
HETATM    4  C9  UNL     1      11.718  21.681   2.682  1.00  0.00     0.073 A
HETATM    5  C10 UNL     1      11.226  21.473   1.381  1.00  0.00     0.064 A
HETATM    6 CL2  UNL     1      12.289  21.541  -0.019  1.00  0.00    -0.082 Cl
HETATM    7  C11 UNL     1       9.900  21.209   1.145  1.00  0.00     0.062 A
HETATM    8  C12 UNL     1       8.981  21.131   2.158  1.00  0.00     0.105 A
HETATM    9  C13 UNL     1       9.457  21.334   3.435  1.00  0.00     0.057 A
HETATM   10  C14 UNL     1      10.792  21.603   3.696  1.00  0.00     0.039 A
HETATM   11  S1  UNL     1      11.434  21.861   5.252  1.00  0.00    -0.042 SA
HETATM   12  C15 UNL     1      13.123  22.169   5.229  1.00  0.00     0.257 A
HETATM   13  O3  UNL     1      13.765  22.384   6.311  1.00  0.00    -0.276 OA
ENDROOT
BRANCH   1  14
HETATM   14  N1  UNL     1      14.952  22.378   3.829  1.00  0.00    -0.373 N
ATOM     15  H1  UNL     1      15.359  23.145   4.365  1.00  0.00     0.161 HD
BRANCH  14  16
HETATM   16  C7  UNL     1      15.822  21.650   2.989  1.00  0.00     0.121 C
BRANCH  16  17
HETATM   17  C6  UNL     1      17.130  21.302   3.702  1.00  0.00     0.020 C
BRANCH  17  18
HETATM   18  C5  UNL     1      16.958  20.911   5.116  1.00  0.00     0.004 C
BRANCH  18  19
HETATM   19  C4  UNL     1      17.487  19.608   5.567  1.00  0.00     0.025 C
BRANCH  19  20
HETATM   20  C2  UNL     1      16.530  18.566   6.006  1.00  0.00     0.030 C
HETATM   21  C1  UNL     1      15.100  18.948   5.647  1.00  0.00     0.032 C
HETATM   22  C3  UNL     1      16.789  17.289   5.180  1.00  0.00     0.032 C
HETATM   23 CL1  UNL     1      16.607  18.060   7.687  1.00  0.00    -0.120 Cl
ENDBRANCH  19  20
ENDBRANCH  18  19
ENDBRANCH  17  18
ENDBRANCH  16  17
ENDBRANCH  14  16
ENDBRANCH   1  14
BRANCH   8  24
HETATM   24  N3  UNL     1       7.609  20.860   1.934  1.00  0.00    -0.116 N
HETATM   25  O1  UNL     1       6.751  21.754   1.932  1.00  0.00    -0.532 OA
HETATM   26  O2  UNL     1       7.221  19.573   1.714  1.00  0.00    -0.532 OA
ENDBRANCH   8  24
TORSDOF 7
ENDMDL