MODEL 2
REMARK VINA RESULT: -9.111405774      1.594      1.926
REMARK  7 active torsions:
REMARK  status: ('A' for Active; 'I' for Inactive)
REMARK    1  A    between atoms: C5_6  and  C6_7
REMARK    2  A    between atoms: N2_10  and  C9_11
REMARK    3  A    between atoms: C9_11  and  C10_12
REMARK    4  A    between atoms: C10_12  and  C11_13
REMARK    5  A    between atoms: C10_12  and  N4_20
REMARK    6  A    between atoms: C11_13  and  O1_14
REMARK    7  A    between atoms: N3_16  and  O2_18
ROOT
HETATM    1  N1  UNL     1      19.094  24.167   0.244  1.00  0.00    -0.191 NA
HETATM    2  C1  UNL     1      18.262  23.674   0.928  1.00  0.00     0.099 C
HETATM    3  C2  UNL     1      17.281  23.048   1.799  1.00  0.00     0.046 A
HETATM    4  C3  UNL     1      15.942  23.257   1.633  1.00  0.00     0.023 A
HETATM    5  C4  UNL     1      15.013  22.641   2.487  1.00  0.00     0.011 A
HETATM    6  C5  UNL     1      15.497  21.818   3.496  1.00  0.00    -0.032 A
HETATM    7  C18 UNL     1      16.851  21.632   3.632  1.00  0.00     0.042 A
HETATM    8 CL1  UNL     1      17.491  20.482   4.843  1.00  0.00    -0.084 Cl
HETATM    9  C19 UNL     1      17.764  22.206   2.834  1.00  0.00     0.047 A
ENDROOT
BRANCH   6  10
HETATM   10  C6  UNL     1      14.649  21.219   4.532  1.00  0.00     0.029 C
HETATM   11  C7  UNL     1      13.858  20.043   4.043  1.00  0.00     0.054 C
HETATM   12  C8  UNL     1      12.413  20.273   3.612  1.00  0.00     0.067 C
HETATM   13  N2  UNL     1      11.679  20.985   4.582  1.00  0.00    -0.341 N
HETATM   14  C16 UNL     1      12.474  21.526   5.628  1.00  0.00     0.275 C
HETATM   15  F1  UNL     1      11.758  22.311   6.494  1.00  0.00    -0.227 F
HETATM   16  C17 UNL     1      13.616  22.314   4.965  1.00  0.00     0.069 C
BRANCH  13  17
HETATM   17  C9  UNL     1      10.600  21.722   4.123  1.00  0.00     0.100 C
BRANCH  17  18
HETATM   18  C10 UNL     1       9.414  21.060   3.526  1.00  0.00     0.203 C
BRANCH  18  19
HETATM   19  C11 UNL     1       9.343  19.660   3.212  1.00  0.00     0.164 C
HETATM   20  N3  UNL     1       9.028  18.637   3.872  1.00  0.00    -0.249 N
ATOM     21  H3  UNL     1       8.755  18.756   4.847  1.00  0.00     0.196 HD
BRANCH  19  22
HETATM   22  O1  UNL     1       9.707  19.348   1.852  1.00  0.00    -0.346 OA
ATOM     23  H1  UNL     1       8.988  19.419   1.236  1.00  0.00     0.219 HD
ENDBRANCH  19  22
BRANCH  20  24
HETATM   24  O2  UNL     1       9.032  17.353   3.342  1.00  0.00    -0.288 OA
ATOM     25  H2  UNL     1       8.492  16.647   3.677  1.00  0.00     0.244 HD
ENDBRANCH  20  24
ENDBRANCH  18  19
BRANCH  18  26
HETATM   26  N4  UNL     1       9.048  21.823   2.299  1.00  0.00    -0.349 N
HETATM   27  C12 UNL     1       9.890  22.496   1.498  1.00  0.00     0.092 A
HETATM   28  C13 UNL     1       9.215  23.155   0.486  1.00  0.00     0.019 A
HETATM   29  C14 UNL     1       7.867  22.855   0.697  1.00  0.00     0.019 A
HETATM   30  C15 UNL     1       7.812  22.031   1.820  1.00  0.00     0.092 A
ENDBRANCH  18  26
ENDBRANCH  17  18
ENDBRANCH  13  17
ENDBRANCH   6  10
TORSDOF 7
ENDMDL