MODEL 5
REMARK VINA RESULT: -8.402839794      2.232      3.605
REMARK  7 active torsions:
REMARK  status: ('A' for Active; 'I' for Inactive)
REMARK    1  A    between atoms: C2_2  and  C9_12
REMARK    2  A    between atoms: N1_3  and  O1_5
REMARK    3  A    between atoms: O1_5  and  C3_6
REMARK    4  A    between atoms: C11_15  and  N2_16
REMARK    5  A    between atoms: N2_16  and  C12_18
REMARK    6  A    between atoms: C14_20  and  C15_21
REMARK    7  A    between atoms: C15_21  and  C16_22
ROOT
HETATM    1  C9  UNL     1      13.376  22.064   1.358  1.00  0.00     0.065 A
HETATM    2  C10 UNL     1      14.521  22.436   0.703  1.00  0.00     0.084 A
HETATM    3  S1  UNL     1      15.675  22.424   1.993  1.00  0.00    -0.063 SA
HETATM    4  C11 UNL     1      14.642  21.958   3.253  1.00  0.00     0.150 A
HETATM    5  N5  UNL     1      13.493  21.836   2.643  1.00  0.00    -0.334 N
ATOM      6  H5  UNL     1      12.671  21.557   3.178  1.00  0.00     0.168 HD
ENDROOT
BRANCH   4   7
HETATM    7  N2  UNL     1      14.938  21.745   4.635  1.00  0.00    -0.322 N
ATOM      8  H2  UNL     1      14.492  22.342   5.333  1.00  0.00     0.169 HD
BRANCH   7   9
HETATM    9  C12 UNL     1      15.750  20.825   5.030  1.00  0.00     0.123 A
HETATM   10  C13 UNL     1      15.372  19.558   5.419  1.00  0.00     0.076 A
HETATM   11  C14 UNL     1      16.506  18.849   5.776  1.00  0.00     0.035 A
HETATM   12  N3  UNL     1      17.530  19.690   5.597  1.00  0.00    -0.303 N
HETATM   13  N4  UNL     1      17.091  20.856   5.157  1.00  0.00    -0.285 N
ATOM     14  H3  UNL     1      18.509  19.463   5.773  1.00  0.00     0.186 HD
ATOM     15  H4  UNL     1      17.681  21.661   4.946  1.00  0.00     0.188 HD
BRANCH  11  16
HETATM   16  C15 UNL     1      16.563  17.458   6.251  1.00  0.00     0.137 C
BRANCH  16  17
HETATM   17  C16 UNL     1      16.614  17.365   7.750  1.00  0.00     0.245 C
HETATM   18  C17 UNL     1      16.940  15.913   8.124  1.00  0.00     0.090 C
HETATM   19  F1  UNL     1      15.380  17.695   8.283  1.00  0.00    -0.206 F
HETATM   20  F2  UNL     1      17.580  18.155   8.310  1.00  0.00    -0.206 F
ENDBRANCH  16  17
ENDBRANCH  11  16
ENDBRANCH   7   9
ENDBRANCH   4   7
BRANCH   1  21
HETATM   21  C2  UNL     1      12.066  21.923   0.676  1.00  0.00     0.055 C
HETATM   22  C1  UNL     1      11.655  22.995  -0.299  1.00  0.00     0.072 C
HETATM   23  N1  UNL     1      11.298  20.977   0.863  1.00  0.00    -0.269 N
ATOM     24  H1  UNL     1      10.438  21.028   0.316  1.00  0.00     0.194 HD
BRANCH  23  25
HETATM   25  O1  UNL     1      11.380  19.913   1.636  1.00  0.00    -0.275 OA
BRANCH  25  26
HETATM   26  C3  UNL     1      10.250  19.278   2.175  1.00  0.00     0.152 C
HETATM   27  C4  UNL     1       9.476  20.329   2.948  1.00  0.00     0.034 C
HETATM   28  C5  UNL     1      10.281  20.879   4.093  1.00  0.00     0.002 C
HETATM   29  C6  UNL     1      11.117  19.793   4.763  1.00  0.00     0.000 C
HETATM   30  C7  UNL     1      10.499  18.434   4.511  1.00  0.00     0.002 C
HETATM   31  C8  UNL     1      10.665  18.123   3.026  1.00  0.00     0.034 C
ENDBRANCH  25  26
ENDBRANCH  23  25
ENDBRANCH   1  21
TORSDOF 7
ENDMDL