MODEL 1
REMARK VINA RESULT: -8.305481561      0.000      0.000
REMARK  8 active torsions:
REMARK  status: ('A' for Active; 'I' for Inactive)
REMARK    1  A    between atoms: C2_2  and  C3_3
REMARK    2  A    between atoms: C5_8  and  C6_9
REMARK       I    between atoms: C6_9  and  N2_11
REMARK    3  A    between atoms: N2_11  and  C7_13
REMARK    4  A    between atoms: C11_18  and  C12_19
REMARK    5  A    between atoms: C12_19  and  C13_20
REMARK    6  A    between atoms: C13_20  and  O2_22
REMARK    7  A    between atoms: C13_20  and  C15_24
REMARK    8  A    between atoms: C15_24  and  C18_27
ROOT
HETATM    1  C3  UNL     1      15.898  22.577   1.857  1.00  0.00     0.034 A
HETATM    2  N1  UNL     1      15.317  22.670   0.638  1.00  0.00    -0.338 N
ATOM      3  H1  UNL     1      15.784  22.900  -0.239  1.00  0.00     0.168 HD
HETATM    4  C4  UNL     1      13.992  22.400   0.801  1.00  0.00     0.156 A
HETATM    5  S1  UNL     1      12.485  22.242  -0.006  1.00  0.00    -0.046 SA
HETATM    6  C5  UNL     1      11.526  21.843   1.344  1.00  0.00     0.092 A
HETATM    7  C10 UNL     1      12.442  21.853   2.364  1.00  0.00     0.124 A
HETATM    8  N3  UNL     1      13.690  22.137   2.063  1.00  0.00    -0.303 N
HETATM    9  C11 UNL     1      14.893  22.243   2.737  1.00  0.00     0.043 A
ENDROOT
BRANCH   9  10
HETATM   10  C12 UNL     1      15.143  21.972   4.169  1.00  0.00     0.098 C
BRANCH  10  11
HETATM   11  C13 UNL     1      15.063  20.540   4.584  1.00  0.00     0.075 C
HETATM   12  C14 UNL     1      13.747  20.262   5.273  1.00  0.00     0.047 C
BRANCH  11  13
HETATM   13  O2  UNL     1      15.045  19.702   3.448  1.00  0.00    -0.389 OA
ATOM     14  H2  UNL     1      14.274  19.148   3.460  1.00  0.00     0.210 HD
ENDBRANCH  11  13
BRANCH  11  15
HETATM   15  C15 UNL     1      16.272  20.235   5.422  1.00  0.00     0.081 C
HETATM   16  C16 UNL     1      17.544  20.540   4.677  1.00  0.00     0.027 C
HETATM   17  C17 UNL     1      16.303  21.215   6.632  1.00  0.00     0.027 C
BRANCH  15  18
HETATM   18  C18 UNL     1      16.344  18.885   6.022  1.00  0.00     0.397 C
HETATM   19  F1  UNL     1      17.331  18.188   5.289  1.00  0.00    -0.170 F
HETATM   20  F2  UNL     1      16.936  18.922   7.312  1.00  0.00    -0.170 F
HETATM   21  F3  UNL     1      15.225  18.133   5.997  1.00  0.00    -0.170 F
ENDBRANCH  15  18
ENDBRANCH  11  15
ENDBRANCH  10  11
ENDBRANCH   9  10
BRANCH   1  22
HETATM   22  C2  UNL     1      17.334  22.867   2.035  1.00  0.00     0.055 C
HETATM   23  C1  UNL     1      17.816  23.841   0.941  1.00  0.00     0.011 C
ENDBRANCH   1  22
BRANCH   6  24
HETATM   24  C6  UNL     1      10.090  21.498   1.401  1.00  0.00     0.260 C
HETATM   25  O1  UNL     1       9.733  20.362   1.804  1.00  0.00    -0.267 OA
HETATM   26  N2  UNL     1       9.150  22.462   0.995  1.00  0.00    -0.352 N
ATOM     27  H2  UNL     1       9.494  23.361   0.655  1.00  0.00     0.163 HD
BRANCH  26  28
HETATM   28  C7  UNL     1       7.704  22.243   1.033  1.00  0.00     0.084 A
HETATM   29  C8  UNL     1       6.936  23.300   0.202  1.00  0.00     0.027 A
HETATM   30  C9  UNL     1       6.848  23.226   1.703  1.00  0.00     0.027 A
ENDBRANCH  26  28
ENDBRANCH   6  24
TORSDOF 8
ENDMDL