MODEL 4
REMARK VINA RESULT: -7.035510266      3.536      7.779
REMARK  6 active torsions:
REMARK  status: ('A' for Active; 'I' for Inactive)
REMARK    1  A    between atoms: C2_2  and  C3_3
REMARK    2  A    between atoms: C3_3  and  C4_4
REMARK    3  A    between atoms: C4_4  and  O1_5
REMARK    4  A    between atoms: O1_5  and  C5_6
REMARK    5  A    between atoms: C9_11  and  O2_12
REMARK    6  A    between atoms: C19_26  and  O4_27
ROOT
HETATM    1  C5  UNL     1       6.999  20.295   1.384  1.00  0.00     0.217 C
HETATM    2  S1  UNL     1       8.611  20.020   2.246  1.00  0.00    -0.092 SA
HETATM    3  C6  UNL     1       9.290  21.683   2.431  1.00  0.00     0.046 C
HETATM    4  C7  UNL     1      10.468  21.805   3.248  1.00  0.00     0.025 A
HETATM    5  C8  UNL     1      10.513  22.641   4.342  1.00  0.00     0.055 A
HETATM    6  C9  UNL     1      11.558  22.659   5.254  1.00  0.00     0.105 A
HETATM    7  C10 UNL     1      12.639  21.801   5.087  1.00  0.00     0.152 A
HETATM    8  F1  UNL     1      13.679  21.804   5.964  1.00  0.00    -0.203 F
HETATM    9  C11 UNL     1      12.617  20.933   3.976  1.00  0.00     0.088 A
HETATM   10  C12 UNL     1      11.572  20.933   3.086  1.00  0.00     0.131 A
HETATM   11  F2  UNL     1      11.594  20.125   1.986  1.00  0.00    -0.205 F
HETATM   12  C13 UNL     1       9.169  22.420   1.154  1.00  0.00     0.071 C
HETATM   13  O3  UNL     1      10.058  23.456   0.931  1.00  0.00    -0.349 OA
HETATM   14  C14 UNL     1      10.035  23.640  -0.472  1.00  0.00     0.124 C
HETATM   15  C15 UNL     1      11.301  24.174  -1.025  1.00  0.00     0.040 C
HETATM   16  C16 UNL     1       8.795  24.409  -0.750  1.00  0.00     0.033 C
HETATM   17  C17 UNL     1       7.588  23.641  -0.350  1.00  0.00     0.016 C
HETATM   18  C18 UNL     1       7.754  22.675   0.807  1.00  0.00     0.076 C
HETATM   19  C19 UNL     1       7.082  21.387   0.395  1.00  0.00     0.167 C
ENDROOT
BRANCH   1  20
HETATM   20  O1  UNL     1       5.936  20.359   2.277  1.00  0.00    -0.373 OA
BRANCH  20  21
HETATM   21  C4  UNL     1       4.759  19.945   1.668  1.00  0.00     0.169 C
BRANCH  21  22
HETATM   22  C3  UNL     1       4.853  18.596   1.038  1.00  0.00     0.026 C
BRANCH  22  23
HETATM   23  C2  UNL     1       3.750  17.661   1.556  1.00  0.00    -0.002 C
HETATM   24  C1  UNL     1       4.234  16.228   1.479  1.00  0.00     0.005 C
ENDBRANCH  22  23
ENDBRANCH  21  22
ENDBRANCH  20  21
ENDBRANCH   1  20
BRANCH  19  25
HETATM   25  O4  UNL     1       7.606  20.865  -0.812  1.00  0.00    -0.391 OA
ATOM     26  H4  UNL     1       6.958  20.287  -1.199  1.00  0.00     0.210 HD
ENDBRANCH  19  25
BRANCH   6  27
HETATM   27  O2  UNL     1      11.539  23.531   6.344  1.00  0.00    -0.358 OA
ATOM     28  H2  UNL     1      11.513  23.197   7.233  1.00  0.00     0.217 HD
ENDBRANCH   6  27
TORSDOF 6
ENDMDL