MODEL 5
REMARK VINA RESULT: -5.022607172      1.259      1.896
REMARK  3 active torsions:
REMARK  status: ('A' for Active; 'I' for Inactive)
REMARK       I    between atoms: N1_2  and  C2_4
REMARK       I    between atoms: C2_4  and  N2_6
REMARK    1  A    between atoms: N2_6  and  C3_8
REMARK    2  A    between atoms: C3_8  and  C4_9
REMARK    3  A    between atoms: C4_9  and  C5_10
ROOT
HETATM    1  C4  UNL     1     123.277 105.275 -44.698  1.00  0.00     0.041 C
ENDROOT
BRANCH   1   2
HETATM    2  C3  UNL     1     124.246 104.171 -44.687  1.00  0.00     0.126 C
BRANCH   2   3
HETATM    3  N2  UNL     1     124.190 103.239 -43.589  1.00  0.00    -0.343 N
HETATM    4  C2  UNL     1     124.285 101.814 -43.849  1.00  0.00     0.319 C
HETATM    5  N1  UNL     1     124.234 100.869 -42.796  1.00  0.00    -0.329 N
HETATM    6  O1  UNL     1     124.414 101.409 -45.019  1.00  0.00    -0.247 OA
HETATM    7  C1  UNL     1     125.290 100.497 -42.168  1.00  0.00     0.123 C
ATOM      8  H1  UNL     1     123.334 100.471 -42.529  1.00  0.00     0.169 HD
ATOM      9  H2  UNL     1     124.084 103.580 -42.633  1.00  0.00     0.164 HD
ENDBRANCH   2   3
ENDBRANCH   1   2
BRANCH   1  10
HETATM   10  C5  UNL     1     123.509 106.475 -43.873  1.00  0.00     0.023 C
HETATM   11 BR1  UNL     1     123.939 106.181 -42.031  1.00  0.00    -0.085 Br
HETATM   12  C6  UNL     1     124.616 107.373 -44.466  1.00  0.00     0.026 C
HETATM   13  C7  UNL     1     123.945 108.684 -44.781  1.00  0.00    -0.013 C
HETATM   14  C8  UNL     1     123.505 109.386 -43.523  1.00  0.00     0.005 C
HETATM   15  C11 UNL     1     122.587 108.140 -45.260  1.00  0.00     0.011 C
HETATM   16  C9  UNL     1     122.426 108.471 -42.977  1.00  0.00     0.006 C
HETATM   17  C10 UNL     1     122.283 107.362 -43.997  1.00  0.00     0.005 C
ENDBRANCH   1  10
TORSDOF 3
ENDMDL