MODEL 4
REMARK VINA RESULT: -6.453929179      3.441      5.623
REMARK  4 active torsions:
REMARK  status: ('A' for Active; 'I' for Inactive)
REMARK    1  A    between atoms: C2_2  and  N1_3
REMARK    2  A    between atoms: C2_2  and  C11_18
REMARK    3  A    between atoms: C3_5  and  N2_6
REMARK    4  A    between atoms: C3_5  and  C5_11
ROOT
HETATM    1  N1  UNL     1     121.886  99.477 -48.089  1.00  0.00    -0.367 N
ATOM      2  H1  UNL     1     121.513  99.217 -47.176  1.00  0.00     0.161 HD
HETATM    3  C3  UNL     1     122.776 100.407 -48.117  1.00  0.00     0.114 C
ENDROOT
BRANCH   3   4
HETATM    4  N2  UNL     1     123.308 100.786 -49.365  1.00  0.00    -0.319 N
HETATM    5  C4  UNL     1     122.841 101.673 -50.132  1.00  0.00     0.202 C
HETATM    6  N3  UNL     1     121.678 102.391 -49.767  1.00  0.00    -0.066 NA
HETATM    7  N4  UNL     1     123.468 101.964 -51.367  1.00  0.00    -0.066 NA
ATOM      8  H2  UNL     1     124.148 100.300 -49.678  1.00  0.00     0.169 HD
ENDBRANCH   3   4
BRANCH   3   9
HETATM    9  C5  UNL     1     123.174 101.009 -46.856  1.00  0.00     0.008 A
HETATM   10  C6  UNL     1     122.781 102.279 -46.481  1.00  0.00     0.018 A
HETATM   11  C7  UNL     1     123.143 102.872 -45.296  1.00  0.00     0.043 A
HETATM   12  C8  UNL     1     123.945 102.153 -44.431  1.00  0.00     0.116 A
HETATM   13  F1  UNL     1     124.325 102.703 -43.250  1.00  0.00    -0.206 F
HETATM   14  C9  UNL     1     124.370 100.863 -44.762  1.00  0.00     0.043 A
HETATM   15  C10 UNL     1     123.970 100.319 -45.979  1.00  0.00     0.018 A
ENDBRANCH   3   9
BRANCH   1  16
HETATM   16  C2  UNL     1     121.377  98.777 -49.227  1.00  0.00     0.112 C
HETATM   17  C1  UNL     1     120.017  99.332 -49.639  1.00  0.00     0.037 C
BRANCH  16  18
HETATM   18  C11 UNL     1     121.185  97.334 -48.904  1.00  0.00    -0.036 A
HETATM   19  C12 UNL     1     120.106  96.937 -48.144  1.00  0.00     0.009 A
HETATM   20  C13 UNL     1     119.911  95.604 -47.834  1.00  0.00     0.001 A
HETATM   21  C14 UNL     1     120.786  94.660 -48.280  1.00  0.00     0.000 A
HETATM   22  C15 UNL     1     121.874  95.027 -49.042  1.00  0.00     0.001 A
HETATM   23  C16 UNL     1     122.056  96.377 -49.345  1.00  0.00     0.009 A
ENDBRANCH  16  18
ENDBRANCH   1  16
TORSDOF 4
ENDMDL