MODEL 5
REMARK VINA RESULT: -6.982725406      6.118      8.345
REMARK  3 active torsions:
REMARK  status: ('A' for Active; 'I' for Inactive)
REMARK       I    between atoms: C1_2  and  N3_16
REMARK       I    between atoms: N2_3  and  C2_5
REMARK    1  A    between atoms: C2_5  and  C3_7
REMARK    2  A    between atoms: C4_8  and  C5_9
REMARK    3  A    between atoms: N3_16  and  C11_18
ROOT
HETATM    1  N1  UNL     1     123.758 102.900 -45.377  1.00  0.00    -0.063 NA
HETATM    2  C1  UNL     1     123.740 103.181 -43.977  1.00  0.00     0.191 C
HETATM    3  N2  UNL     1     123.644 104.407 -43.615  1.00  0.00    -0.298 N
ATOM      4  H2  UNL     1     123.630 104.629 -42.619  1.00  0.00     0.171 HD
HETATM    5  C2  UNL     1     123.557 105.462 -44.553  1.00  0.00     0.247 C
HETATM    6  O1  UNL     1     122.958 105.242 -45.640  1.00  0.00    -0.268 OA
HETATM    7  N3  UNL     1     123.829 102.104 -43.059  1.00  0.00    -0.359 N
ATOM      8  H3  UNL     1     123.100 101.967 -42.359  1.00  0.00     0.162 HD
ENDROOT
BRANCH   5   9
HETATM    9  C3  UNL     1     124.130 106.780 -44.308  1.00  0.00     0.075 C
HETATM   10  C4  UNL     1     123.968 107.385 -43.165  1.00  0.00     0.017 C
BRANCH  10  11
HETATM   11  C5  UNL     1     124.514 108.696 -42.857  1.00  0.00    -0.036 A
HETATM   12  C6  UNL     1     124.418 109.173 -41.540  1.00  0.00     0.014 A
HETATM   13  C7  UNL     1     124.930 110.409 -41.240  1.00  0.00     0.043 A
HETATM   14  C8  UNL     1     125.539 111.219 -42.168  1.00  0.00     0.116 A
HETATM   15  F1  UNL     1     126.040 112.448 -41.836  1.00  0.00    -0.206 F
HETATM   16  C9  UNL     1     125.627 110.744 -43.453  1.00  0.00     0.043 A
HETATM   17  C10 UNL     1     125.116 109.492 -43.787  1.00  0.00     0.014 A
ENDBRANCH  10  11
ENDBRANCH   5   9
BRANCH   7  18
HETATM   18  C11 UNL     1     124.957 101.199 -43.117  1.00  0.00     0.091 C
HETATM   19  C12 UNL     1     126.270 101.944 -43.188  1.00  0.00     0.052 C
HETATM   20  C13 UNL     1     127.233 100.912 -42.656  1.00  0.00    -0.029 C
HETATM   21  C14 UNL     1     126.569 100.054 -41.891  1.00  0.00    -0.029 C
HETATM   22  C15 UNL     1     125.126 100.411 -41.830  1.00  0.00     0.052 C
ENDBRANCH   7  18
TORSDOF 3
ENDMDL