MODEL 2
REMARK VINA RESULT: -7.466516558      0.027      1.028
REMARK  3 active torsions:
REMARK  status: ('A' for Active; 'I' for Inactive)
REMARK       I    between atoms: C1_2  and  N3_19
REMARK       I    between atoms: N2_3  and  C2_5
REMARK    1  A    between atoms: C2_5  and  C3_7
REMARK    2  A    between atoms: C7_11  and  C8_12
REMARK    3  A    between atoms: N3_19  and  C14_21
ROOT
HETATM    1  C3  UNL     1     124.176 103.844 -44.791  1.00  0.00     0.093 C
HETATM    2  C4  UNL     1     123.148 103.815 -45.904  1.00  0.00     0.042 C
HETATM    3  C5  UNL     1     122.966 102.341 -46.112  1.00  0.00    -0.029 C
HETATM    4  C6  UNL     1     123.332 101.689 -45.014  1.00  0.00    -0.021 C
HETATM    5  C7  UNL     1     123.789 102.650 -43.972  1.00  0.00     0.054 C
ENDROOT
BRANCH   1   6
HETATM    6  C2  UNL     1     124.034 105.121 -44.075  1.00  0.00     0.229 C
HETATM    7  N2  UNL     1     124.395 106.316 -44.744  1.00  0.00    -0.301 N
HETATM    8  C1  UNL     1     123.724 107.394 -44.715  1.00  0.00     0.191 C
ATOM      9  H2  UNL     1     125.256 106.310 -45.290  1.00  0.00     0.171 HD
HETATM   10  N1  UNL     1     122.533 107.470 -43.986  1.00  0.00    -0.063 NA
HETATM   11  N3  UNL     1     124.182 108.532 -45.427  1.00  0.00    -0.360 N
ATOM     12  H3  UNL     1     123.728 108.806 -46.299  1.00  0.00     0.162 HD
HETATM   13  O1  UNL     1     123.603 105.164 -42.889  1.00  0.00    -0.273 OA
BRANCH  11  14
HETATM   14  C14 UNL     1     125.301 109.309 -44.912  1.00  0.00     0.084 A
HETATM   15  C15 UNL     1     125.182 110.773 -44.779  1.00  0.00     0.027 A
HETATM   16  C16 UNL     1     125.192 109.874 -43.548  1.00  0.00     0.027 A
ENDBRANCH  11  14
ENDBRANCH   1   6
BRANCH   5  17
HETATM   17  C8  UNL     1     124.900 102.075 -43.200  1.00  0.00    -0.049 A
HETATM   18  C9  UNL     1     125.179 102.526 -41.925  1.00  0.00     0.011 A
HETATM   19  C10 UNL     1     126.224 101.994 -41.179  1.00  0.00     0.043 A
HETATM   20  C11 UNL     1     127.010 100.993 -41.711  1.00  0.00     0.116 A
HETATM   21  F1  UNL     1     128.042 100.437 -41.033  1.00  0.00    -0.206 F
HETATM   22  C12 UNL     1     126.719 100.555 -42.984  1.00  0.00     0.043 A
HETATM   23  C13 UNL     1     125.683 101.088 -43.711  1.00  0.00     0.011 A
ENDBRANCH   5  17
TORSDOF 3
ENDMDL