MODEL 5
REMARK VINA RESULT: -6.887300819      3.917      7.989
REMARK  3 active torsions:
REMARK  status: ('A' for Active; 'I' for Inactive)
REMARK       I    between atoms: C1_2  and  N4_17
REMARK       I    between atoms: N2_3  and  C2_5
REMARK       I    between atoms: C2_5  and  N3_7
REMARK    1  A    between atoms: N3_7  and  C3_9
REMARK    2  A    between atoms: C3_9  and  C4_10
REMARK    3  A    between atoms: N4_17  and  C10_19
ROOT
HETATM    1  N1  UNL     1     124.338 104.247 -44.562  1.00  0.00    -0.063 NA
HETATM    2  C1  UNL     1     123.975 103.960 -43.195  1.00  0.00     0.196 C
HETATM    3  N2  UNL     1     123.672 104.913 -42.389  1.00  0.00    -0.283 N
ATOM      4  H2  UNL     1     123.416 104.711 -41.422  1.00  0.00     0.173 HD
HETATM    5  C2  UNL     1     123.699 106.248 -42.864  1.00  0.00     0.322 C
HETATM    6  O1  UNL     1     124.424 107.140 -42.350  1.00  0.00    -0.247 OA
HETATM    7  N3  UNL     1     122.882 106.607 -43.964  1.00  0.00    -0.339 N
ATOM      8  H3  UNL     1     122.286 105.902 -44.396  1.00  0.00     0.164 HD
HETATM    9  N4  UNL     1     123.949 102.620 -42.723  1.00  0.00    -0.330 N
ATOM     10  H4  UNL     1     123.062 102.150 -42.539  1.00  0.00     0.168 HD
ENDROOT
BRANCH   9  11
HETATM   11  C10 UNL     1     125.170 101.956 -42.515  1.00  0.00     0.034 A
HETATM   12  C11 UNL     1     125.664 101.092 -43.450  1.00  0.00     0.029 A
HETATM   13  C12 UNL     1     126.874 100.470 -43.179  1.00  0.00     0.002 A
HETATM   14  C13 UNL     1     127.569 100.694 -42.024  1.00  0.00     0.000 A
HETATM   15  C14 UNL     1     127.050 101.569 -41.097  1.00  0.00     0.002 A
HETATM   16  C15 UNL     1     125.856 102.195 -41.344  1.00  0.00     0.029 A
ENDBRANCH   9  11
BRANCH   7  17
HETATM   17  C3  UNL     1     122.879 107.960 -44.486  1.00  0.00     0.162 C
BRANCH  17  18
HETATM   18  C4  UNL     1     121.754 108.715 -43.881  1.00  0.00    -0.040 A
HETATM   19  C5  UNL     1     120.517 108.087 -43.690  1.00  0.00     0.012 A
HETATM   20  C6  UNL     1     119.439 108.737 -43.131  1.00  0.00     0.043 A
HETATM   21  C7  UNL     1     119.548 110.055 -42.733  1.00  0.00     0.116 A
HETATM   22  F1  UNL     1     118.469 110.674 -42.184  1.00  0.00    -0.206 F
HETATM   23  C8  UNL     1     120.752 110.705 -42.906  1.00  0.00     0.043 A
HETATM   24  C9  UNL     1     121.834 110.031 -43.474  1.00  0.00     0.012 A
ENDBRANCH  17  18
ENDBRANCH   7  17
TORSDOF 3
ENDMDL