MODEL 3
REMARK VINA RESULT: -6.418310360      3.263      7.449
REMARK  4 active torsions:
REMARK  status: ('A' for Active; 'I' for Inactive)
REMARK    1  A    between atoms: C2_2  and  C3_3
REMARK    2  A    between atoms: C2_2  and  N1_11
REMARK    3  A    between atoms: C3_3  and  C4_4
REMARK       I    between atoms: C10_13  and  N3_15
REMARK    4  A    between atoms: N3_15  and  C11_17
ROOT
HETATM    1  N1  UNL     1     123.691 104.301 -44.222  1.00  0.00    -0.360 N
ATOM      2  H1  UNL     1     123.682 103.766 -45.091  1.00  0.00     0.162 HD
HETATM    3  C10 UNL     1     124.026 103.697 -43.121  1.00  0.00     0.184 C
HETATM    4  N2  UNL     1     124.021 104.498 -41.931  1.00  0.00    -0.064 NA
HETATM    5  N3  UNL     1     124.378 102.329 -43.076  1.00  0.00    -0.360 N
ATOM      6  H3  UNL     1     124.042 101.696 -43.802  1.00  0.00     0.162 HD
ENDROOT
BRANCH   1   7
HETATM    7  C2  UNL     1     123.331 105.701 -44.265  1.00  0.00     0.084 C
HETATM    8  C1  UNL     1     122.229 105.947 -45.298  1.00  0.00     0.032 C
BRANCH   7   9
HETATM    9  C3  UNL     1     124.516 106.526 -44.667  1.00  0.00     0.063 C
BRANCH   9  10
HETATM   10  C4  UNL     1     124.652 107.786 -43.934  1.00  0.00    -0.056 A
HETATM   11  C5  UNL     1     125.373 108.820 -44.485  1.00  0.00     0.010 A
HETATM   12  C6  UNL     1     125.515 110.033 -43.802  1.00  0.00     0.043 A
HETATM   13  C7  UNL     1     124.943 110.233 -42.568  1.00  0.00     0.116 A
HETATM   14  F1  UNL     1     125.063 111.393 -41.884  1.00  0.00    -0.206 F
HETATM   15  C8  UNL     1     124.216 109.202 -42.003  1.00  0.00     0.043 A
HETATM   16  C9  UNL     1     124.091 108.019 -42.692  1.00  0.00     0.010 A
ENDBRANCH   9  10
ENDBRANCH   7   9
ENDBRANCH   1   7
BRANCH   5  17
HETATM   17  C11 UNL     1     125.195 101.830 -42.029  1.00  0.00     0.088 C
HETATM   18  C12 UNL     1     125.114 100.293 -41.924  1.00  0.00     0.030 C
HETATM   19  C13 UNL     1     126.579  99.980 -41.963  1.00  0.00    -0.012 C
HETATM   20  C14 UNL     1     127.039 100.812 -43.148  1.00  0.00     0.011 C
HETATM   21  C16 UNL     1     127.213 101.088 -41.111  1.00  0.00     0.011 C
HETATM   22  C15 UNL     1     126.659 101.982 -42.230  1.00  0.00     0.009 C
ENDBRANCH   5  17
TORSDOF 4
ENDMDL