MODEL 1
REMARK VINA RESULT: -7.536498453      0.000      0.000
REMARK  3 active torsions:
REMARK  status: ('A' for Active; 'I' for Inactive)
REMARK       I    between atoms: C1_2  and  N3_17
REMARK       I    between atoms: N2_3  and  C2_5
REMARK    1  A    between atoms: C2_5  and  C3_7
REMARK    2  A    between atoms: C5_9  and  C6_10
REMARK    3  A    between atoms: N3_17  and  C12_19
ROOT
HETATM    1  N1  UNL     1     124.058 108.659 -44.120  1.00  0.00    -0.063 NA
HETATM    2  C1  UNL     1     123.326 107.466 -44.319  1.00  0.00     0.191 C
HETATM    3  N2  UNL     1     123.885 106.498 -44.899  1.00  0.00    -0.301 N
ATOM      4  H2  UNL     1     124.851 106.638 -45.196  1.00  0.00     0.171 HD
HETATM    5  C2  UNL     1     123.307 105.237 -45.180  1.00  0.00     0.228 C
HETATM    6  O1  UNL     1     122.161 105.087 -45.654  1.00  0.00    -0.273 OA
HETATM    7  N3  UNL     1     121.991 107.386 -43.866  1.00  0.00    -0.360 N
ATOM      8  H3  UNL     1     121.554 106.476 -43.721  1.00  0.00     0.162 HD
ENDROOT
BRANCH   5   9
HETATM    9  C3  UNL     1     124.119 104.030 -44.890  1.00  0.00     0.087 A
HETATM   10  C4  UNL     1     123.379 102.672 -44.964  1.00  0.00     0.025 A
HETATM   11  C5  UNL     1     123.832 103.296 -43.639  1.00  0.00     0.032 A
BRANCH  11  12
HETATM   12  C6  UNL     1     124.869 102.490 -42.963  1.00  0.00    -0.053 A
HETATM   13  C7  UNL     1     125.323 102.792 -41.700  1.00  0.00     0.010 A
HETATM   14  C8  UNL     1     126.300 102.020 -41.085  1.00  0.00     0.043 A
HETATM   15  C9  UNL     1     126.829 100.926 -41.750  1.00  0.00     0.116 A
HETATM   16  F1  UNL     1     127.788 100.183 -41.123  1.00  0.00    -0.206 F
HETATM   17  C10 UNL     1     126.386 100.606 -43.015  1.00  0.00     0.043 A
HETATM   18  C11 UNL     1     125.407 101.400 -43.603  1.00  0.00     0.010 A
ENDBRANCH  11  12
ENDBRANCH   5   9
BRANCH   7  19
HETATM   19  C12 UNL     1     121.236 108.607 -43.604  1.00  0.00     0.084 C
HETATM   20  C13 UNL     1     119.939 108.705 -44.322  1.00  0.00     0.025 C
HETATM   21  C14 UNL     1     119.216 108.275 -43.048  1.00  0.00     0.004 C
HETATM   22  C15 UNL     1     120.503 108.525 -42.298  1.00  0.00     0.025 C
ENDBRANCH   7  19
TORSDOF 3
ENDMDL