MODEL 5
REMARK VINA RESULT: -5.622647909      1.905      2.274
REMARK  3 active torsions:
REMARK  status: ('A' for Active; 'I' for Inactive)
REMARK    1  A    between atoms: C2_2  and  C3_3
REMARK    2  A    between atoms: C3_3  and  C4_4
REMARK    3  A    between atoms: C4_4  and  C5_5
REMARK       I    between atoms: N1_8  and  C7_10
REMARK       I    between atoms: C7_10  and  N5_18
REMARK       I    between atoms: N2_11  and  C8_13
ROOT
HETATM    1  C1  UNL     1     124.957 106.384 -40.815  1.00  0.00     0.064 C
HETATM    2  C2  UNL     1     124.182 105.459 -41.654  1.00  0.00     0.000 C
HETATM    3  N1  UNL     1     123.684 105.793 -42.781  1.00  0.00    -0.199 N
ATOM      4  H1  UNL     1     123.160 105.084 -43.295  1.00  0.00     0.183 HD
HETATM    5  C7  UNL     1     123.806 107.078 -43.373  1.00  0.00     0.682 C
HETATM    6  N2  UNL     1     124.971 107.518 -43.617  1.00  0.00    -0.164 N
ATOM      7  H2  UNL     1     125.746 106.905 -43.366  1.00  0.00     0.187 HD
HETATM    8  C8  UNL     1     125.316 108.747 -44.192  1.00  0.00     0.200 C
HETATM    9  N3  UNL     1     125.315 109.812 -43.457  1.00  0.00    -0.373 N
ATOM     10  H31 UNL     1     125.567 110.707 -43.876  1.00  0.00     0.158 HD
ATOM     11  H32 UNL     1     125.057 109.695 -42.477  1.00  0.00     0.158 HD
HETATM   12  N4  UNL     1     125.678 108.909 -45.564  1.00  0.00    -0.063 NA
HETATM   13  N5  UNL     1     122.588 107.772 -43.645  1.00  0.00    -0.218 N
HETATM   14  C9  UNL     1     122.092 108.016 -44.969  1.00  0.00     0.141 C
HETATM   15  C10 UNL     1     121.701 109.472 -45.008  1.00  0.00     0.020 C
HETATM   16  C11 UNL     1     120.469 109.628 -44.154  1.00  0.00     0.003 C
HETATM   17  C12 UNL     1     120.497 108.837 -42.890  1.00  0.00     0.020 C
HETATM   18  C13 UNL     1     121.819 108.247 -42.529  1.00  0.00     0.141 C
ENDROOT
BRANCH   2  19
HETATM   19  C3  UNL     1     123.946 104.057 -41.197  1.00  0.00     0.054 C
BRANCH  19  20
HETATM   20  C4  UNL     1     125.260 103.339 -41.243  1.00  0.00     0.025 C
BRANCH  20  21
HETATM   21  C5  UNL     1     125.223 102.099 -42.097  1.00  0.00     0.078 C
HETATM   22  C6  UNL     1     126.456 101.264 -41.980  1.00  0.00     0.026 C
HETATM   23 CL1  UNL     1     124.894 102.571 -43.788  1.00  0.00    -0.125 Cl
ENDBRANCH  20  21
ENDBRANCH  19  20
ENDBRANCH   2  19
TORSDOF 3
ENDMDL