MODEL 2
REMARK VINA RESULT: -6.813067069      2.636      6.256
REMARK  2 active torsions:
REMARK  status: ('A' for Active; 'I' for Inactive)
REMARK       I    between atoms: N3_4  and  C2_6
REMARK       I    between atoms: C2_6  and  N4_7
REMARK    1  A    between atoms: N5_15  and  C8_17
REMARK    2  A    between atoms: C8_17  and  C9_18
ROOT
HETATM    1  N1  UNL     1     126.000 100.946 -43.721  1.00  0.00    -0.066 NA
HETATM    2  C1  UNL     1     124.916 101.107 -42.842  1.00  0.00     0.215 C
HETATM    3  N2  UNL     1     125.021 100.803 -41.464  1.00  0.00    -0.066 NA
HETATM    4  N3  UNL     1     123.788 101.551 -43.319  1.00  0.00    -0.166 N
ATOM      5  H3  UNL     1     122.997 101.672 -42.686  1.00  0.00     0.186 HD
HETATM    6  C2  UNL     1     123.624 101.870 -44.682  1.00  0.00     0.680 C
HETATM    7  N4  UNL     1     122.829 102.959 -45.065  1.00  0.00    -0.199 N
ATOM      8  H4  UNL     1     121.854 102.753 -45.286  1.00  0.00     0.183 HD
HETATM    9  C3  UNL     1     123.183 104.165 -45.168  1.00  0.00     0.007 C
HETATM   10  C4  UNL     1     122.332 105.289 -45.571  1.00  0.00     0.056 C
HETATM   11  C5  UNL     1     122.741 106.338 -44.539  1.00  0.00     0.043 C
HETATM   12  C6  UNL     1     124.194 106.081 -44.296  1.00  0.00     0.175 C
HETATM   13  F1  UNL     1     124.911 107.094 -44.900  1.00  0.00    -0.249 F
HETATM   14  C7  UNL     1     124.512 104.723 -44.914  1.00  0.00     0.090 C
HETATM   15  N5  UNL     1     124.202 101.166 -45.572  1.00  0.00    -0.222 N
ATOM     16  H5  UNL     1     124.779 100.374 -45.290  1.00  0.00     0.178 HD
ENDROOT
BRANCH  15  17
HETATM   17  C8  UNL     1     124.052 101.468 -46.955  1.00  0.00     0.176 C
BRANCH  17  18
HETATM   18  C9  UNL     1     123.430 100.369 -47.736  1.00  0.00    -0.040 A
HETATM   19  C10 UNL     1     122.228 100.615 -48.357  1.00  0.00     0.009 A
HETATM   20  C11 UNL     1     121.589  99.649 -49.099  1.00  0.00     0.001 A
HETATM   21  C12 UNL     1     122.151  98.398 -49.233  1.00  0.00     0.000 A
HETATM   22  C13 UNL     1     123.352  98.169 -48.606  1.00  0.00     0.001 A
HETATM   23  C14 UNL     1     124.002  99.122 -47.864  1.00  0.00     0.009 A
ENDBRANCH  17  18
ENDBRANCH  15  17
TORSDOF 2
ENDMDL