MODEL 5
REMARK VINA RESULT: -5.595168687      1.772      3.957
REMARK  4 active torsions:
REMARK  status: ('A' for Active; 'I' for Inactive)
REMARK    1  A    between atoms: C2_2  and  N1_3
REMARK       I    between atoms: C3_5  and  N3_7
REMARK    2  A    between atoms: N3_7  and  C4_9
REMARK    3  A    between atoms: N4_14  and  C9_15
REMARK    4  A    between atoms: C9_15  and  C10_16
ROOT
HETATM    1  C4  UNL     1     122.681 108.618 -42.649  1.00  0.00     0.109 A
HETATM    2  C5  UNL     1     123.188 109.841 -42.214  1.00  0.00     0.049 A
HETATM    3  C6  UNL     1     124.403 110.331 -42.648  1.00  0.00     0.005 A
HETATM    4  C7  UNL     1     125.138 109.586 -43.542  1.00  0.00     0.017 A
HETATM    5  C8  UNL     1     124.610 108.381 -43.954  1.00  0.00     0.093 A
HETATM    6  N4  UNL     1     123.406 107.908 -43.518  1.00  0.00    -0.339 N
ENDROOT
BRANCH   1   7
HETATM    7  N3  UNL     1     121.444 108.225 -42.113  1.00  0.00    -0.316 N
HETATM    8  C3  UNL     1     120.195 108.661 -42.634  1.00  0.00     0.193 C
HETATM    9  N1  UNL     1     119.567 109.651 -42.106  1.00  0.00    -0.341 N
HETATM   10  N2  UNL     1     119.606 108.017 -43.750  1.00  0.00    -0.063 NA
ATOM     11  H1  UNL     1     119.986 110.120 -41.302  1.00  0.00     0.167 HD
ATOM     12  H3  UNL     1     121.442 107.596 -41.310  1.00  0.00     0.170 HD
BRANCH   9  13
HETATM   13  C2  UNL     1     118.323 110.121 -42.587  1.00  0.00     0.080 C
HETATM   14  C1  UNL     1     117.582 110.891 -41.825  1.00  0.00     0.030 C
ENDBRANCH   9  13
ENDBRANCH   1   7
BRANCH   6  15
HETATM   15  C9  UNL     1     122.943 106.646 -44.054  1.00  0.00     0.168 C
BRANCH  15  16
HETATM   16  C10 UNL     1     123.545 105.487 -43.358  1.00  0.00    -0.040 A
HETATM   17  C11 UNL     1     123.867 104.336 -44.071  1.00  0.00     0.010 A
HETATM   18  C12 UNL     1     124.433 103.243 -43.463  1.00  0.00     0.024 A
HETATM   19  C13 UNL     1     124.688 103.285 -42.117  1.00  0.00     0.034 A
HETATM   20 CL1  UNL     1     125.413 101.882 -41.345  1.00  0.00    -0.084 Cl
HETATM   21  C14 UNL     1     124.388 104.401 -41.370  1.00  0.00     0.024 A
HETATM   22  C15 UNL     1     123.821 105.475 -42.021  1.00  0.00     0.010 A
ENDBRANCH  15  16
ENDBRANCH   6  15
TORSDOF 4
ENDMDL