MODEL 4
REMARK VINA RESULT: -6.022107557      0.730      1.135
REMARK  4 active torsions:
REMARK  status: ('A' for Active; 'I' for Inactive)
REMARK    1  A    between atoms: C2_2  and  C4_5
REMARK    2  A    between atoms: C4_5  and  C5_7
REMARK    3  A    between atoms: C5_7  and  N1_8
REMARK    4  A    between atoms: N3_17  and  C10_18
ROOT
HETATM    1  N1  UNL     1      91.671  95.992 -43.954  1.00  0.00    -0.255 NA
HETATM    2  C6  UNL     1      91.291  96.957 -42.904  1.00  0.00     0.119 C
HETATM    3  C7  UNL     1      91.353  98.305 -43.580  1.00  0.00     0.126 C
HETATM    4  C8  UNL     1      91.112  99.363 -42.610  1.00  0.00     0.233 C
HETATM    5  O1  UNL     1      92.048 100.033 -42.119  1.00  0.00    -0.273 OA
HETATM    6  N2  UNL     1      89.776  99.637 -42.215  1.00  0.00    -0.279 N
ATOM      7  H2  UNL     1      89.551 100.048 -41.309  1.00  0.00     0.173 HD
HETATM    8  C9  UNL     1      88.762  99.297 -43.173  1.00  0.00     0.326 C
HETATM    9  O2  UNL     1      87.567  99.519 -42.871  1.00  0.00    -0.247 OA
HETATM   10  N3  UNL     1      89.088  98.726 -44.432  1.00  0.00    -0.310 N
HETATM   11  C14 UNL     1      90.401  98.274 -44.749  1.00  0.00     0.182 C
HETATM   12  S1  UNL     1      90.465  96.493 -45.175  1.00  0.00    -0.056 SA
ENDROOT
BRANCH   1  13
HETATM   13  C5  UNL     1      91.478  94.654 -43.503  1.00  0.00     0.120 C
BRANCH  13  14
HETATM   14  C4  UNL     1      92.408  93.682 -44.151  1.00  0.00     0.090 C
HETATM   15 BR2  UNL     1      91.437  92.743 -45.538  1.00  0.00    -0.088 Br
BRANCH  14  16
HETATM   16  C2  UNL     1      92.850  92.624 -43.158  1.00  0.00     0.025 C
HETATM   17  C1  UNL     1      92.048  91.363 -43.366  1.00  0.00     0.028 C
HETATM   18  C3  UNL     1      94.313  92.267 -43.352  1.00  0.00     0.028 C
HETATM   19 BR1  UNL     1      92.523  93.311 -41.386  1.00  0.00    -0.085 Br
ENDBRANCH  14  16
ENDBRANCH  13  14
ENDBRANCH   1  13
BRANCH  10  20
HETATM   20  C10 UNL     1      88.028  98.619 -45.401  1.00  0.00     0.027 C
HETATM   21  C11 UNL     1      88.641  98.399 -46.782  1.00  0.00     0.038 C
HETATM   22  C12 UNL     1      87.128  97.430 -45.129  1.00  0.00     0.038 C
HETATM   23  C13 UNL     1      87.161  99.854 -45.482  1.00  0.00     0.038 C
ENDBRANCH  10  20
TORSDOF 4
ENDMDL