MODEL 1
REMARK VINA RESULT: -5.202714583      0.000      0.000
REMARK  4 active torsions:
REMARK  status: ('A' for Active; 'I' for Inactive)
REMARK    1  A    between atoms: C7_7  and  O1_8
REMARK    2  A    between atoms: C9_12  and  O2_13
REMARK    3  A    between atoms: O2_13  and  C10_14
REMARK    4  A    between atoms: C10_14  and  N1_15
ROOT
HETATM    1  C1  UNL     1      91.978  94.693 -42.211  1.00  0.00     0.020 C
HETATM    2  C2  UNL     1      91.549  95.729 -42.867  1.00  0.00    -0.047 C
HETATM    3  C3  UNL     1      91.391  97.065 -42.269  1.00  0.00    -0.056 C
HETATM    4  C4  UNL     1      92.077  97.387 -41.197  1.00  0.00     0.020 C
HETATM    5  C5  UNL     1      90.436  97.952 -42.983  1.00  0.00     0.029 C
HETATM    6  C6  UNL     1      90.135  99.185 -42.224  1.00  0.00     0.043 C
HETATM    7  C7  UNL     1      91.029 100.359 -42.513  1.00  0.00     0.141 C
HETATM    8  C8  UNL     1      91.175 100.638 -43.971  1.00  0.00     0.081 C
HETATM    9 BR1  UNL     1      89.514 101.234 -44.763  1.00  0.00    -0.079 Br
HETATM   10  C9  UNL     1      92.261 101.676 -44.157  1.00  0.00     0.215 C
HETATM   11  C11 UNL     1      92.618 101.818 -45.607  1.00  0.00     0.157 C
HETATM   12  O3  UNL     1      92.677 102.904 -46.114  1.00  0.00    -0.295 OA
HETATM   13  C12 UNL     1      92.892 100.588 -46.379  1.00  0.00     0.081 C
HETATM   14  C13 UNL     1      91.664  99.691 -46.158  1.00  0.00     0.014 C
HETATM   15  C14 UNL     1      91.628  99.393 -44.674  1.00  0.00     0.019 C
HETATM   16  C15 UNL     1      90.803  98.171 -44.423  1.00  0.00    -0.030 C
HETATM   17  C16 UNL     1      89.533  98.161 -45.271  1.00  0.00     0.016 C
HETATM   18  C17 UNL     1      91.623  96.988 -44.894  1.00  0.00     0.030 C
HETATM   19  C18 UNL     1      91.160  95.676 -44.320  1.00  0.00     0.091 C
HETATM   20 BR2  UNL     1      92.133  94.266 -45.224  1.00  0.00    -0.086 Br
ENDROOT
BRANCH  10  21
HETATM   21  O2  UNL     1      93.424 101.227 -43.538  1.00  0.00    -0.350 OA
BRANCH  21  22
HETATM   22  C10 UNL     1      94.059 102.254 -42.877  1.00  0.00     0.397 C
BRANCH  22  23
HETATM   23  N1  UNL     1      94.348 101.940 -41.496  1.00  0.00    -0.058 N
ATOM     24  H13 UNL     1      94.251 100.941 -41.321  1.00  0.00     0.276 HD
ATOM     25  H12 UNL     1      95.343 102.048 -41.297  1.00  0.00     0.276 HD
ATOM     26  H11 UNL     1      93.784 102.482 -40.840  1.00  0.00     0.276 HD
ENDBRANCH  22  23
ENDBRANCH  21  22
ENDBRANCH  10  21
BRANCH   7  27
HETATM   27  O1  UNL     1      90.358 101.476 -41.957  1.00  0.00    -0.394 OA
ATOM     28  H1  UNL     1      91.030 102.139 -41.852  1.00  0.00     0.210 HD
ENDBRANCH   7  27
TORSDOF 4
ENDMDL