MODEL 1
REMARK VINA RESULT: -7.117167653      0.000      0.000
REMARK  4 active torsions:
REMARK  status: ('A' for Active; 'I' for Inactive)
REMARK    1  A    between atoms: N1_2  and  C2_4
REMARK    2  A    between atoms: C5_10  and  N3_11
REMARK    3  A    between atoms: N3_11  and  C6_13
REMARK    4  A    between atoms: C6_13  and  C7_14
ROOT
HETATM    1  N3  UNL     1      91.521  95.402 -43.942  1.00  0.00    -0.375 N
ATOM      2  H3  UNL     1      91.485  95.823 -43.014  1.00  0.00     0.161 HD
ENDROOT
BRANCH   1   3
HETATM    3  C5  UNL     1      91.558  94.123 -44.033  1.00  0.00     0.119 A
HETATM    4  C4  UNL     1      91.404  93.504 -45.255  1.00  0.00     0.086 A
HETATM    5  C3  UNL     1      91.442  92.121 -45.359  1.00  0.00     0.099 A
HETATM    6  N2  UNL     1      91.635  91.422 -44.224  1.00  0.00    -0.185 N
HETATM    7 BR1  UNL     1      91.228  91.296 -47.046  1.00  0.00    -0.031 Br
HETATM    8  C2  UNL     1      91.787  92.009 -43.027  1.00  0.00     0.680 A
ATOM      9  H2  UNL     1      91.666  90.404 -44.276  1.00  0.00     0.185 HD
HETATM   10  N4  UNL     1      91.744  93.360 -42.963  1.00  0.00    -0.177 N
ATOM     11  H4  UNL     1      91.858  93.811 -42.055  1.00  0.00     0.185 HD
BRANCH   8  12
HETATM   12  N1  UNL     1      91.969  91.355 -41.951  1.00  0.00    -0.230 N
HETATM   13  C1  UNL     1      92.095  89.935 -41.853  1.00  0.00     0.165 C
ATOM     14  H1  UNL     1      92.029  91.890 -41.085  1.00  0.00     0.177 HD
ENDBRANCH   8  12
ENDBRANCH   1   3
BRANCH   1  15
HETATM   15  C6  UNL     1      91.529  96.277 -45.099  1.00  0.00     0.128 C
BRANCH  15  16
HETATM   16  C7  UNL     1      90.489  97.330 -44.867  1.00  0.00     0.035 C
HETATM   17  C8  UNL     1      90.799  98.647 -45.553  1.00  0.00     0.033 C
HETATM   18  C9  UNL     1      90.593  99.726 -44.474  1.00  0.00     0.058 C
HETATM   19 BR2  UNL     1      90.215 101.426 -45.073  1.00  0.00    -0.081 Br
HETATM   20  C10 UNL     1      91.834  99.563 -43.588  1.00  0.00     0.072 C
HETATM   21  C14 UNL     1      89.557  99.022 -43.629  1.00  0.00    -0.001 C
HETATM   22  C11 UNL     1      91.960 100.658 -42.570  1.00  0.00     0.047 C
HETATM   23  C12 UNL     1      93.090  99.683 -44.467  1.00  0.00     0.047 C
HETATM   24  O1  UNL     1      91.681  98.302 -43.063  1.00  0.00    -0.373 OA
HETATM   25  C13 UNL     1      90.454  97.786 -43.400  1.00  0.00     0.137 C
HETATM   26  C15 UNL     1      88.342  98.594 -44.392  1.00  0.00     0.019 C
HETATM   27  C16 UNL     1      89.150  99.684 -42.384  1.00  0.00     0.019 C
ENDBRANCH  15  16
ENDBRANCH   1  15
TORSDOF 4
ENDMDL