MODEL 5
REMARK VINA RESULT: -4.873004869      2.177      4.502
REMARK  2 active torsions:
REMARK  status: ('A' for Active; 'I' for Inactive)
REMARK    1  A    between atoms: C9_12  and  C10_13
REMARK    2  A    between atoms: C11_15  and  C12_16
ROOT
HETATM    1  C1  UNL     1      92.089  98.241 -42.256  1.00  0.00     0.017 C
HETATM    2  C2  UNL     1      91.596  98.887 -43.287  1.00  0.00    -0.060 C
HETATM    3  C3  UNL     1      92.525  99.798 -44.050  1.00  0.00     0.047 C
HETATM    4  C4  UNL     1      92.113 101.244 -43.838  1.00  0.00    -0.013 C
HETATM    5  C5  UNL     1      92.805 102.055 -44.912  1.00  0.00     0.018 C
HETATM    6  C6  UNL     1      92.508 101.780 -42.505  1.00  0.00     0.018 C
HETATM    7  C7  UNL     1      90.598 101.334 -43.996  1.00  0.00     0.168 C
HETATM    8 BR1  UNL     1      89.764 101.818 -42.335  1.00  0.00    -0.068 Br
HETATM    9  N1  UNL     1      90.069 100.099 -44.546  1.00  0.00    -0.323 N
HETATM   10  C8  UNL     1      89.401  99.807 -45.765  1.00  0.00     0.227 C
HETATM   11  O1  UNL     1      88.647 100.530 -46.448  1.00  0.00    -0.273 OA
HETATM   12  C9  UNL     1      89.788  98.423 -46.085  1.00  0.00     0.098 C
HETATM   13  C11 UNL     1      89.835  97.786 -44.718  1.00  0.00     0.090 C
HETATM   14  C16 UNL     1      90.208  98.835 -43.788  1.00  0.00     0.064 C
HETATM   15  C17 UNL     1      89.198  98.867 -42.647  1.00  0.00     0.044 C
ENDROOT
BRANCH  13  16
HETATM   16  C12 UNL     1      90.598  96.529 -44.818  1.00  0.00     0.390 C
HETATM   17  N2  UNL     1      91.843  96.560 -45.506  1.00  0.00    -0.044 N
HETATM   18  C13 UNL     1      92.255  95.150 -45.405  1.00  0.00     0.267 C
ATOM     19  H22 UNL     1      91.813  96.941 -46.452  1.00  0.00     0.279 HD
ATOM     20  H21 UNL     1      92.520  97.241 -45.159  1.00  0.00     0.279 HD
HETATM   21  C14 UNL     1      91.825  94.788 -44.011  1.00  0.00     0.210 C
HETATM   22  C15 UNL     1      91.246  93.392 -43.931  1.00  0.00     0.042 C
HETATM   23  N3  UNL     1      90.852  95.794 -43.636  1.00  0.00    -0.040 N
ATOM     24  H32 UNL     1      91.142  96.372 -42.847  1.00  0.00     0.280 HD
ATOM     25  H31 UNL     1      90.012  95.411 -43.202  1.00  0.00     0.280 HD
ENDBRANCH  13  16
BRANCH  12  26
HETATM   26  C10 UNL     1      88.750  97.785 -46.978  1.00  0.00     0.100 C
HETATM   27 BR2  UNL     1      87.202  97.276 -45.969  1.00  0.00    -0.096 Br
ENDBRANCH  12  26
TORSDOF 2
ENDMDL