MODEL 4
REMARK VINA RESULT: -7.441579059      7.457     10.051
REMARK  6 active torsions:
REMARK  status: ('A' for Active; 'I' for Inactive)
REMARK    1  A    between atoms: C4_4  and  O1_5
REMARK    2  A    between atoms: N1_9  and  C7_10
REMARK    3  A    between atoms: C7_10  and  O2_11
REMARK    4  A    between atoms: C7_10  and  N2_13
REMARK    5  A    between atoms: N2_13  and  C9_15
REMARK       I    between atoms: N3_18  and  C12_19
REMARK       I    between atoms: C12_19  and  N4_21
REMARK    6  A    between atoms: N4_21  and  C13_23
ROOT
HETATM    1  C9  UNL     1      91.046  91.816 -46.159  1.00  0.00     0.090 C
HETATM    2  C10 UNL     1      92.276  91.054 -46.411  1.00  0.00     0.045 C
HETATM    3  C11 UNL     1      92.496  90.521 -47.791  1.00  0.00     0.129 C
HETATM    4  N3  UNL     1      91.288  90.520 -48.591  1.00  0.00    -0.334 N
HETATM    5  C12 UNL     1      90.872  89.336 -49.216  1.00  0.00     0.318 C
HETATM    6  O3  UNL     1      91.593  88.297 -49.048  1.00  0.00    -0.247 OA
HETATM    7  N4  UNL     1      89.715  89.191 -50.025  1.00  0.00    -0.338 N
ATOM      8  H4  UNL     1      89.119  90.005 -50.178  1.00  0.00     0.164 HD
HETATM    9  C21 UNL     1      90.609  91.798 -48.658  1.00  0.00     0.129 C
HETATM   10  C22 UNL     1      90.286  92.353 -47.315  1.00  0.00     0.045 C
ENDROOT
BRANCH   1  11
HETATM   11  N2  UNL     1      91.416  92.968 -45.268  1.00  0.00    -0.347 N
HETATM   12  C8  UNL     1      91.484  94.226 -45.947  1.00  0.00     0.153 C
BRANCH  11  13
HETATM   13  C7  UNL     1      91.653  92.747 -43.921  1.00  0.00     0.217 C
BRANCH  13  14
HETATM   14  N1  UNL     1      92.832  92.479 -43.258  1.00  0.00    -0.343 N
HETATM   15  C2  UNL     1      93.405  93.365 -42.226  1.00  0.00     0.086 C
HETATM   16  C1  UNL     1      92.412  94.256 -41.558  1.00  0.00     0.032 C
HETATM   17  C3  UNL     1      93.935  92.454 -41.091  1.00  0.00     0.056 C
HETATM   18  C4  UNL     1      95.193  91.769 -41.597  1.00  0.00     0.121 C
HETATM   19  C5  UNL     1      95.120  91.657 -43.117  1.00  0.00     0.051 C
HETATM   20  C6  UNL     1      93.673  91.325 -43.527  1.00  0.00     0.129 C
BRANCH  18  21
HETATM   21  O1  UNL     1      95.346  90.488 -41.093  1.00  0.00    -0.395 OA
ATOM     22  H1  UNL     1      95.686  90.481 -40.206  1.00  0.00     0.210 HD
ENDBRANCH  18  21
ENDBRANCH  13  14
BRANCH  13  23
HETATM   23  O2  UNL     1      90.592  92.801 -43.170  1.00  0.00    -0.332 OA
ATOM     24  H2  UNL     1      89.773  92.597 -43.606  1.00  0.00     0.220 HD
ENDBRANCH  13  23
ENDBRANCH  11  13
ENDBRANCH   1  11
BRANCH   7  25
HETATM   25  C13 UNL     1      89.345  87.932 -50.642  1.00  0.00     0.089 C
HETATM   26  C14 UNL     1      88.737  88.158 -51.979  1.00  0.00     0.027 C
HETATM   27  C15 UNL     1      87.988  86.960 -52.423  1.00  0.00     0.030 C
HETATM   28  C16 UNL     1      88.320  85.685 -51.747  1.00  0.00     0.069 C
HETATM   29  C17 UNL     1      87.329  84.626 -52.234  1.00  0.00     0.036 C
HETATM   30 CL1  UNL     1      89.932  85.143 -52.263  1.00  0.00    -0.116 Cl
HETATM   31  C18 UNL     1      88.209  85.736 -50.248  1.00  0.00     0.122 C
HETATM   32  C19 UNL     1      86.860  85.255 -49.764  1.00  0.00     0.054 C
HETATM   33  F1  UNL     1      89.150  84.862 -49.742  1.00  0.00    -0.241 F
HETATM   34  C20 UNL     1      88.528  87.099 -49.694  1.00  0.00     0.070 C
ENDBRANCH   7  25
TORSDOF 6
ENDMDL