MODEL 1
REMARK VINA RESULT: -4.926585122      0.000      0.000
REMARK  6 active torsions:
REMARK  status: ('A' for Active; 'I' for Inactive)
REMARK    1  A    between atoms: C3_3  and  O1_4
REMARK    2  A    between atoms: O1_4  and  C4_5
REMARK    3  A    between atoms: C7_9  and  O2_10
REMARK    4  A    between atoms: C7_9  and  C8_12
REMARK    5  A    between atoms: C9_13  and  C10_14
REMARK    6  A    between atoms: C18_23  and  O3_24
ROOT
HETATM    1  C1  UNL     1      85.200 100.603 -43.990  1.00  0.00     0.019 C
HETATM    2  C2  UNL     1      86.223  99.782 -44.029  1.00  0.00    -0.031 C
HETATM    3  C3  UNL     1      86.729  98.865 -45.088  1.00  0.00     0.158 C
HETATM    4  C5  UNL     1      88.264  98.930 -44.941  1.00  0.00     0.035 C
HETATM    5  C6  UNL     1      88.763  97.543 -44.860  1.00  0.00     0.060 C
HETATM    6  C7  UNL     1      90.160  97.450 -45.469  1.00  0.00     0.124 C
HETATM    7  C12 UNL     1      90.941  98.645 -44.928  1.00  0.00     0.030 C
HETATM    8  C13 UNL     1      92.414  98.355 -45.224  1.00  0.00     0.014 C
HETATM    9  C14 UNL     1      90.712  98.659 -43.438  1.00  0.00     0.025 C
HETATM   10  C15 UNL     1      89.701  99.645 -42.980  1.00  0.00     0.070 C
HETATM   11 BR2  UNL     1      90.659 101.331 -42.688  1.00  0.00    -0.090 Br
HETATM   12  C16 UNL     1      88.496  99.813 -43.790  1.00  0.00     0.005 C
HETATM   13  C17 UNL     1      88.291 101.256 -44.282  1.00  0.00     0.020 C
HETATM   14  C18 UNL     1      87.246  99.541 -42.930  1.00  0.00     0.158 C
ENDROOT
BRANCH   6  15
HETATM   15  O2  UNL     1      90.061  97.545 -46.842  1.00  0.00    -0.377 OA
ATOM     16  H2  UNL     1      90.794  98.051 -47.173  1.00  0.00     0.211 HD
ENDBRANCH   6  15
BRANCH   6  17
HETATM   17  C8  UNL     1      90.797  96.245 -45.003  1.00  0.00    -0.068 C
HETATM   18  C9  UNL     1      91.308  95.246 -44.607  1.00  0.00    -0.104 C
BRANCH  18  19
HETATM   19  C10 UNL     1      91.924  94.003 -44.097  1.00  0.00     0.089 C
HETATM   20  C11 UNL     1      91.924  94.064 -42.565  1.00  0.00     0.018 C
ENDBRANCH  18  19
ENDBRANCH   6  17
BRANCH   3  21
HETATM   21  O1  UNL     1      86.328  99.172 -46.356  1.00  0.00    -0.371 OA
BRANCH  21  22
HETATM   22  C4  UNL     1      86.028  98.026 -47.084  1.00  0.00     0.253 C
HETATM   23 BR1  UNL     1      85.181  96.695 -45.973  1.00  0.00    -0.068 Br
ENDBRANCH  21  22
ENDBRANCH   3  21
BRANCH  14  24
HETATM   24  O3  UNL     1      87.118 100.441 -41.906  1.00  0.00    -0.390 OA
ATOM     25  H3  UNL     1      86.674 100.063 -41.156  1.00  0.00     0.210 HD
ENDBRANCH  14  24
TORSDOF 6
ENDMDL