MODEL 1
REMARK VINA RESULT: -6.001949708      0.000      0.000
REMARK  2 active torsions:
REMARK  status: ('A' for Active; 'I' for Inactive)
REMARK    1  A    between atoms: C2_2  and  C3_3
REMARK    2  A    between atoms: C3_3  and  C4_4
ROOT
HETATM    1  C4  UNL     1      90.682  97.677 -45.202  1.00  0.00     0.025 C
HETATM    2  C5  UNL     1      89.922  98.470 -46.198  1.00  0.00     0.023 C
HETATM    3  C6  UNL     1      90.024  99.894 -45.704  1.00  0.00     0.073 C
HETATM    4  C7  UNL     1      90.956 100.594 -46.577  1.00  0.00     0.183 C
HETATM    5  O1  UNL     1      91.343 100.091 -47.611  1.00  0.00    -0.293 OA
HETATM    6  C8  UNL     1      91.405 101.919 -46.164  1.00  0.00     0.230 C
HETATM    7  F1  UNL     1      92.448 102.278 -47.009  1.00  0.00    -0.221 F
HETATM    8 BR1  UNL     1      89.969 103.164 -46.610  1.00  0.00    -0.039 Br
HETATM    9  C9  UNL     1      91.776 101.976 -44.695  1.00  0.00     0.036 C
HETATM   10  C10 UNL     1      90.935 103.080 -44.093  1.00  0.00     0.022 C
HETATM   11  C11 UNL     1      93.176 102.579 -44.700  1.00  0.00     0.017 C
HETATM   12  C12 UNL     1      93.554 103.352 -43.487  1.00  0.00     0.010 C
HETATM   13  C13 UNL     1      93.867 102.594 -42.272  1.00  0.00     0.103 C
HETATM   14  C14 UNL     1      92.859 101.642 -41.829  1.00  0.00     0.218 C
HETATM   15  O2  UNL     1      92.903 101.422 -40.569  1.00  0.00    -0.274 OA
HETATM   16  N1  UNL     1      91.859 100.937 -42.560  1.00  0.00    -0.350 N
ATOM     17  H1  UNL     1      91.112 100.559 -41.978  1.00  0.00     0.163 HD
HETATM   18  C15 UNL     1      91.703 100.655 -43.981  1.00  0.00     0.050 C
HETATM   19  C16 UNL     1      93.011  99.917 -44.312  1.00  0.00     0.040 C
HETATM   20  C17 UNL     1      90.484  99.880 -44.234  1.00  0.00     0.011 C
HETATM   21  C18 UNL     1      89.327 100.551 -43.481  1.00  0.00     0.021 C
HETATM   22  C19 UNL     1      88.638  99.419 -42.692  1.00  0.00     0.080 C
HETATM   23  C20 UNL     1      88.811  98.430 -43.788  1.00  0.00     0.136 C
HETATM   24  O3  UNL     1      87.866  97.893 -44.246  1.00  0.00    -0.297 OA
HETATM   25  C21 UNL     1      90.301  98.462 -43.953  1.00  0.00     0.034 C
HETATM   26  C22 UNL     1      90.858  97.738 -42.836  1.00  0.00     0.025 C
ENDROOT
BRANCH   1  27
HETATM   27  C3  UNL     1      90.675  96.248 -45.192  1.00  0.00    -0.022 C
BRANCH  27  28
HETATM   28  C2  UNL     1      91.806  95.378 -45.331  1.00  0.00    -0.014 C
HETATM   29  C1  UNL     1      91.970  94.240 -44.645  1.00  0.00     0.011 C
ENDBRANCH  27  28
ENDBRANCH   1  27
TORSDOF 2
ENDMDL