MODEL 1
REMARK VINA RESULT: -7.537553045      0.000      0.000
REMARK  4 active torsions:
REMARK  status: ('A' for Active; 'I' for Inactive)
REMARK    1  A    between atoms: C4_6  and  N2_7
REMARK    2  A    between atoms: N2_7  and  C5_9
REMARK    3  A    between atoms: C13_19  and  N4_20
REMARK    4  A    between atoms: N4_20  and  C14_22
ROOT
HETATM    1  C1  UNL     1      88.868  99.725 -44.626  1.00  0.00     0.054 C
HETATM    2  C2  UNL     1      89.706  98.627 -44.077  1.00  0.00    -0.002 A
HETATM    3  C3  UNL     1      89.895  97.481 -44.821  1.00  0.00     0.116 A
HETATM    4  N1  UNL     1      90.643  96.493 -44.338  1.00  0.00    -0.201 N
ATOM      5  H1  UNL     1      90.780  95.647 -44.891  1.00  0.00     0.183 HD
HETATM    6  C4  UNL     1      91.213  96.595 -43.145  1.00  0.00     0.679 A
HETATM    7  N3  UNL     1      91.021  97.733 -42.415  1.00  0.00    -0.176 N
ATOM      8  H3  UNL     1      91.465  97.801 -41.499  1.00  0.00     0.186 HD
HETATM    9  C13 UNL     1      90.284  98.762 -42.836  1.00  0.00     0.126 A
ENDROOT
BRANCH   6  10
HETATM   10  N2  UNL     1      91.920  95.711 -42.642  1.00  0.00    -0.221 N
ATOM     11  H2  UNL     1      92.713  96.136 -42.162  1.00  0.00     0.178 HD
BRANCH  10  12
HETATM   12  C5  UNL     1      91.982  94.335 -42.519  1.00  0.00     0.099 C
HETATM   13  C6  UNL     1      92.933  93.931 -41.392  1.00  0.00     0.026 C
HETATM   14  C7  UNL     1      92.503  92.491 -41.059  1.00  0.00     0.011 C
HETATM   15  C8  UNL     1      92.951  91.660 -42.233  1.00  0.00    -0.048 C
HETATM   16  C9  UNL     1      92.431  90.249 -42.002  1.00  0.00     0.015 C
HETATM   17  C10 UNL     1      94.470  91.575 -42.162  1.00  0.00     0.015 C
HETATM   18  C11 UNL     1      92.491  92.115 -43.562  1.00  0.00     0.011 C
HETATM   19  C12 UNL     1      92.322  93.579 -43.772  1.00  0.00     0.026 C
ENDBRANCH  10  12
ENDBRANCH   6  10
BRANCH   9  20
HETATM   20  N4  UNL     1      90.118  99.799 -42.156  1.00  0.00    -0.349 N
ATOM     21  H4  UNL     1      89.182  99.922 -41.767  1.00  0.00     0.163 HD
BRANCH  20  22
HETATM   22  C14 UNL     1      91.047 100.830 -41.847  1.00  0.00     0.224 C
HETATM   23  C15 UNL     1      90.494 101.929 -40.992  1.00  0.00     0.088 C
HETATM   24  C16 UNL     1      91.749 102.434 -40.304  1.00  0.00     0.101 C
HETATM   25 BR1  UNL     1      92.675 103.645 -41.455  1.00  0.00    -0.070 Br
HETATM   26 BR2  UNL     1      91.365 103.199 -38.579  1.00  0.00    -0.070 Br
HETATM   27  C17 UNL     1      92.508 101.110 -40.163  1.00  0.00     0.203 C
HETATM   28  O1  UNL     1      92.226 100.382 -41.284  1.00  0.00    -0.364 OA
ENDBRANCH  20  22
ENDBRANCH   9  20
TORSDOF 4
ENDMDL