MODEL 2
REMARK VINA RESULT: -5.289877717      1.604      1.767
REMARK  4 active torsions:
REMARK  status: ('A' for Active; 'I' for Inactive)
REMARK    1  A    between atoms: C2_2  and  C3_3
REMARK    2  A    between atoms: C3_3  and  C4_4
REMARK    3  A    between atoms: C19_26  and  O2_27
REMARK    4  A    between atoms: C23_32  and  O3_33
ROOT
HETATM    1  C4  UNL     1      90.601  99.683 -42.112  1.00  0.00     0.086 C
HETATM    2  C5  UNL     1      91.786  98.776 -42.394  1.00  0.00     0.026 C
HETATM    3  C6  UNL     1      91.921  98.265 -43.777  1.00  0.00     0.008 C
HETATM    4  C7  UNL     1      91.361  96.864 -43.811  1.00  0.00     0.079 C
HETATM    5  C8  UNL     1      91.799  95.983 -44.900  1.00  0.00     0.245 C
HETATM    6  F1  UNL     1      92.993  96.506 -45.417  1.00  0.00    -0.206 F
HETATM    7  F2  UNL     1      92.142  94.709 -44.447  1.00  0.00    -0.206 F
HETATM    8  C9  UNL     1      90.794  95.923 -46.010  1.00  0.00     0.099 C
HETATM    9  C10 UNL     1      89.386  95.649 -45.642  1.00  0.00     0.134 C
HETATM   10  N1  UNL     1      88.406  96.462 -46.333  1.00  0.00    -0.360 N
HETATM   11  C11 UNL     1      88.117  96.075 -47.616  1.00  0.00     0.064 C
HETATM   12  C12 UNL     1      88.836  96.866 -48.718  1.00  0.00     0.046 C
HETATM   13  C13 UNL     1      87.916  97.112 -49.897  1.00  0.00     0.025 C
HETATM   14  C14 UNL     1      87.362  98.521 -49.883  1.00  0.00     0.123 C
HETATM   15  N2  UNL     1      85.931  98.438 -50.102  1.00  0.00    -0.359 N
ATOM     16  H2  UNL     1      85.554  98.599 -51.036  1.00  0.00     0.162 HD
HETATM   17  C15 UNL     1      85.051  98.137 -49.033  1.00  0.00     0.240 C
HETATM   18  O1  UNL     1      84.049  97.424 -49.289  1.00  0.00    -0.271 OA
HETATM   19  C16 UNL     1      85.268  98.627 -47.645  1.00  0.00     0.174 C
HETATM   20  C17 UNL     1      84.059  99.537 -47.342  1.00  0.00     0.042 C
HETATM   21  N3  UNL     1      85.315  97.573 -46.657  1.00  0.00    -0.352 N
HETATM   22  C18 UNL     1      84.203  96.604 -46.788  1.00  0.00     0.152 C
HETATM   23  C19 UNL     1      86.227  97.351 -45.619  1.00  0.00     0.161 C
HETATM   24  C20 UNL     1      87.681  97.397 -45.569  1.00  0.00     0.062 C
HETATM   25  C21 UNL     1      88.344  98.727 -45.692  1.00  0.00     0.069 C
HETATM   26  C22 UNL     1      88.138  99.737 -44.651  1.00  0.00     0.089 C
HETATM   27  C23 UNL     1      88.287  99.373 -43.240  1.00  0.00     0.111 C
HETATM   28  N4  UNL     1      89.382  99.056 -42.473  1.00  0.00    -0.370 N
ATOM     29  H4  UNL     1      89.296  98.128 -42.056  1.00  0.00     0.161 HD
ENDROOT
BRANCH   1  30
HETATM   30  C3  UNL     1      90.894 101.058 -42.538  1.00  0.00     0.051 C
BRANCH  30  31
HETATM   31  C2  UNL     1      90.696 102.075 -41.487  1.00  0.00    -0.035 C
HETATM   32  C1  UNL     1      91.251 101.899 -40.296  1.00  0.00     0.007 C
ENDBRANCH  30  31
ENDBRANCH   1  30
BRANCH  27  33
HETATM   33  O3  UNL     1      87.145  99.351 -42.609  1.00  0.00    -0.350 OA
ATOM     34  H3  UNL     1      86.731  98.496 -42.638  1.00  0.00     0.219 HD
ENDBRANCH  27  33
BRANCH  23  35
HETATM   35  O2  UNL     1      85.603  97.048 -44.510  1.00  0.00    -0.345 OA
ATOM     36  H2  UNL     1      85.233  96.175 -44.559  1.00  0.00     0.219 HD
ENDBRANCH  23  35
TORSDOF 4
ENDMDL