MODEL 3
REMARK VINA RESULT: -6.935442804      7.336     11.212
REMARK  2 active torsions:
REMARK  status: ('A' for Active; 'I' for Inactive)
REMARK    1  A    between atoms: C10_10  and  C11_11
REMARK       I    between atoms: C11_11  and  N1_13
REMARK       I    between atoms: N1_13  and  C12_15
REMARK       I    between atoms: C12_15  and  N2_17
REMARK    2  A    between atoms: C15_20  and  N3_21
REMARK       I    between atoms: N3_21  and  C16_23
REMARK       I    between atoms: C16_23  and  N4_25
ROOT
HETATM    1  N3  UNL     1      91.480  97.302 -43.250  1.00  0.00    -0.337 N
ATOM      2  H3  UNL     1      91.348  97.159 -44.251  1.00  0.00     0.164 HD
HETATM    3  C16 UNL     1      91.595  96.191 -42.383  1.00  0.00     0.320 C
HETATM    4  O3  UNL     1      91.759  96.340 -41.140  1.00  0.00    -0.247 OA
HETATM    5  N4  UNL     1      91.526  94.879 -42.912  1.00  0.00    -0.311 N
HETATM    6  C17 UNL     1      91.340  94.577 -44.316  1.00  0.00     0.208 C
HETATM    7  C18 UNL     1      91.653  93.094 -44.461  1.00  0.00     0.262 C
HETATM    8  F1  UNL     1      92.991  93.027 -44.871  1.00  0.00    -0.204 F
HETATM    9  F2  UNL     1      90.822  92.507 -45.369  1.00  0.00    -0.204 F
HETATM   10  C19 UNL     1      91.536  92.520 -43.075  1.00  0.00     0.121 C
HETATM   11  C20 UNL     1      91.629  93.671 -42.134  1.00  0.00     0.202 C
HETATM   12  C21 UNL     1      92.938  93.677 -41.481  1.00  0.00     0.085 C
HETATM   13  N5  UNL     1      93.969  93.702 -40.971  1.00  0.00    -0.195 NA
ENDROOT
BRANCH   1  14
HETATM   14  C15 UNL     1      91.551  98.661 -42.702  1.00  0.00     0.105 C
HETATM   15  C14 UNL     1      90.229  99.351 -42.773  1.00  0.00     0.047 C
HETATM   16  C13 UNL     1      90.288 100.314 -43.937  1.00  0.00     0.129 C
HETATM   17  N2  UNL     1      91.480  99.898 -44.645  1.00  0.00    -0.332 N
HETATM   18  C12 UNL     1      91.727  99.886 -46.041  1.00  0.00     0.325 C
HETATM   19  C22 UNL     1      92.423  99.476 -43.628  1.00  0.00     0.152 C
HETATM   20  N1  UNL     1      90.703 100.333 -46.918  1.00  0.00    -0.279 N
HETATM   21  O2  UNL     1      92.849  99.480 -46.484  1.00  0.00    -0.247 OA
HETATM   22  C11 UNL     1      90.923 100.336 -48.324  1.00  0.00     0.230 C
ATOM     23  H1  UNL     1      89.811 100.652 -46.541  1.00  0.00     0.173 HD
HETATM   24  O1  UNL     1      92.018  99.937 -48.749  1.00  0.00    -0.273 OA
BRANCH  22  25
HETATM   25  C10 UNL     1      89.852 100.809 -49.204  1.00  0.00     0.090 C
HETATM   26  C2  UNL     1      88.794  99.867 -49.595  1.00  0.00    -0.035 C
HETATM   27  C1  UNL     1      87.557 100.244 -48.740  1.00  0.00     0.015 C
HETATM   28  C3  UNL     1      88.995  98.412 -49.300  1.00  0.00     0.015 C
HETATM   29  C4  UNL     1      88.309 100.007 -51.016  1.00  0.00     0.014 C
HETATM   30  C5  UNL     1      89.363 100.266 -52.022  1.00  0.00    -0.013 C
HETATM   31  C6  UNL     1      89.222 101.738 -52.451  1.00  0.00     0.005 C
HETATM   32  C9  UNL     1      90.766 100.366 -51.418  1.00  0.00     0.010 C
HETATM   33  C7  UNL     1      89.562 102.414 -51.117  1.00  0.00     0.006 C
HETATM   34  C8  UNL     1      90.539 101.462 -50.416  1.00  0.00    -0.000 C
ENDBRANCH  22  25
ENDBRANCH   1  14
TORSDOF 2
ENDMDL