MODEL 5
REMARK VINA RESULT: -4.475768249      7.208      8.459
REMARK  2 active torsions:
REMARK  status: ('A' for Active; 'I' for Inactive)
REMARK    1  A    between atoms: O1_1  and  N1_3
REMARK    2  A    between atoms: C5_13  and  O2_14
ROOT
HETATM    1  N1  UNL     1      87.460  88.426 -41.884  1.00  0.00    -0.273 N
ATOM      2  H1  UNL     1      86.734  88.658 -42.561  1.00  0.00     0.193 HD
HETATM    3  C1  UNL     1      87.300  87.467 -41.057  1.00  0.00     0.061 C
HETATM    4  C2  UNL     1      88.233  86.992 -40.017  1.00  0.00     0.154 C
HETATM    5 CL1  UNL     1      88.967  85.482 -40.635  1.00  0.00    -0.117 Cl
HETATM    6  C3  UNL     1      87.316  86.661 -38.855  1.00  0.00     0.148 C
HETATM    7 CL2  UNL     1      87.881  85.150 -38.115  1.00  0.00    -0.120 Cl
HETATM    8  C4  UNL     1      85.932  86.524 -39.449  1.00  0.00     0.162 C
HETATM    9 CL3  UNL     1      85.130  85.038 -38.929  1.00  0.00    -0.097 Cl
HETATM   10 CL4  UNL     1      84.965  87.962 -38.978  1.00  0.00    -0.097 Cl
HETATM   11  C5  UNL     1      86.116  86.588 -40.945  1.00  0.00     0.207 C
ENDROOT
BRANCH   1  12
HETATM   12  O1  UNL     1      88.633  89.138 -41.841  1.00  0.00    -0.290 OA
ATOM     13  H1  UNL     1      89.418  88.697 -41.537  1.00  0.00     0.244 HD
ENDBRANCH   1  12
BRANCH  11  14
HETATM   14  O2  UNL     1      84.976  87.157 -41.500  1.00  0.00    -0.386 OA
ATOM     15  H2  UNL     1      84.191  86.952 -41.009  1.00  0.00     0.210 HD
ENDBRANCH  11  14
TORSDOF 2
ENDMDL