MODEL 1
REMARK VINA RESULT: -4.702380643      0.000      0.000
REMARK  0 active torsions:
REMARK  status: ('A' for Active; 'I' for Inactive)
ROOT
HETATM    1  F1  UNL     1      91.351  94.277 -41.642  1.00  0.00    -0.238 F
HETATM    2  C1  UNL     1      90.930  93.085 -42.173  1.00  0.00     0.274 C
HETATM    3  C2  UNL     1      89.514  93.116 -42.606  1.00  0.00     0.113 C
HETATM    4  S1  UNL     1      88.287  93.791 -41.785  1.00  0.00    -0.062 SA
HETATM    5  N1  UNL     1      89.375  92.467 -43.858  1.00  0.00    -0.348 N
ATOM      6  H1  UNL     1      88.556  92.466 -44.468  1.00  0.00     0.163 HD
HETATM    7  C3  UNL     1      90.662  91.794 -44.090  1.00  0.00     0.207 C
HETATM    8  S2  UNL     1      90.914  91.476 -45.839  1.00  0.00    -0.042 SA
HETATM    9 CL1  UNL     1      90.661  90.339 -43.104  1.00  0.00    -0.079 Cl
HETATM   10  C4  UNL     1      91.608  92.823 -43.526  1.00  0.00     0.199 C
HETATM   11 CL2  UNL     1      93.245  92.235 -43.339  1.00  0.00    -0.093 Cl
HETATM   12 CL3  UNL     1      91.495  94.317 -44.463  1.00  0.00    -0.093 Cl
ENDROOT
TORSDOF 0
ENDMDL