MODEL 5
REMARK VINA RESULT: -4.964286440      3.009      4.073
REMARK  2 active torsions:
REMARK  status: ('A' for Active; 'I' for Inactive)
REMARK    1  A    between atoms: C2_2  and  O1_3
REMARK    2  A    between atoms: C7_13  and  O2_14
ROOT
HETATM    1  C1  UNL     1      88.807  94.630 -41.984  1.00  0.00     0.049 C
HETATM    2  C2  UNL     1      90.051  94.021 -42.612  1.00  0.00     0.084 C
HETATM    3  C3  UNL     1      89.662  92.683 -43.164  1.00  0.00     0.063 C
HETATM    4  C4  UNL     1      90.287  91.570 -42.353  1.00  0.00     0.127 C
HETATM    5 CL1  UNL     1      89.699  90.034 -42.997  1.00  0.00    -0.122 Cl
HETATM    6  C5  UNL     1      91.796  91.709 -42.572  1.00  0.00     0.163 C
HETATM    7 CL2  UNL     1      92.587  90.429 -41.647  1.00  0.00    -0.097 Cl
HETATM    8 CL3  UNL     1      92.029  91.370 -44.325  1.00  0.00    -0.097 Cl
HETATM    9  C6  UNL     1      92.274  93.075 -42.238  1.00  0.00     0.241 C
HETATM   10  F1  UNL     1      93.382  92.999 -41.402  1.00  0.00    -0.243 F
HETATM   11  C7  UNL     1      91.220  93.991 -41.689  1.00  0.00     0.189 C
ENDROOT
BRANCH   2  12
HETATM   12  O1  UNL     1      90.391  94.879 -43.683  1.00  0.00    -0.387 OA
ATOM     13  H1  UNL     1      89.785  94.662 -44.382  1.00  0.00     0.210 HD
ENDBRANCH   2  12
BRANCH  11  14
HETATM   14  O2  UNL     1      90.895  93.735 -40.366  1.00  0.00    -0.390 OA
ATOM     15  H2  UNL     1      90.071  94.117 -40.085  1.00  0.00     0.210 HD
ENDBRANCH  11  14
TORSDOF 2
ENDMDL