MODEL 4
REMARK VINA RESULT: -5.166100563      3.349      4.083
REMARK  0 active torsions:
REMARK  status: ('A' for Active; 'I' for Inactive)
ROOT
HETATM    1  C1  UNL     1      91.477  88.192 -41.509  1.00  0.00     0.178 C
HETATM    2  N1  UNL     1      90.832  89.362 -42.065  1.00  0.00    -0.293 N
HETATM    3  N2  UNL     1      89.454  89.494 -42.302  1.00  0.00    -0.284 N
ATOM      4  H2  UNL     1      88.748  88.782 -42.107  1.00  0.00     0.188 HD
HETATM    5  C2  UNL     1      89.199  90.778 -42.858  1.00  0.00     0.136 C
HETATM    6  N3  UNL     1      88.059  91.339 -43.041  1.00  0.00    -0.385 N
ATOM      7  H31 UNL     1      87.876  92.260 -43.440  1.00  0.00     0.157 HD
ATOM      8  H32 UNL     1      87.169  90.904 -42.797  1.00  0.00     0.157 HD
HETATM    9  C3  UNL     1      90.491  91.411 -43.212  1.00  0.00     0.217 C
HETATM   10 CL1  UNL     1      90.832  91.352 -44.946  1.00  0.00    -0.086 Cl
HETATM   11 CL2  UNL     1      90.605  93.065 -42.560  1.00  0.00    -0.086 Cl
HETATM   12  C4  UNL     1      91.481  90.554 -42.462  1.00  0.00     0.107 C
HETATM   13  C5  UNL     1      92.723  90.956 -42.267  1.00  0.00     0.131 C
HETATM   14 CL3  UNL     1      93.801  89.901 -41.381  1.00  0.00    -0.069 Cl
HETATM   15 CL4  UNL     1      93.267  92.496 -42.881  1.00  0.00    -0.069 Cl
ENDROOT
TORSDOF 0
ENDMDL