MODEL 2
REMARK VINA RESULT: -5.563734461      7.104      7.512
REMARK  2 active torsions:
REMARK  status: ('A' for Active; 'I' for Inactive)
REMARK    1  A    between atoms: C7_9  and  O1_10
REMARK    2  A    between atoms: C10_15  and  O2_16
ROOT
HETATM    1  C1  UNL     1      86.670  88.099 -40.749  1.00  0.00     0.021 C
HETATM    2  C2  UNL     1      87.410  86.807 -40.905  1.00  0.00     0.020 C
HETATM    3  C3  UNL     1      88.492  86.976 -41.898  1.00  0.00     0.093 C
HETATM    4  C4  UNL     1      89.858  87.179 -41.359  1.00  0.00     0.244 C
HETATM    5  F1  UNL     1      90.487  88.132 -42.181  1.00  0.00    -0.206 F
HETATM    6  F2  UNL     1      90.654  86.035 -41.554  1.00  0.00    -0.206 F
HETATM    7  C5  UNL     1      89.966  87.679 -39.975  1.00  0.00     0.082 C
HETATM    8  C6  UNL     1      88.846  87.387 -39.054  1.00  0.00     0.046 C
HETATM    9  C7  UNL     1      87.970  86.319 -39.565  1.00  0.00     0.085 C
HETATM   10  C8  UNL     1      86.716  86.075 -38.790  1.00  0.00     0.120 C
HETATM   11 CL1  UNL     1      87.011  84.803 -37.548  1.00  0.00    -0.122 Cl
HETATM   12  C9  UNL     1      85.801  85.471 -39.811  1.00  0.00     0.055 C
HETATM   13  C10 UNL     1      86.436  85.714 -41.179  1.00  0.00     0.131 C
ENDROOT
BRANCH   9  14
HETATM   14  O1  UNL     1      88.587  85.101 -39.728  1.00  0.00    -0.387 OA
ATOM     15  H1  UNL     1      89.255  84.982 -39.063  1.00  0.00     0.210 HD
ENDBRANCH   9  14
BRANCH  13  16
HETATM   16  O2  UNL     1      87.139  84.587 -41.606  1.00  0.00    -0.395 OA
ATOM     17  H2  UNL     1      87.729  84.317 -40.911  1.00  0.00     0.210 HD
ENDBRANCH  13  16
TORSDOF 2
ENDMDL