MODEL 1
REMARK VINA RESULT: -5.385558185      0.000      0.000
REMARK  2 active torsions:
REMARK  status: ('A' for Active; 'I' for Inactive)
REMARK    1  A    between atoms: C1_4  and  C2_5
REMARK    2  A    between atoms: C2_5  and  O1_6
ROOT
HETATM    1  C2  UNL     1      90.494  92.300 -43.447  1.00  0.00     0.131 C
HETATM    2  C3  UNL     1      91.944  92.677 -43.651  1.00  0.00     0.098 C
HETATM    3  C4  UNL     1      92.709  91.903 -42.597  1.00  0.00     0.155 C
HETATM    4 CL1  UNL     1      92.907  92.881 -41.112  1.00  0.00    -0.095 Cl
HETATM    5 CL2  UNL     1      94.277  91.384 -43.239  1.00  0.00    -0.095 Cl
HETATM    6  C5  UNL     1      91.820  90.757 -42.327  1.00  0.00     0.071 C
HETATM    7 CL3  UNL     1      92.263  89.269 -41.497  1.00  0.00    -0.084 Cl
HETATM    8  C6  UNL     1      90.605  90.971 -42.791  1.00  0.00     0.072 C
HETATM    9 CL4  UNL     1      89.213  89.860 -42.687  1.00  0.00    -0.084 Cl
ENDROOT
BRANCH   1  10
HETATM   10  C1  UNL     1      89.838  93.310 -42.563  1.00  0.00     0.097 C
HETATM   11  N1  UNL     1      90.115  94.531 -42.690  1.00  0.00    -0.408 N
ATOM     12  H12 UNL     1      90.790  94.815 -43.401  1.00  0.00     0.155 HD
ATOM     13  H11 UNL     1      89.666  95.221 -42.087  1.00  0.00     0.155 HD
ENDBRANCH   1  10
BRANCH   1  14
HETATM   14  O1  UNL     1      89.815  92.143 -44.644  1.00  0.00    -0.378 OA
ATOM     15  H1  UNL     1      89.399  91.291 -44.705  1.00  0.00     0.211 HD
ENDBRANCH   1  14
TORSDOF 2
ENDMDL