MODEL 3
REMARK VINA RESULT: -5.485762436      1.557      3.400
REMARK  1 active torsions:
REMARK  status: ('A' for Active; 'I' for Inactive)
REMARK    1  A    between atoms: C2_5  and  O1_6
ROOT
HETATM    1  N1  UNL     1      93.234  93.220 -40.864  1.00  0.00    -0.402 N
ATOM      2  H11 UNL     1      93.873  92.425 -40.847  1.00  0.00     0.155 HD
ATOM      3  H12 UNL     1      93.443  94.100 -40.392  1.00  0.00     0.155 HD
HETATM    4  C1  UNL     1      92.130  93.130 -41.491  1.00  0.00     0.032 C
HETATM    5  C2  UNL     1      91.203  94.281 -41.515  1.00  0.00     0.183 C
HETATM    6  C3  UNL     1      89.798  93.736 -41.582  1.00  0.00     0.119 C
HETATM    7 CL1  UNL     1      88.677  95.119 -41.726  1.00  0.00    -0.122 Cl
HETATM    8  C4  UNL     1      89.555  92.803 -42.703  1.00  0.00     0.067 C
HETATM    9  C5  UNL     1      90.666  91.935 -43.115  1.00  0.00     0.136 C
HETATM   10 CL2  UNL     1      90.057  90.274 -43.339  1.00  0.00    -0.100 Cl
HETATM   11 CL3  UNL     1      91.316  92.442 -44.715  1.00  0.00    -0.100 Cl
HETATM   12  C6  UNL     1      91.827  91.857 -42.173  1.00  0.00     0.168 C
HETATM   13 CL4  UNL     1      93.269  91.427 -43.144  1.00  0.00    -0.115 Cl
ENDROOT
BRANCH   5  14
HETATM   14  O1  UNL     1      91.286  95.076 -40.382  1.00  0.00    -0.388 OA
ATOM     15  H1  UNL     1      91.017  95.975 -40.532  1.00  0.00     0.210 HD
ENDBRANCH   5  14
TORSDOF 1
ENDMDL