MODEL 4
REMARK VINA RESULT: -5.249338103      1.840      3.238
REMARK  0 active torsions:
REMARK  status: ('A' for Active; 'I' for Inactive)
ROOT
HETATM    1  N1  UNL     1      88.188  91.850 -43.200  1.00  0.00    -0.403 N
ATOM      2  H11 UNL     1      88.044  90.927 -43.612  1.00  0.00     0.155 HD
ATOM      3  H12 UNL     1      87.262  92.245 -43.035  1.00  0.00     0.155 HD
HETATM    4  C1  UNL     1      89.295  92.387 -42.948  1.00  0.00     0.025 C
HETATM    5  C2  UNL     1      89.501  93.716 -42.354  1.00  0.00     0.080 C
HETATM    6  C3  UNL     1      90.664  93.449 -41.403  1.00  0.00     0.122 C
HETATM    7 CL1  UNL     1      91.492  94.954 -41.020  1.00  0.00    -0.120 Cl
HETATM    8  C4  UNL     1      91.492  92.508 -42.189  1.00  0.00     0.016 C
HETATM    9  C5  UNL     1      92.781  92.310 -42.035  1.00  0.00     0.110 C
HETATM   10 CL2  UNL     1      93.679  93.190 -40.824  1.00  0.00    -0.070 Cl
HETATM   11 CL3  UNL     1      93.681  91.156 -43.031  1.00  0.00    -0.070 Cl
HETATM   12  C6  UNL     1      90.634  91.815 -43.186  1.00  0.00     0.178 C
HETATM   13 CL4  UNL     1      91.192  92.301 -44.812  1.00  0.00    -0.090 Cl
HETATM   14 CL5  UNL     1      90.673  90.056 -42.990  1.00  0.00    -0.090 Cl
ENDROOT
TORSDOF 0
ENDMDL