MODEL 3
REMARK VINA RESULT: -4.682524756      2.268      3.206
REMARK  1 active torsions:
REMARK  status: ('A' for Active; 'I' for Inactive)
REMARK    1  A    between atoms: N1_5  and  O1_7
ROOT
HETATM    1  C1  UNL     1      88.261  91.444 -43.055  1.00  0.00     0.014 C
HETATM    2  C2  UNL     1      89.235  92.515 -43.488  1.00  0.00     0.029 C
HETATM    3  C3  UNL     1      89.470  93.535 -42.380  1.00  0.00     0.065 C
HETATM    4  C4  UNL     1      90.942  93.590 -42.225  1.00  0.00     0.052 C
HETATM    5  N1  UNL     1      91.648  94.043 -41.255  1.00  0.00    -0.274 N
ATOM      6  H1  UNL     1      92.664  93.997 -41.333  1.00  0.00     0.193 HD
HETATM    7  C5  UNL     1      91.515  93.000 -43.459  1.00  0.00     0.188 C
HETATM    8 CL1  UNL     1      91.350  94.133 -44.812  1.00  0.00    -0.091 Cl
HETATM    9 CL2  UNL     1      93.182  92.457 -43.248  1.00  0.00    -0.091 Cl
HETATM   10  C6  UNL     1      90.579  91.843 -43.675  1.00  0.00     0.157 C
HETATM   11 CL3  UNL     1      90.772  90.681 -42.343  1.00  0.00    -0.097 Cl
HETATM   12 CL4  UNL     1      90.745  91.091 -45.253  1.00  0.00    -0.097 Cl
ENDROOT
BRANCH   5  13
HETATM   13  O1  UNL     1      91.104  94.587 -40.118  1.00  0.00    -0.290 OA
ATOM     14  H1  UNL     1      90.217  94.927 -40.076  1.00  0.00     0.244 HD
ENDBRANCH   5  13
TORSDOF 1
ENDMDL