MODEL 2
REMARK VINA RESULT: -5.043173524      0.111      1.465
REMARK  2 active torsions:
REMARK  status: ('A' for Active; 'I' for Inactive)
REMARK       I    between atoms: C1_2  and  N2_4
REMARK    1  A    between atoms: N2_4  and  C2_6
REMARK    2  A    between atoms: C2_6  and  C4_10
ROOT
HETATM    1  C2  UNL     1      89.930  92.591 -43.329  1.00  0.00     0.101 C
HETATM    2  C3  UNL     1      89.446  93.656 -42.651  1.00  0.00     0.130 C
HETATM    3 CL1  UNL     1      88.024  93.404 -41.618  1.00  0.00    -0.069 Cl
HETATM    4 CL2  UNL     1      90.104  95.242 -42.707  1.00  0.00    -0.069 Cl
ENDROOT
BRANCH   1   5
HETATM    5  N2  UNL     1      89.231  91.380 -43.129  1.00  0.00    -0.309 N
HETATM    6  C1  UNL     1      89.618  90.117 -42.695  1.00  0.00     0.333 C
HETATM    7  N1  UNL     1      88.558  89.109 -42.626  1.00  0.00    -0.040 NA
HETATM    8  O1  UNL     1      90.751  89.734 -42.355  1.00  0.00    -0.251 OA
ATOM      9  H2  UNL     1      88.237  91.445 -43.349  1.00  0.00     0.170 HD
ENDBRANCH   1   5
BRANCH   1  10
HETATM   10  C4  UNL     1      91.082  92.666 -44.203  1.00  0.00     0.233 C
HETATM   11 CL3  UNL     1      92.567  92.548 -43.212  1.00  0.00    -0.077 Cl
HETATM   12 CL4  UNL     1      91.191  91.349 -45.411  1.00  0.00    -0.077 Cl
HETATM   13 CL5  UNL     1      91.091  94.243 -45.056  1.00  0.00    -0.077 Cl
ENDBRANCH   1  10
TORSDOF 2
ENDMDL