MODEL 2
REMARK VINA RESULT: -8.262583537      4.344      6.993
REMARK  6 active torsions:
REMARK  status: ('A' for Active; 'I' for Inactive)
REMARK    1  A    between atoms: C4_4  and  C5_5
REMARK    2  A    between atoms: C5_5  and  C6_6
REMARK    3  A    between atoms: C6_6  and  C7_8
REMARK    4  A    between atoms: C13_18  and  C14_19
REMARK    5  A    between atoms: C18_24  and  O2_25
REMARK    6  A    between atoms: C18_24  and  C19_27
ROOT
HETATM    1  C5  UNL     1     -10.191 -30.031 -30.516  1.00  0.00     0.089 C
ENDROOT
BRANCH   1   2
HETATM    2  C4  UNL     1      -9.210 -30.229 -29.408  1.00  0.00     0.002 C
HETATM    3  C2  UNL     1      -9.539 -30.983 -28.201  1.00  0.00    -0.027 C
HETATM    4  C1  UNL     1     -10.827 -30.860 -27.516  1.00  0.00     0.016 C
HETATM    5  C3  UNL     1      -8.490 -30.581 -27.119  1.00  0.00     0.016 C
HETATM    6  C20 UNL     1      -9.340 -32.470 -28.499  1.00  0.00     0.109 C
HETATM    7  C18 UNL     1      -7.947 -32.810 -28.888  1.00  0.00     0.169 C
HETATM    8 BR2  UNL     1      -9.958 -33.599 -27.056  1.00  0.00    -0.087 Br
HETATM    9  C17 UNL     1      -7.151 -31.738 -29.532  1.00  0.00     0.049 C
HETATM   10  C16 UNL     1      -7.854 -30.546 -29.989  1.00  0.00     0.009 C
BRANCH   7  11
HETATM   11  O2  UNL     1      -7.183 -33.284 -27.793  1.00  0.00    -0.380 OA
ATOM     12  H2  UNL     1      -7.447 -34.185 -27.645  1.00  0.00     0.211 HD
ENDBRANCH   7  11
BRANCH   7  13
HETATM   13  C19 UNL     1      -8.053 -34.053 -29.793  1.00  0.00     0.419 C
HETATM   14  F1  UNL     1      -7.150 -33.870 -30.825  1.00  0.00    -0.168 F
HETATM   15  F2  UNL     1      -9.318 -34.116 -30.370  1.00  0.00    -0.168 F
HETATM   16  F3  UNL     1      -7.725 -35.189 -29.104  1.00  0.00    -0.168 F
ENDBRANCH   7  13
ENDBRANCH   1   2
BRANCH   1  17
HETATM   17  C6  UNL     1     -10.537 -28.696 -30.976  1.00  0.00     0.162 C
HETATM   18  O1  UNL     1      -9.726 -27.998 -31.573  1.00  0.00    -0.292 OA
BRANCH  17  19
HETATM   19  C7  UNL     1     -11.855 -28.150 -30.727  1.00  0.00     0.038 A
HETATM   20  C8  UNL     1     -12.786 -28.454 -31.768  1.00  0.00     0.103 A
HETATM   21  N1  UNL     1     -14.079 -28.221 -31.566  1.00  0.00    -0.372 N
HETATM   22  C9  UNL     1     -14.535 -27.709 -30.416  1.00  0.00     0.117 A
ATOM     23  H1  UNL     1     -14.743 -28.439 -32.308  1.00  0.00     0.164 HD
HETATM   24  C10 UNL     1     -13.697 -27.396 -29.394  1.00  0.00     0.059 A
HETATM   25  N2  UNL     1     -14.169 -26.896 -28.268  1.00  0.00    -0.364 N
HETATM   26  C15 UNL     1     -12.301 -27.621 -29.561  1.00  0.00     0.014 A
HETATM   27  C11 UNL     1     -13.399 -26.572 -27.237  1.00  0.00     0.089 A
ATOM     28  H2  UNL     1     -15.176 -26.753 -28.185  1.00  0.00     0.165 HD
HETATM   29  C12 UNL     1     -12.063 -26.768 -27.378  1.00  0.00     0.026 A
HETATM   30  C13 UNL     1     -11.444 -27.294 -28.540  1.00  0.00    -0.033 A
BRANCH  30  31
HETATM   31  C14 UNL     1     -10.013 -27.227 -28.683  1.00  0.00     0.124 C
HETATM   32 BR1  UNL     1      -9.264 -25.628 -27.776  1.00  0.00    -0.091 Br
ENDBRANCH  30  31
ENDBRANCH  17  19
ENDBRANCH   1  17
TORSDOF 6
ENDMDL