MODEL 1
REMARK VINA RESULT: -10.084521773      0.000      0.000
REMARK  4 active torsions:
REMARK  status: ('A' for Active; 'I' for Inactive)
REMARK    1  A    between atoms: C3_3  and  O1_4
REMARK    2  A    between atoms: O1_4  and  C4_5
REMARK    3  A    between atoms: C12_18  and  C13_19
REMARK    4  A    between atoms: C13_19  and  C14_20
ROOT
HETATM    1  C1  UNL     1      -8.787 -27.372 -28.986  1.00  0.00     0.071 C
HETATM    2  C2  UNL     1      -9.423 -28.604 -29.516  1.00  0.00     0.043 C
HETATM    3  C3  UNL     1     -10.760 -28.825 -29.260  1.00  0.00     0.119 C
HETATM    4  C10 UNL     1     -11.268 -30.108 -28.957  1.00  0.00     0.097 C
HETATM    5 BR1  UNL     1     -12.714 -30.155 -27.735  1.00  0.00    -0.044 Br
HETATM    6  C11 UNL     1     -10.847 -31.333 -29.419  1.00  0.00     0.200 C
HETATM    7  O2  UNL     1     -11.655 -32.278 -29.383  1.00  0.00    -0.286 OA
HETATM    8  C12 UNL     1      -9.596 -31.696 -29.946  1.00  0.00     0.021 C
HETATM    9  C19 UNL     1      -8.652 -30.789 -30.357  1.00  0.00     0.018 C
HETATM   10  C20 UNL     1      -7.504 -31.307 -31.078  1.00  0.00     0.069 C
HETATM   11  N3  UNL     1      -8.585 -29.423 -30.214  1.00  0.00    -0.356 N
HETATM   12  C21 UNL     1      -7.508 -28.738 -30.858  1.00  0.00     0.156 C
ENDROOT
BRANCH   3  13
HETATM   13  O1  UNL     1     -11.624 -27.798 -29.293  1.00  0.00    -0.304 OA
BRANCH  13  14
HETATM   14  C4  UNL     1     -12.696 -27.492 -30.046  1.00  0.00     0.122 A
HETATM   15  C5  UNL     1     -13.850 -26.965 -29.491  1.00  0.00     0.083 A
HETATM   16  N1  UNL     1     -14.030 -26.711 -28.108  1.00  0.00    -0.099 NA
HETATM   17  C6  UNL     1     -14.959 -26.645 -30.281  1.00  0.00     0.053 A
HETATM   18  C7  UNL     1     -14.946 -26.840 -31.630  1.00  0.00     0.037 A
HETATM   19 CL1  UNL     1     -16.329 -26.445 -32.640  1.00  0.00    -0.084 Cl
HETATM   20  C8  UNL     1     -13.815 -27.358 -32.195  1.00  0.00     0.050 A
HETATM   21  C9  UNL     1     -12.722 -27.671 -31.402  1.00  0.00     0.071 A
HETATM   22 CL2  UNL     1     -11.313 -28.243 -32.309  1.00  0.00    -0.081 Cl
ENDBRANCH  13  14
ENDBRANCH   3  13
BRANCH   8  23
HETATM   23  C13 UNL     1      -9.266 -33.110 -30.072  1.00  0.00     0.101 C
BRANCH  23  24
HETATM   24  C14 UNL     1      -8.774 -33.752 -28.807  1.00  0.00     0.016 A
HETATM   25  C15 UNL     1      -7.574 -34.419 -28.755  1.00  0.00     0.070 A
HETATM   26  C16 UNL     1      -7.083 -35.008 -27.604  1.00  0.00     0.158 A
HETATM   27  F1  UNL     1      -5.879 -35.663 -27.596  1.00  0.00    -0.203 F
HETATM   28  C17 UNL     1      -7.866 -34.897 -26.487  1.00  0.00     0.170 A
HETATM   29  F2  UNL     1      -7.445 -35.449 -25.327  1.00  0.00    -0.201 F
HETATM   30  C18 UNL     1      -9.068 -34.233 -26.529  1.00  0.00     0.133 A
HETATM   31  N2  UNL     1      -9.477 -33.691 -27.671  1.00  0.00    -0.366 N
ATOM     32  H2  UNL     1     -10.373 -33.202 -27.681  1.00  0.00     0.165 HD
ENDBRANCH  23  24
ENDBRANCH   8  23
TORSDOF 4
ENDMDL