MODEL 4
REMARK VINA RESULT: -10.437573846      2.522      2.936
REMARK  6 active torsions:
REMARK  status: ('A' for Active; 'I' for Inactive)
REMARK    1  A    between atoms: C2_3  and  O1_4
REMARK    2  A    between atoms: O1_4  and  C3_5
REMARK    3  A    between atoms: C6_8  and  C7_9
REMARK    4  A    between atoms: C7_9  and  C8_10
REMARK    5  A    between atoms: C9_11  and  C10_12
REMARK    6  A    between atoms: C12_14  and  C13_15
ROOT
HETATM    1  N1  UNL     1      -8.157 -21.348 -23.755  1.00  0.00    -0.195 NA
HETATM    2  C1  UNL     1      -8.745 -21.800 -24.643  1.00  0.00     0.085 C
HETATM    3  C2  UNL     1      -9.497 -22.344 -25.767  1.00  0.00     0.299 C
ENDROOT
BRANCH   3   4
HETATM    4  O1  UNL     1      -9.180 -23.654 -26.089  1.00  0.00    -0.338 OA
BRANCH   4   5
HETATM    5  C3  UNL     1      -9.883 -24.542 -26.859  1.00  0.00     0.070 A
HETATM    6  C4  UNL     1     -11.276 -24.513 -26.917  1.00  0.00     0.037 A
HETATM    7  C5  UNL     1     -11.958 -25.411 -27.698  1.00  0.00     0.012 A
HETATM    8  C6  UNL     1     -11.326 -26.392 -28.470  1.00  0.00    -0.031 A
HETATM    9  C27 UNL     1      -9.941 -26.374 -28.374  1.00  0.00     0.012 A
HETATM   10  C28 UNL     1      -9.234 -25.484 -27.596  1.00  0.00     0.037 A
BRANCH   8  11
HETATM   11  C7  UNL     1     -12.070 -27.323 -29.297  1.00  0.00     0.126 C
HETATM   12  C20 UNL     1     -13.482 -27.544 -28.770  1.00  0.00     0.059 C
HETATM   13  C21 UNL     1     -14.148 -28.601 -29.583  1.00  0.00     0.087 C
HETATM   14  C22 UNL     1     -15.656 -28.354 -29.459  1.00  0.00     0.027 C
HETATM   15  N3  UNL     1     -13.849 -28.704 -30.936  1.00  0.00    -0.343 N
HETATM   16  C23 UNL     1     -16.224 -28.812 -30.758  1.00  0.00     0.022 C
HETATM   17  C24 UNL     1     -15.045 -29.026 -31.676  1.00  0.00     0.123 C
HETATM   18  C25 UNL     1     -12.928 -27.871 -31.576  1.00  0.00     0.387 C
HETATM   19  F3  UNL     1     -13.560 -27.195 -32.610  1.00  0.00    -0.176 F
HETATM   20  F4  UNL     1     -11.919 -28.611 -32.152  1.00  0.00    -0.176 F
HETATM   21  C26 UNL     1     -12.285 -26.810 -30.707  1.00  0.00     0.350 C
HETATM   22  F5  UNL     1     -13.165 -25.768 -30.673  1.00  0.00    -0.195 F
HETATM   23  F6  UNL     1     -11.084 -26.381 -31.233  1.00  0.00    -0.195 F
BRANCH  11  24
HETATM   24  C8  UNL     1     -11.423 -28.660 -29.353  1.00  0.00    -0.083 C
HETATM   25  C9  UNL     1     -10.920 -29.755 -29.435  1.00  0.00    -0.072 C
BRANCH  25  26
HETATM   26  C10 UNL     1     -10.352 -31.057 -29.572  1.00  0.00     0.264 C
HETATM   27  C11 UNL     1      -9.858 -31.657 -28.278  1.00  0.00     0.052 C
HETATM   28  C12 UNL     1      -9.446 -33.024 -28.850  1.00  0.00     0.018 C
HETATM   29  C19 UNL     1     -10.648 -33.353 -29.671  1.00  0.00     0.239 C
HETATM   30  N2  UNL     1     -11.310 -32.074 -29.982  1.00  0.00    -0.060 N
ATOM     31  H22 UNL     1     -12.233 -31.970 -29.560  1.00  0.00     0.278 HD
ATOM     32  H21 UNL     1     -11.617 -31.990 -30.951  1.00  0.00     0.278 HD
BRANCH  28  33
HETATM   33  C13 UNL     1      -9.064 -34.019 -27.825  1.00  0.00    -0.009 C
HETATM   34  C14 UNL     1      -7.697 -34.577 -28.139  1.00  0.00     0.011 C
HETATM   35  C15 UNL     1      -6.760 -34.540 -26.953  1.00  0.00     0.079 C
HETATM   36  C16 UNL     1      -7.385 -35.218 -25.762  1.00  0.00     0.243 C
HETATM   37  F1  UNL     1      -6.628 -34.972 -24.615  1.00  0.00    -0.206 F
HETATM   38  F2  UNL     1      -7.405 -36.582 -26.040  1.00  0.00    -0.206 F
HETATM   39  C17 UNL     1      -8.751 -34.673 -25.508  1.00  0.00     0.079 C
HETATM   40  C18 UNL     1      -9.028 -33.476 -26.424  1.00  0.00     0.011 C
ENDBRANCH  28  33
ENDBRANCH  25  26
ENDBRANCH  11  24
ENDBRANCH   8  11
ENDBRANCH   4   5
ENDBRANCH   3   4
TORSDOF 6
ENDMDL