MODEL 1
REMARK VINA RESULT: -10.392867167      0.000      0.000
REMARK  7 active torsions:
REMARK  status: ('A' for Active; 'I' for Inactive)
REMARK    1  A    between atoms: O1_2  and  C2_3
REMARK    2  A    between atoms: C2_3  and  C3_5
REMARK    3  A    between atoms: C6_8  and  N1_9
REMARK    4  A    between atoms: C9_12  and  N2_13
REMARK       I    between atoms: N2_13  and  C10_14
REMARK    5  A    between atoms: N2_13  and  C15_22
REMARK       I    between atoms: C10_14  and  N3_16
REMARK    6  A    between atoms: N3_16  and  C11_18
REMARK    7  A    between atoms: C18_25  and  C20_27
ROOT
HETATM    1  N2  UNL     1     -11.808 -26.090 -28.696  1.00  0.00    -0.317 N
HETATM    2  C10 UNL     1     -11.847 -24.873 -27.974  1.00  0.00     0.319 C
HETATM    3  O3  UNL     1     -12.751 -24.040 -28.215  1.00  0.00    -0.247 OA
HETATM    4  N3  UNL     1     -10.938 -24.501 -26.984  1.00  0.00    -0.335 N
ATOM      5  H3  UNL     1     -10.181 -25.143 -26.754  1.00  0.00     0.165 HD
ENDROOT
BRANCH   1   6
HETATM    6  C9  UNL     1     -10.799 -27.023 -28.388  1.00  0.00     0.119 C
HETATM    7  C8  UNL     1      -9.485 -26.881 -29.157  1.00  0.00     0.057 C
HETATM    8  C7  UNL     1      -8.886 -28.260 -28.951  1.00  0.00     0.275 C
HETATM    9  N1  UNL     1      -9.657 -28.861 -27.878  1.00  0.00     0.095 N
HETATM   10  C23 UNL     1     -11.036 -28.478 -28.334  1.00  0.00     0.298 C
BRANCH   9  11
HETATM   11  C6  UNL     1      -9.534 -30.276 -27.797  1.00  0.00     0.223 C
HETATM   12  C5  UNL     1      -8.131 -30.606 -27.338  1.00  0.00     0.036 C
HETATM   13  C4  UNL     1      -7.950 -32.110 -27.587  1.00  0.00     0.017 C
HETATM   14  C3  UNL     1      -8.943 -32.904 -26.782  1.00  0.00     0.085 C
HETATM   15  C25 UNL     1     -10.363 -32.469 -27.151  1.00  0.00     0.017 C
HETATM   16  C24 UNL     1     -10.487 -30.963 -26.883  1.00  0.00     0.036 C
BRANCH  14  17
HETATM   17  C2  UNL     1      -8.776 -34.331 -27.123  1.00  0.00     0.262 C
HETATM   18  O2  UNL     1      -8.531 -34.654 -28.301  1.00  0.00    -0.265 OA
BRANCH  17  19
HETATM   19  O1  UNL     1      -8.899 -35.266 -26.112  1.00  0.00    -0.326 OA
HETATM   20  C1  UNL     1      -8.737 -34.804 -24.777  1.00  0.00     0.213 C
ENDBRANCH  17  19
ENDBRANCH  14  17
ENDBRANCH   9  11
ENDBRANCH   1   6
BRANCH   1  21
HETATM   21  C15 UNL     1     -12.847 -26.186 -29.681  1.00  0.00     0.161 C
HETATM   22  C16 UNL     1     -12.660 -26.455 -31.072  1.00  0.00     0.032 C
HETATM   23  C17 UNL     1     -13.774 -27.175 -31.800  1.00  0.00     0.020 C
HETATM   24  C18 UNL     1     -15.157 -26.916 -31.365  1.00  0.00     0.059 C
HETATM   25  C19 UNL     1     -16.077 -28.114 -31.701  1.00  0.00     0.025 C
HETATM   26  C21 UNL     1     -15.246 -26.701 -29.900  1.00  0.00     0.099 C
HETATM   27  C22 UNL     1     -13.950 -27.174 -29.191  1.00  0.00     0.265 C
HETATM   28  F4  UNL     1     -14.206 -27.023 -27.856  1.00  0.00    -0.204 F
HETATM   29  F5  UNL     1     -13.693 -28.461 -29.474  1.00  0.00    -0.204 F
BRANCH  24  30
HETATM   30  C20 UNL     1     -15.795 -25.712 -32.071  1.00  0.00     0.395 C
HETATM   31  F1  UNL     1     -16.843 -26.141 -32.882  1.00  0.00    -0.170 F
HETATM   32  F2  UNL     1     -14.904 -25.035 -32.868  1.00  0.00    -0.170 F
HETATM   33  F3  UNL     1     -16.318 -24.840 -31.155  1.00  0.00    -0.170 F
ENDBRANCH  24  30
ENDBRANCH   1  21
BRANCH   4  34
HETATM   34  C11 UNL     1     -11.019 -23.234 -26.263  1.00  0.00     0.023 C
HETATM   35  C12 UNL     1     -11.978 -23.432 -25.104  1.00  0.00     0.037 C
HETATM   36  C13 UNL     1      -9.635 -22.868 -25.796  1.00  0.00     0.037 C
HETATM   37  C14 UNL     1     -11.538 -22.121 -27.113  1.00  0.00     0.037 C
ENDBRANCH   4  34
TORSDOF 7
ENDMDL