MODEL 1
REMARK VINA RESULT: -10.026327397      0.000      0.000
REMARK  5 active torsions:
REMARK  status: ('A' for Active; 'I' for Inactive)
REMARK    1  A    between atoms: C2_2  and  C3_3
REMARK    2  A    between atoms: C3_3  and  C4_4
REMARK    3  A    between atoms: C4_4  and  C5_5
REMARK    4  A    between atoms: C17_20  and  O3_21
REMARK    5  A    between atoms: C22_29  and  C23_30
ROOT
HETATM    1  C5  UNL     1      -9.889 -31.766 -29.243  1.00  0.00    -0.006 C
HETATM    2  C6  UNL     1     -10.593 -33.021 -28.961  1.00  0.00     0.020 C
HETATM    3  C7  UNL     1     -10.340 -33.583 -27.556  1.00  0.00     0.079 C
HETATM    4  C8  UNL     1      -9.142 -33.065 -26.860  1.00  0.00     0.129 C
HETATM    5  O1  UNL     1      -8.469 -33.676 -26.087  1.00  0.00    -0.298 OA
HETATM    6  C9  UNL     1      -8.715 -31.623 -27.142  1.00  0.00     0.111 C
HETATM    7  C10 UNL     1      -9.860 -31.118 -27.891  1.00  0.00     0.139 C
HETATM    8  O2  UNL     1     -10.113 -29.825 -28.069  1.00  0.00    -0.361 OA
HETATM    9  C11 UNL     1     -11.245 -29.804 -28.954  1.00  0.00     0.142 C
HETATM   10 BR1  UNL     1     -12.637 -30.779 -27.981  1.00  0.00    -0.053 Br
HETATM   11  C12 UNL     1     -10.581 -30.633 -30.004  1.00  0.00     0.044 C
HETATM   12  C13 UNL     1      -9.408 -29.821 -30.513  1.00  0.00     0.010 C
HETATM   13  C14 UNL     1      -9.723 -28.529 -31.187  1.00  0.00     0.008 C
HETATM   14  C15 UNL     1     -11.112 -28.591 -31.648  1.00  0.00     0.017 C
HETATM   15  C16 UNL     1     -11.251 -27.751 -32.926  1.00  0.00     0.013 C
HETATM   16  C17 UNL     1     -11.898 -27.855 -30.542  1.00  0.00     0.088 C
HETATM   17  C18 UNL     1     -11.554 -26.429 -30.739  1.00  0.00     0.120 C
HETATM   18  C19 UNL     1     -11.160 -25.632 -29.564  1.00  0.00     0.163 C
HETATM   19  O4  UNL     1     -10.873 -24.464 -29.755  1.00  0.00    -0.295 OA
HETATM   20  C20 UNL     1     -11.097 -26.162 -28.208  1.00  0.00     0.240 C
HETATM   21  F1  UNL     1     -12.023 -25.584 -27.324  1.00  0.00    -0.241 F
HETATM   22  C21 UNL     1     -10.987 -27.593 -28.197  1.00  0.00     0.071 C
HETATM   23  C22 UNL     1     -11.778 -28.452 -29.197  1.00  0.00     0.133 C
ENDROOT
BRANCH   1  24
HETATM   24  C4  UNL     1      -8.572 -32.122 -29.822  1.00  0.00     0.012 C
BRANCH  24  25
HETATM   25  C3  UNL     1      -8.520 -33.310 -30.736  1.00  0.00     0.000 C
BRANCH  25  26
HETATM   26  C2  UNL     1      -7.110 -33.461 -31.369  1.00  0.00    -0.005 C
HETATM   27  C1  UNL     1      -6.659 -32.074 -31.737  1.00  0.00     0.005 C
ENDBRANCH  25  26
ENDBRANCH  24  25
ENDBRANCH   1  24
BRANCH  23  28
HETATM   28  C23 UNL     1     -13.231 -28.296 -28.674  1.00  0.00     0.402 C
HETATM   29  F2  UNL     1     -14.106 -29.221 -29.250  1.00  0.00    -0.170 F
HETATM   30  F3  UNL     1     -13.298 -28.250 -27.312  1.00  0.00    -0.170 F
HETATM   31  F4  UNL     1     -13.824 -27.121 -29.099  1.00  0.00    -0.170 F
ENDBRANCH  23  28
BRANCH  16  32
HETATM   32  O3  UNL     1     -13.188 -28.040 -31.131  1.00  0.00    -0.388 OA
ATOM     33  H3  UNL     1     -13.506 -27.164 -30.946  1.00  0.00     0.210 HD
ENDBRANCH  16  32
TORSDOF 5
ENDMDL