MODEL 5
REMARK VINA RESULT: -10.931573719      1.898      2.162
REMARK  5 active torsions:
REMARK  status: ('A' for Active; 'I' for Inactive)
REMARK    1  A    between atoms: C2_2  and  C3_3
REMARK    2  A    between atoms: C2_2  and  C4_6
REMARK    3  A    between atoms: C2_2  and  N1_21
REMARK    4  A    between atoms: C8_10  and  C9_11
REMARK    5  A    between atoms: C18_24  and  C19_26
ROOT
HETATM    1  C1  UNL     1     -10.639 -33.693 -27.493  1.00  0.00     0.051 C
HETATM    2  C2  UNL     1      -9.823 -32.736 -28.424  1.00  0.00     0.124 C
ENDROOT
BRANCH   2   3
HETATM    3  C3  UNL     1      -9.708 -33.461 -29.673  1.00  0.00     0.203 C
HETATM    4  O1  UNL     1     -10.318 -34.583 -29.801  1.00  0.00    -0.646 OA
HETATM    5  O2  UNL     1      -9.004 -33.095 -30.795  1.00  0.00    -0.646 OA
ENDBRANCH   2   3
BRANCH   2   6
HETATM    6  C4  UNL     1      -8.516 -32.592 -27.666  1.00  0.00     0.051 A
HETATM    7  C5  UNL     1      -7.500 -31.978 -28.515  1.00  0.00    -0.019 A
HETATM    8  C6  UNL     1      -6.302 -32.449 -28.741  1.00  0.00    -0.003 A
HETATM    9  C7  UNL     1      -5.897 -33.680 -28.117  1.00  0.00     0.003 A
HETATM   10  C8  UNL     1      -6.732 -34.321 -27.320  1.00  0.00    -0.075 A
HETATM   11  C15 UNL     1      -8.098 -33.852 -26.983  1.00  0.00     0.046 A
BRANCH  10  12
HETATM   12  C9  UNL     1      -6.257 -35.604 -26.696  1.00  0.00     0.017 C
HETATM   13  C10 UNL     1      -6.300 -35.586 -25.204  1.00  0.00     0.015 C
HETATM   14  C11 UNL     1      -6.367 -37.027 -24.723  1.00  0.00     0.083 C
HETATM   15  C12 UNL     1      -5.511 -37.923 -25.566  1.00  0.00     0.273 C
HETATM   16  F1  UNL     1      -5.531 -39.178 -24.952  1.00  0.00    -0.203 F
HETATM   17  F2  UNL     1      -4.210 -37.484 -25.494  1.00  0.00    -0.203 F
HETATM   18  C13 UNL     1      -6.035 -38.008 -26.978  1.00  0.00     0.242 C
HETATM   19  F3  UNL     1      -4.953 -37.935 -27.843  1.00  0.00    -0.243 F
HETATM   20  C14 UNL     1      -6.947 -36.815 -27.293  1.00  0.00     0.052 C
ENDBRANCH  10  12
ENDBRANCH   2   6
BRANCH   2  21
HETATM   21  N1  UNL     1     -10.467 -31.507 -28.532  1.00  0.00    -0.374 N
HETATM   22  C16 UNL     1     -10.580 -30.680 -27.362  1.00  0.00     0.127 C
HETATM   23  C17 UNL     1     -11.865 -29.853 -27.506  1.00  0.00     0.072 C
HETATM   24  C18 UNL     1     -11.589 -28.801 -28.535  1.00  0.00     0.174 C
HETATM   25  F4  UNL     1     -11.012 -27.720 -27.838  1.00  0.00    -0.234 F
HETATM   26  C22 UNL     1     -10.550 -29.277 -29.482  1.00  0.00     0.097 C
HETATM   27  C23 UNL     1     -10.536 -30.777 -29.729  1.00  0.00     0.063 C
BRANCH  24  28
HETATM   28  C19 UNL     1     -12.795 -28.279 -29.210  1.00  0.00     0.165 A
HETATM   29  N2  UNL     1     -12.924 -27.057 -29.732  1.00  0.00    -0.344 N
HETATM   30  C20 UNL     1     -14.170 -26.963 -30.259  1.00  0.00     0.135 A
ATOM     31  H2  UNL     1     -12.213 -26.325 -29.735  1.00  0.00     0.167 HD
HETATM   32  C21 UNL     1     -14.760 -28.194 -30.018  1.00  0.00     0.139 A
HETATM   33 BR1  UNL     1     -16.538 -28.629 -30.552  1.00  0.00    -0.021 Br
HETATM   34  O3  UNL     1     -13.893 -28.970 -29.378  1.00  0.00    -0.285 OA
ENDBRANCH  24  28
ENDBRANCH   2  21
TORSDOF 5
ENDMDL