MODEL 4
REMARK VINA RESULT: -10.557543563      1.513      1.794
REMARK  5 active torsions:
REMARK  status: ('A' for Active; 'I' for Inactive)
REMARK    1  A    between atoms: C5_5  and  N1_6
REMARK    2  A    between atoms: N2_12  and  C11_13
REMARK    3  A    between atoms: C14_16  and  N3_17
REMARK       I    between atoms: N3_17  and  C15_19
REMARK    4  A    between atoms: C15_19  and  C16_21
REMARK    5  A    between atoms: C19_24  and  C20_25
ROOT
HETATM    1  C11 UNL     1     -10.628 -30.982 -28.975  1.00  0.00     0.086 C
HETATM    2  C12 UNL     1      -9.365 -30.549 -28.317  1.00  0.00     0.027 C
HETATM    3  C13 UNL     1      -8.862 -31.640 -27.346  1.00  0.00     0.030 C
HETATM    4  C14 UNL     1      -8.914 -32.951 -28.097  1.00  0.00     0.118 C
HETATM    5  C21 UNL     1     -10.367 -33.307 -28.261  1.00  0.00     0.194 C
HETATM    6  F4  UNL     1     -10.697 -34.156 -27.210  1.00  0.00    -0.247 F
HETATM    7  C22 UNL     1     -11.304 -32.121 -28.335  1.00  0.00     0.064 C
ENDROOT
BRANCH   1   8
HETATM    8  N2  UNL     1     -11.455 -29.856 -29.273  1.00  0.00    -0.386 N
HETATM    9  C10 UNL     1     -12.361 -29.460 -28.244  1.00  0.00     0.123 C
HETATM   10  C9  UNL     1     -11.933 -28.107 -27.659  1.00  0.00     0.034 C
HETATM   11  C8  UNL     1     -11.832 -27.013 -28.684  1.00  0.00     0.017 C
HETATM   12  C7  UNL     1     -10.596 -26.173 -28.541  1.00  0.00     0.058 C
HETATM   13  C24 UNL     1     -11.822 -27.638 -30.049  1.00  0.00     0.218 C
HETATM   14  C25 UNL     1     -12.951 -25.991 -28.518  1.00  0.00     0.135 C
HETATM   15  C6  UNL     1     -11.091 -24.828 -29.030  1.00  0.00     0.059 C
HETATM   16  N1  UNL     1     -12.354 -24.686 -28.481  1.00  0.00    -0.388 N
HETATM   17  C23 UNL     1     -10.845 -28.808 -29.988  1.00  0.00     0.096 C
HETATM   18  F5  UNL     1     -13.059 -28.013 -30.498  1.00  0.00    -0.243 F
BRANCH  16  19
HETATM   19  C5  UNL     1     -12.647 -23.868 -27.403  1.00  0.00     0.083 C
HETATM   20  C4  UNL     1     -12.277 -24.510 -26.071  1.00  0.00     0.026 C
HETATM   21  C3  UNL     1     -12.302 -23.447 -24.980  1.00  0.00     0.006 C
HETATM   22  C2  UNL     1     -10.991 -22.715 -25.106  1.00  0.00    -0.019 C
HETATM   23  C1  UNL     1     -10.882 -21.526 -24.198  1.00  0.00     0.010 C
HETATM   24  C27 UNL     1     -10.779 -22.392 -26.555  1.00  0.00     0.006 C
HETATM   25  C26 UNL     1     -12.068 -22.486 -27.366  1.00  0.00     0.026 C
ENDBRANCH  16  19
ENDBRANCH   1   8
BRANCH   4  26
HETATM   26  N3  UNL     1      -8.213 -34.018 -27.414  1.00  0.00    -0.348 N
HETATM   27  C15 UNL     1      -6.738 -34.200 -27.478  1.00  0.00     0.275 C
HETATM   28  O1  UNL     1      -6.046 -33.587 -28.029  1.00  0.00    -0.265 OA
ATOM     29  H3  UNL     1      -8.758 -34.679 -26.861  1.00  0.00     0.163 HD
BRANCH  27  30
HETATM   30  C16 UNL     1      -6.464 -35.488 -26.593  1.00  0.00     0.143 A
HETATM   31  C17 UNL     1      -6.317 -35.257 -25.293  1.00  0.00     0.046 A
HETATM   32  C18 UNL     1      -6.152 -36.507 -24.724  1.00  0.00     0.045 A
HETATM   33  C19 UNL     1      -6.209 -37.324 -25.847  1.00  0.00     0.159 A
HETATM   34  O2  UNL     1      -6.384 -36.639 -26.963  1.00  0.00    -0.300 OA
BRANCH  33  35
HETATM   35  C20 UNL     1      -5.938 -38.837 -25.854  1.00  0.00     0.439 C
HETATM   36  F1  UNL     1      -6.227 -39.465 -24.719  1.00  0.00    -0.164 F
HETATM   37  F2  UNL     1      -5.136 -39.316 -26.701  1.00  0.00    -0.164 F
HETATM   38  F3  UNL     1      -7.356 -39.083 -26.595  1.00  0.00    -0.164 F
ENDBRANCH  33  35
ENDBRANCH  27  30
ENDBRANCH   4  26
TORSDOF 5
ENDMDL