MODEL 3
REMARK VINA RESULT: -8.222667627      2.562      3.286
REMARK  5 active torsions:
REMARK  status: ('A' for Active; 'I' for Inactive)
REMARK       I    between atoms: C1_2  and  N1_3
REMARK       I    between atoms: C1_2  and  N3_15
REMARK    1  A    between atoms: N1_3  and  N2_5
REMARK    2  A    between atoms: C2_7  and  C3_8
REMARK    3  A    between atoms: C12_21  and  C13_22
REMARK    4  A    between atoms: C13_22  and  C14_23
REMARK    5  A    between atoms: C14_23  and  C15_25
ROOT
HETATM    1  O1  UNL     1     -10.712 -28.380 -30.245  1.00  0.00    -0.245 OA
HETATM    2  C1  UNL     1     -10.171 -27.422 -29.605  1.00  0.00     0.339 C
HETATM    3  N1  UNL     1      -8.764 -27.259 -29.801  1.00  0.00    -0.252 N
ATOM      4  H1  UNL     1      -8.275 -26.505 -29.320  1.00  0.00     0.191 HD
HETATM    5  N3  UNL     1     -10.944 -26.558 -28.737  1.00  0.00    -0.301 N
HETATM    6  C9  UNL     1     -10.277 -25.522 -28.035  1.00  0.00     0.188 C
HETATM    7 CL1  UNL     1      -9.896 -24.111 -29.080  1.00  0.00    -0.102 Cl
HETATM    8  C10 UNL     1     -10.897 -25.053 -26.762  1.00  0.00     0.051 C
HETATM    9  C11 UNL     1     -12.323 -24.597 -26.894  1.00  0.00     0.079 C
HETATM   10  S1  UNL     1     -13.261 -26.107 -27.351  1.00  0.00    -0.143 SA
HETATM   11  C12 UNL     1     -12.360 -26.876 -28.710  1.00  0.00     0.159 C
ENDROOT
BRANCH  11  12
HETATM   12  C13 UNL     1     -13.046 -26.472 -29.989  1.00  0.00     0.119 C
BRANCH  12  13
HETATM   13  C14 UNL     1     -14.140 -27.452 -30.259  1.00  0.00     0.183 C
HETATM   14  O2  UNL     1     -14.057 -28.579 -29.804  1.00  0.00    -0.293 OA
BRANCH  13  15
HETATM   15  C15 UNL     1     -15.333 -27.068 -31.078  1.00  0.00     0.248 C
HETATM   16 CL2  UNL     1     -16.615 -28.248 -30.763  1.00  0.00    -0.075 Cl
HETATM   17 CL3  UNL     1     -15.939 -25.459 -30.567  1.00  0.00    -0.075 Cl
HETATM   18 CL4  UNL     1     -14.934 -26.967 -32.803  1.00  0.00    -0.075 Cl
ENDBRANCH  13  15
ENDBRANCH  12  13
ENDBRANCH  11  12
BRANCH   3  19
HETATM   19  N2  UNL     1      -8.069 -28.089 -30.615  1.00  0.00    -0.307 N
HETATM   20  C2  UNL     1      -7.743 -29.269 -30.689  1.00  0.00     0.118 C
ATOM     21  H2  UNL     1      -7.704 -27.572 -31.415  1.00  0.00     0.186 HD
BRANCH  20  22
HETATM   22  C3  UNL     1      -8.040 -30.358 -29.779  1.00  0.00    -0.019 A
HETATM   23  C4  UNL     1      -7.612 -30.357 -28.490  1.00  0.00     0.014 A
HETATM   24  C5  UNL     1      -7.916 -31.424 -27.627  1.00  0.00     0.020 A
HETATM   25  C6  UNL     1      -8.654 -32.503 -28.058  1.00  0.00     0.011 A
HETATM   26 BR1  UNL     1      -9.020 -33.906 -26.824  1.00  0.00    -0.051 Br
HETATM   27  C7  UNL     1      -9.086 -32.502 -29.359  1.00  0.00     0.020 A
HETATM   28  C8  UNL     1      -8.784 -31.459 -30.187  1.00  0.00     0.014 A
ENDBRANCH  20  22
ENDBRANCH   3  19
TORSDOF 5
ENDMDL