MODEL 2
REMARK VINA RESULT: -8.088406192      1.438      1.564
REMARK  5 active torsions:
REMARK  status: ('A' for Active; 'I' for Inactive)
REMARK    1  A    between atoms: C2_2  and  C3_4
REMARK    2  A    between atoms: C3_4  and  O2_6
REMARK    3  A    between atoms: C3_4  and  C5_8
REMARK    4  A    between atoms: C6_11  and  O3_12
REMARK    5  A    between atoms: O3_12  and  C7_13
ROOT
HETATM    1  C5  UNL     1     -13.606 -27.803 -30.412  1.00  0.00     0.092 A
HETATM    2  N1  UNL     1     -12.724 -28.730 -30.768  1.00  0.00    -0.332 N
ATOM      3  H1  UNL     1     -12.840 -29.180 -31.677  1.00  0.00     0.168 HD
HETATM    4  C6  UNL     1     -11.664 -29.119 -29.983  1.00  0.00     0.188 A
HETATM    5  C13 UNL     1     -11.554 -28.492 -28.778  1.00  0.00     0.170 A
HETATM    6  F1  UNL     1     -10.592 -28.748 -27.854  1.00  0.00    -0.201 F
HETATM    7  C14 UNL     1     -12.466 -27.507 -28.364  1.00  0.00     0.091 A
HETATM    8  C15 UNL     1     -13.487 -27.169 -29.184  1.00  0.00     0.145 A
HETATM    9  F2  UNL     1     -14.419 -26.243 -28.895  1.00  0.00    -0.204 F
ENDROOT
BRANCH   4  10
HETATM   10  O3  UNL     1     -10.829 -30.054 -30.411  1.00  0.00    -0.288 OA
BRANCH  10  11
HETATM   11  C7  UNL     1      -9.755 -30.734 -29.990  1.00  0.00     0.112 A
HETATM   12  C8  UNL     1      -8.444 -30.278 -30.029  1.00  0.00     0.047 A
HETATM   13 BR1  UNL     1      -8.081 -28.555 -30.751  1.00  0.00    -0.048 Br
HETATM   14  C9  UNL     1      -7.424 -31.072 -29.559  1.00  0.00     0.041 A
HETATM   15  C10 UNL     1      -7.618 -32.323 -29.039  1.00  0.00     0.013 A
HETATM   16 BR2  UNL     1      -6.183 -33.403 -28.394  1.00  0.00    -0.051 Br
HETATM   17  C11 UNL     1      -8.896 -32.795 -28.988  1.00  0.00     0.041 A
HETATM   18  C12 UNL     1      -9.933 -32.009 -29.455  1.00  0.00     0.047 A
HETATM   19 BR3  UNL     1     -11.692 -32.761 -29.228  1.00  0.00    -0.048 Br
ENDBRANCH  10  11
ENDBRANCH   4  10
BRANCH   1  20
HETATM   20  C3  UNL     1     -14.700 -27.417 -31.314  1.00  0.00     0.159 C
HETATM   21  C4  UNL     1     -14.750 -25.996 -31.708  1.00  0.00     0.061 C
BRANCH  20  22
HETATM   22  C2  UNL     1     -16.040 -27.875 -30.876  1.00  0.00     0.163 C
HETATM   23  C1  UNL     1     -16.335 -29.303 -30.477  1.00  0.00     0.094 C
HETATM   24  O1  UNL     1     -16.994 -27.123 -30.811  1.00  0.00    -0.295 OA
ENDBRANCH  20  22
BRANCH  20  25
HETATM   25  O2  UNL     1     -14.452 -28.169 -32.508  1.00  0.00    -0.376 OA
ATOM     26  H2  UNL     1     -14.128 -29.003 -32.190  1.00  0.00     0.211 HD
ENDBRANCH  20  25
ENDBRANCH   1  20
TORSDOF 5
ENDMDL