MODEL 4
REMARK VINA RESULT: -8.666539879      2.393      5.112
REMARK  6 active torsions:
REMARK  status: ('A' for Active; 'I' for Inactive)
REMARK    1  A    between atoms: O1_2  and  N1_3
REMARK       I    between atoms: N1_3  and  C2_5
REMARK       I    between atoms: C2_5  and  N2_7
REMARK    2  A    between atoms: C5_10  and  N3_11
REMARK    3  A    between atoms: N3_11  and  C6_12
REMARK    4  A    between atoms: N3_11  and  C12_22
REMARK    5  A    between atoms: C6_12  and  O3_13
REMARK    6  A    between atoms: C6_12  and  C7_15
ROOT
HETATM    1  C12 UNL     1     -11.864 -26.119 -28.201  1.00  0.00     0.060 A
HETATM    2  C13 UNL     1     -11.059 -25.551 -29.184  1.00  0.00     0.033 A
HETATM    3  C14 UNL     1     -10.420 -24.336 -29.065  1.00  0.00     0.027 A
HETATM    4  C15 UNL     1     -10.577 -23.617 -27.905  1.00  0.00     0.068 A
HETATM    5  C16 UNL     1      -9.923 -22.341 -27.735  1.00  0.00     0.101 C
HETATM    6  N4  UNL     1      -9.381 -21.320 -27.592  1.00  0.00    -0.191 NA
HETATM    7  C17 UNL     1     -11.365 -24.141 -26.914  1.00  0.00     0.078 A
HETATM    8 CL3  UNL     1     -11.573 -23.216 -25.421  1.00  0.00    -0.081 Cl
HETATM    9  C18 UNL     1     -12.009 -25.364 -27.029  1.00  0.00     0.084 A
HETATM   10 CL4  UNL     1     -13.048 -25.894 -25.723  1.00  0.00    -0.080 Cl
ENDROOT
BRANCH   1  11
HETATM   11  N3  UNL     1     -12.466 -27.399 -28.350  1.00  0.00    -0.324 N
BRANCH  11  12
HETATM   12  C5  UNL     1     -11.763 -28.563 -27.754  1.00  0.00     0.095 C
HETATM   13  C4  UNL     1     -12.526 -29.843 -28.044  1.00  0.00     0.045 C
HETATM   14  C3  UNL     1     -11.568 -30.750 -28.823  1.00  0.00     0.129 C
HETATM   15  N2  UNL     1     -10.514 -31.025 -27.818  1.00  0.00    -0.332 N
HETATM   16  C2  UNL     1     -10.347 -32.329 -27.328  1.00  0.00     0.342 C
HETATM   17  C20 UNL     1      -9.743 -29.904 -27.392  1.00  0.00     0.129 C
HETATM   18  N1  UNL     1      -9.351 -32.649 -26.394  1.00  0.00    -0.217 N
HETATM   19  O2  UNL     1     -11.129 -33.253 -27.750  1.00  0.00    -0.245 OA
ATOM     20  H1  UNL     1      -8.741 -31.892 -26.086  1.00  0.00     0.199 HD
HETATM   21  C19 UNL     1     -10.311 -28.621 -28.005  1.00  0.00     0.045 C
BRANCH  18  22
HETATM   22  O1  UNL     1      -9.130 -33.860 -25.873  1.00  0.00    -0.281 OA
HETATM   23  C1  UNL     1      -8.050 -34.506 -26.422  1.00  0.00     0.237 C
ENDBRANCH  18  22
ENDBRANCH  11  12
BRANCH  11  24
HETATM   24  C6  UNL     1     -13.641 -27.622 -29.049  1.00  0.00     0.130 C
BRANCH  24  25
HETATM   25  O3  UNL     1     -14.720 -27.514 -28.306  1.00  0.00    -0.348 OA
ATOM     26  H3  UNL     1     -15.036 -28.346 -27.973  1.00  0.00     0.219 HD
ENDBRANCH  24  25
BRANCH  24  27
HETATM   27  C7  UNL     1     -13.948 -27.959 -30.415  1.00  0.00     0.057 C
HETATM   28  C8  UNL     1     -14.921 -29.192 -30.398  1.00  0.00     0.027 C
HETATM   29  C9  UNL     1     -12.977 -28.058 -31.514  1.00  0.00     0.024 C
HETATM   30  C10 UNL     1     -13.349 -26.663 -31.958  1.00  0.00     0.044 C
HETATM   31  C11 UNL     1     -14.645 -26.834 -31.194  1.00  0.00     0.128 C
HETATM   32 CL1  UNL     1     -15.108 -25.412 -30.280  1.00  0.00    -0.100 Cl
HETATM   33 CL2  UNL     1     -16.000 -27.415 -32.186  1.00  0.00    -0.100 Cl
ENDBRANCH  24  27
ENDBRANCH  11  24
ENDBRANCH   1  11
TORSDOF 6
ENDMDL