MODEL 1
REMARK VINA RESULT: -8.149190122      0.000      0.000
REMARK  7 active torsions:
REMARK  status: ('A' for Active; 'I' for Inactive)
REMARK    1  A    between atoms: C5_6  and  O2_7
REMARK    2  A    between atoms: C6_9  and  C7_10
REMARK    3  A    between atoms: C7_10  and  O3_11
REMARK    4  A    between atoms: C7_10  and  C8_13
REMARK    5  A    between atoms: C8_13  and  O4_14
REMARK    6  A    between atoms: C8_13  and  N1_16
REMARK    7  A    between atoms: N1_16  and  C9_18
ROOT
HETATM    1  C8  UNL     1      12.342 -10.436  -9.417  1.00  0.00     0.280 C
ENDROOT
BRANCH   1   2
HETATM    2  C7  UNL     1      13.498  -9.463  -9.446  1.00  0.00     0.128 C
BRANCH   2   3
HETATM    3  C6  UNL     1      14.683  -9.920 -10.153  1.00  0.00     0.146 A
HETATM    4  C5  UNL     1      14.873  -9.516 -11.507  1.00  0.00     0.153 A
HETATM    5  C4  UNL     1      16.021  -9.994 -12.084  1.00  0.00     0.210 A
HETATM    6  C3  UNL     1      16.892 -10.799 -11.352  1.00  0.00     0.090 A
HETATM    7  O1  UNL     1      16.275  -9.699 -13.289  1.00  0.00    -0.285 OA
HETATM    8  C2  UNL     1      16.651 -11.149 -10.049  1.00  0.00     0.054 A
HETATM    9  C1  UNL     1      17.570 -12.012  -9.229  1.00  0.00     0.077 C
HETATM   10  O7  UNL     1      15.547 -10.677  -9.540  1.00  0.00    -0.310 OA
BRANCH   4  11
HETATM   11  O2  UNL     1      13.935  -8.712 -12.124  1.00  0.00    -0.355 OA
ATOM     12  H2  UNL     1      12.994  -8.761 -12.000  1.00  0.00     0.218 HD
ENDBRANCH   4  11
ENDBRANCH   2   3
BRANCH   2  13
HETATM   13  O3  UNL     1      13.241  -8.151  -9.488  1.00  0.00    -0.358 OA
ATOM     14  H3  UNL     1      12.354  -7.883  -9.277  1.00  0.00     0.217 HD
ENDBRANCH   2  13
ENDBRANCH   1   2
BRANCH   1  15
HETATM   15  O4  UNL     1      12.705 -11.751  -9.513  1.00  0.00    -0.370 OA
ATOM     16  H4  UNL     1      12.104 -12.357  -9.095  1.00  0.00     0.212 HD
ENDBRANCH   1  15
BRANCH   1  17
HETATM   17  N1  UNL     1      11.462 -10.218  -8.316  1.00  0.00    -0.340 N
ATOM     18  H1  UNL     1      10.485 -10.021  -8.532  1.00  0.00     0.164 HD
BRANCH  17  19
HETATM   19  C9  UNL     1      11.829 -10.250  -6.947  1.00  0.00     0.169 A
HETATM   20  N2  UNL     1      12.077 -11.341  -6.336  1.00  0.00    -0.363 N
HETATM   21  C10 UNL     1      12.454 -11.515  -4.971  1.00  0.00     0.224 A
ATOM     22  H2  UNL     1      11.998 -12.193  -6.891  1.00  0.00     0.161 HD
HETATM   23  C11 UNL     1      12.616 -10.261  -4.218  1.00  0.00     0.242 A
HETATM   24  O5  UNL     1      12.988 -10.269  -3.034  1.00  0.00    -0.271 OA
HETATM   25  N3  UNL     1      12.338  -9.007  -4.867  1.00  0.00    -0.289 N
HETATM   26  C12 UNL     1      11.948  -8.993  -6.225  1.00  0.00     0.291 A
ATOM     27  H3  UNL     1      12.421  -8.133  -4.349  1.00  0.00     0.172 HD
HETATM   28  O6  UNL     1      11.698  -7.908  -6.831  1.00  0.00    -0.264 OA
ENDBRANCH  17  19
ENDBRANCH   1  17
TORSDOF 7
ENDMDL