MODEL 2
REMARK VINA RESULT: -7.578847178      3.535      7.151
REMARK  8 active torsions:
REMARK  status: ('A' for Active; 'I' for Inactive)
REMARK    1  A    between atoms: O1_2  and  C2_3
REMARK    2  A    between atoms: C3_5  and  O3_6
REMARK    3  A    between atoms: C3_5  and  C4_8
REMARK    4  A    between atoms: C4_8  and  O4_9
REMARK    5  A    between atoms: C4_8  and  O5_11
REMARK    6  A    between atoms: N1_17  and  O7_19
REMARK    7  A    between atoms: O7_19  and  C8_20
REMARK    8  A    between atoms: C12_24  and  O8_25
ROOT
HETATM    1  C2  UNL     1      12.210  -5.665  -2.349  1.00  0.00     0.292 C
HETATM    2  O2  UNL     1      11.539  -4.555  -2.859  1.00  0.00    -0.316 OA
HETATM    3  C3  UNL     1      10.365  -4.891  -3.523  1.00  0.00     0.242 C
HETATM    4  C5  UNL     1      10.529  -6.250  -4.090  1.00  0.00     0.201 C
HETATM    5  O6  UNL     1       9.780  -6.540  -5.196  1.00  0.00    -0.374 OA
HETATM    6  C6  UNL     1      10.402  -7.742  -5.632  1.00  0.00     0.223 C
HETATM    7  C7  UNL     1      11.842  -7.460  -5.543  1.00  0.00     0.043 C
HETATM    8  N1  UNL     1      12.800  -8.071  -6.081  1.00  0.00    -0.272 N
ATOM      9  H1  UNL     1      13.762  -7.765  -5.934  1.00  0.00     0.193 HD
HETATM   10  C11 UNL     1      11.957  -6.282  -4.673  1.00  0.00     0.103 C
HETATM   11  C12 UNL     1      12.852  -6.477  -3.485  1.00  0.00     0.185 C
ENDROOT
BRANCH   3  12
HETATM   12  O3  UNL     1      10.175  -3.989  -4.579  1.00  0.00    -0.359 OA
ATOM     13  H3  UNL     1       9.493  -4.327  -5.148  1.00  0.00     0.213 HD
ENDBRANCH   3  12
BRANCH   3  14
HETATM   14  C4  UNL     1       9.151  -4.798  -2.642  1.00  0.00     0.320 C
BRANCH  14  15
HETATM   15  O4  UNL     1       8.218  -3.880  -3.078  1.00  0.00    -0.366 OA
ATOM     16  H4  UNL     1       8.543  -3.297  -3.754  1.00  0.00     0.212 HD
ENDBRANCH  14  15
BRANCH  14  17
HETATM   17  O5  UNL     1       8.582  -6.069  -2.445  1.00  0.00    -0.366 OA
ATOM     18  H5  UNL     1       8.878  -6.446  -1.625  1.00  0.00     0.212 HD
ENDBRANCH  14  17
ENDBRANCH   3  14
BRANCH   1  19
HETATM   19  O1  UNL     1      13.239  -5.187  -1.553  1.00  0.00    -0.363 OA
HETATM   20  C1  UNL     1      14.151  -4.524  -2.362  1.00  0.00     0.204 C
ENDBRANCH   1  19
BRANCH  11  21
HETATM   21  O8  UNL     1      13.008  -7.794  -3.133  1.00  0.00    -0.390 OA
ATOM     22  H8  UNL     1      13.744  -8.190  -3.587  1.00  0.00     0.210 HD
ENDBRANCH  11  21
BRANCH   8  23
HETATM   23  O7  UNL     1      12.524  -9.160  -6.873  1.00  0.00    -0.276 OA
BRANCH  23  24
HETATM   24  C8  UNL     1      12.790 -10.489  -6.475  1.00  0.00     0.144 C
HETATM   25  C9  UNL     1      12.948 -10.654  -5.000  1.00  0.00     0.042 C
HETATM   26  C10 UNL     1      11.596 -11.335  -6.928  1.00  0.00     0.042 C
ENDBRANCH  23  24
ENDBRANCH   8  23
TORSDOF 8
ENDMDL