MODEL 1
REMARK VINA RESULT: -7.974922619      0.000      0.000
REMARK  4 active torsions:
REMARK  status: ('A' for Active; 'I' for Inactive)
REMARK       I    between atoms: C1_2  and  N1_3
REMARK    1  A    between atoms: C1_2  and  C2_9
REMARK    2  A    between atoms: N1_3  and  S1_5
REMARK    3  A    between atoms: C3_15  and  N4_16
REMARK    4  A    between atoms: N4_16  and  C4_18
ROOT
HETATM    1  C2  UNL     1      11.736  -5.764  -1.284  1.00  0.00     0.404 C
HETATM    2  N2  UNL     1      13.075  -5.284  -1.279  1.00  0.00    -0.238 N
ATOM      3  H2  UNL     1      13.376  -4.606  -0.579  1.00  0.00     0.193 HD
HETATM    4  O5  UNL     1      13.908  -5.715  -2.167  1.00  0.00    -0.161 OA
HETATM    5  N3  UNL     1      13.549  -6.589  -3.062  1.00  0.00    -0.229 N
ATOM      6  H3  UNL     1      14.029  -6.628  -3.960  1.00  0.00     0.194 HD
HETATM    7  C3  UNL     1      12.485  -7.488  -2.784  1.00  0.00     0.415 C
HETATM    8  N6  UNL     1      11.691  -7.147  -1.630  1.00  0.00    -0.003 N
ATOM      9  H61 UNL     1      10.726  -7.454  -1.756  1.00  0.00     0.285 HD
ATOM     10  H62 UNL     1      11.952  -7.725  -0.831  1.00  0.00     0.285 HD
ENDROOT
BRANCH   1  11
HETATM   11  C1  UNL     1      10.906  -4.906  -2.206  1.00  0.00     0.285 C
HETATM   12  O1  UNL     1      11.343  -3.792  -2.578  1.00  0.00    -0.268 OA
HETATM   13  N1  UNL     1       9.632  -5.346  -2.651  1.00  0.00    -0.232 N
ATOM     14  H1  UNL     1       9.266  -6.251  -2.359  1.00  0.00     0.184 HD
BRANCH  13  15
HETATM   15  S1  UNL     1       8.708  -4.322  -3.699  1.00  0.00     0.211 S
HETATM   16  O2  UNL     1       7.496  -5.094  -4.105  1.00  0.00    -0.578 OA
HETATM   17  O3  UNL     1       9.591  -3.995  -4.891  1.00  0.00    -0.578 OA
HETATM   18  O4  UNL     1       8.243  -2.972  -2.858  1.00  0.00    -0.578 OA
ENDBRANCH  13  15
ENDBRANCH   1  11
BRANCH   7  19
HETATM   19  N4  UNL     1      12.872  -8.872  -2.746  1.00  0.00    -0.325 N
ATOM     20  H4  UNL     1      13.333  -9.226  -1.908  1.00  0.00     0.165 HD
BRANCH  19  21
HETATM   21  C4  UNL     1      12.665  -9.684  -3.720  1.00  0.00     0.147 A
HETATM   22  N5  UNL     1      12.845 -11.003  -3.722  1.00  0.00    -0.346 N
HETATM   23  C5  UNL     1      12.582 -11.673  -4.815  1.00  0.00     0.097 A
ATOM     24  H5  UNL     1      13.181 -11.483  -2.887  1.00  0.00     0.167 HD
HETATM   25  C6  UNL     1      12.137 -10.980  -5.898  1.00  0.00     0.070 A
HETATM   26  S2  UNL     1      12.109  -9.378  -5.303  1.00  0.00    -0.065 SA
ENDBRANCH  19  21
ENDBRANCH   7  19
TORSDOF 4
ENDMDL