MODEL 4
REMARK VINA RESULT: -8.547029267      1.702      1.911
REMARK  7 active torsions:
REMARK  status: ('A' for Active; 'I' for Inactive)
REMARK    1  A    between atoms: C3_4  and  C4_5
REMARK    2  A    between atoms: N2_6  and  N3_8
REMARK    3  A    between atoms: N3_8  and  C5_10
REMARK    4  A    between atoms: N5_15  and  N6_16
REMARK    5  A    between atoms: C9_24  and  N8_25
REMARK    6  A    between atoms: N8_25  and  N9_26
REMARK    7  A    between atoms: N8_25  and  O3_29
ROOT
HETATM    1  C4  UNL     1      12.088  -8.712  -4.460  1.00  0.00     0.119 C
HETATM    2  N2  UNL     1      12.793  -8.710  -5.525  1.00  0.00    -0.297 N
ATOM      3  H2  UNL     1      13.095  -7.823  -5.929  1.00  0.00     0.186 HD
ENDROOT
BRANCH   2   4
HETATM    4  N3  UNL     1      13.145  -9.886  -6.128  1.00  0.00    -0.132 N
ATOM      5  H3  UNL     1      12.781 -10.726  -5.678  1.00  0.00     0.205 HD
BRANCH   4   6
HETATM    6  C5  UNL     1      13.854 -10.095  -7.160  1.00  0.00     0.705 A
HETATM    7  N4  UNL     1      13.470  -9.723  -8.386  1.00  0.00    -0.138 N
HETATM    8  C6  UNL     1      14.296  -9.974  -9.433  1.00  0.00     0.363 A
ATOM      9  H4  UNL     1      12.573  -9.259  -8.531  1.00  0.00     0.189 HD
HETATM   10  O1  UNL     1      13.939  -9.627 -10.579  1.00  0.00    -0.244 OA
HETATM   11  N5  UNL     1      15.491 -10.588  -9.271  1.00  0.00    -0.159 N
HETATM   12  C7  UNL     1      15.870 -10.960  -8.034  1.00  0.00     0.363 A
HETATM   13  O2  UNL     1      16.970 -11.533  -7.832  1.00  0.00    -0.244 OA
HETATM   14  N7  UNL     1      15.044 -10.707  -6.999  1.00  0.00    -0.138 N
ATOM     15  H7  UNL     1      15.330 -10.988  -6.062  1.00  0.00     0.189 HD
BRANCH  11  16
HETATM   16  N6  UNL     1      16.353 -10.849 -10.331  1.00  0.00    -0.330 N
ATOM     17  H62 UNL     1      15.976 -11.310 -11.159  1.00  0.00     0.177 HD
ATOM     18  H61 UNL     1      17.342 -10.601 -10.312  1.00  0.00     0.177 HD
ENDBRANCH  11  16
ENDBRANCH   4   6
ENDBRANCH   2   4
BRANCH   1  19
HETATM   19  C3  UNL     1      11.652  -7.535  -3.734  1.00  0.00    -0.015 A
HETATM   20  C2  UNL     1      10.308  -7.260  -3.575  1.00  0.00     0.039 A
HETATM   21  C1  UNL     1       9.929  -6.128  -2.849  1.00  0.00     0.049 A
HETATM   22  N1  UNL     1       8.547  -5.840  -2.690  1.00  0.00    -0.102 NA
HETATM   23  C10 UNL     1      10.895  -5.292  -2.294  1.00  0.00     0.060 A
HETATM   24  C9  UNL     1      12.228  -5.556  -2.447  1.00  0.00     0.083 A
HETATM   25  C8  UNL     1      12.592  -6.679  -3.168  1.00  0.00     0.046 A
BRANCH  24  26
HETATM   26  N8  UNL     1      13.231  -4.720  -1.891  1.00  0.00    -0.170 N
BRANCH  26  27
HETATM   27  N9  UNL     1      14.552  -4.980  -2.225  1.00  0.00    -0.319 N
ATOM     28  H92 UNL     1      15.264  -5.029  -1.496  1.00  0.00     0.179 HD
ATOM     29  H91 UNL     1      14.777  -5.116  -3.210  1.00  0.00     0.179 HD
ENDBRANCH  26  27
BRANCH  26  30
HETATM   30  O3  UNL     1      12.953  -3.782  -1.129  1.00  0.00    -0.268 OA
ATOM     31  H3  UNL     1      13.087  -2.875  -1.380  1.00  0.00     0.247 HD
ENDBRANCH  26  30
ENDBRANCH  24  26
ENDBRANCH   1  19
TORSDOF 7
ENDMDL