MODEL 2
REMARK VINA RESULT: -7.632443199      2.138      2.972
REMARK  7 active torsions:
REMARK  status: ('A' for Active; 'I' for Inactive)
REMARK    1  A    between atoms: O1_2  and  C2_3
REMARK    2  A    between atoms: C2_3  and  C3_5
REMARK       I    between atoms: C3_5  and  N1_7
REMARK    3  A    between atoms: N1_7  and  C4_9
REMARK    4  A    between atoms: C5_14  and  S1_15
REMARK    5  A    between atoms: S1_15  and  C6_16
REMARK    6  A    between atoms: C9_23  and  N6_24
REMARK    7  A    between atoms: N7_27  and  N8_28
ROOT
HETATM    1  C4  UNL     1      11.108  -8.061  -5.977  1.00  0.00     0.723 A
HETATM    2  N2  UNL     1       9.786  -8.066  -5.727  1.00  0.00    -0.128 N
ATOM      3  H2  UNL     1       9.114  -8.729  -6.113  1.00  0.00     0.205 HD
HETATM    4  N3  UNL     1       9.492  -7.059  -4.890  1.00  0.00    -0.263 N
ATOM      5  H3  UNL     1       8.564  -6.831  -4.535  1.00  0.00     0.189 HD
HETATM    6  C5  UNL     1      10.629  -6.401  -4.598  1.00  0.00     0.203 A
HETATM    7  N7  UNL     1      11.611  -7.048  -5.288  1.00  0.00    -0.067 N
ENDROOT
BRANCH   6   8
HETATM    8  S1  UNL     1      10.750  -4.989  -3.555  1.00  0.00    -0.044 SA
BRANCH   8   9
HETATM    9  C6  UNL     1      12.151  -4.993  -2.464  1.00  0.00     0.077 A
HETATM   10  C7  UNL     1      12.677  -5.966  -1.651  1.00  0.00     0.043 A
HETATM   11  C8  UNL     1      12.160  -7.347  -1.482  1.00  0.00     0.071 C
HETATM   12  N4  UNL     1      13.753  -5.449  -1.029  1.00  0.00    -0.302 N
HETATM   13  N5  UNL     1      13.944  -4.198  -1.396  1.00  0.00    -0.285 N
ATOM     14  H4  UNL     1      14.339  -5.954  -0.365  1.00  0.00     0.186 HD
HETATM   15  C9  UNL     1      12.989  -3.888  -2.267  1.00  0.00     0.133 A
ATOM     16  H5  UNL     1      14.688  -3.580  -1.071  1.00  0.00     0.188 HD
BRANCH  15  17
HETATM   17  N6  UNL     1      12.832  -2.754  -2.859  1.00  0.00    -0.383 N
ATOM     18  H62 UNL     1      11.944  -2.324  -3.117  1.00  0.00     0.157 HD
ATOM     19  H61 UNL     1      13.604  -2.148  -3.138  1.00  0.00     0.157 HD
ENDBRANCH  15  17
ENDBRANCH   8   9
ENDBRANCH   6   8
BRANCH   7  20
HETATM   20  N8  UNL     1      12.937  -6.648  -5.232  1.00  0.00    -0.322 N
ATOM     21  H82 UNL     1      13.411  -6.226  -6.031  1.00  0.00     0.178 HD
ATOM     22  H81 UNL     1      13.570  -6.719  -4.436  1.00  0.00     0.178 HD
ENDBRANCH   7  20
BRANCH   1  23
HETATM   23  N1  UNL     1      11.740  -8.882  -6.734  1.00  0.00    -0.148 N
HETATM   24  C3  UNL     1      11.496  -9.034  -8.118  1.00  0.00     0.335 C
HETATM   25  O3  UNL     1      10.390  -9.505  -8.479  1.00  0.00    -0.261 OA
ATOM     26  H1  UNL     1      12.464  -9.462  -6.310  1.00  0.00     0.188 HD
BRANCH  24  27
HETATM   27  C2  UNL     1      12.460  -8.671  -9.139  1.00  0.00     0.351 C
HETATM   28  O2  UNL     1      13.067  -7.567  -9.098  1.00  0.00    -0.254 OA
BRANCH  27  29
HETATM   29  O1  UNL     1      12.728  -9.540 -10.180  1.00  0.00    -0.319 OA
HETATM   30  C1  UNL     1      13.980  -9.501 -10.816  1.00  0.00     0.213 C
ENDBRANCH  27  29
ENDBRANCH  24  27
ENDBRANCH   1  23
TORSDOF 7
ENDMDL