MODEL 1
REMARK VINA RESULT: -7.695480170      0.000      0.000
REMARK  5 active torsions:
REMARK  status: ('A' for Active; 'I' for Inactive)
REMARK    1  A    between atoms: O1_2  and  C2_3
REMARK    2  A    between atoms: C2_3  and  N1_4
REMARK    3  A    between atoms: C2_3  and  C3_8
REMARK    4  A    between atoms: C3_8  and  O2_9
REMARK    5  A    between atoms: C9_20  and  N3_21
ROOT
HETATM    1  C3  UNL     1      12.826  -6.227  -2.513  1.00  0.00     0.147 C
HETATM    2  C5  UNL     1      11.850  -6.124  -1.307  1.00  0.00     0.129 C
HETATM    3  C6  UNL     1      10.801  -5.112  -1.584  1.00  0.00     0.115 C
HETATM    4  N2  UNL     1      10.453  -4.314  -0.639  1.00  0.00    -0.383 N
ATOM      5  H21 UNL     1       9.732  -3.618  -0.830  1.00  0.00     0.157 HD
ATOM      6  H22 UNL     1      10.889  -4.376   0.281  1.00  0.00     0.157 HD
HETATM    7  O3  UNL     1      10.203  -5.026  -2.847  1.00  0.00    -0.329 OA
HETATM    8  C7  UNL     1      10.930  -5.369  -3.977  1.00  0.00     0.186 C
HETATM    9  C8  UNL     1       9.927  -6.066  -4.921  1.00  0.00     0.208 C
HETATM   10  O4  UNL     1      10.577  -7.162  -5.437  1.00  0.00    -0.341 OA
HETATM   11  C9  UNL     1      11.846  -6.909  -5.895  1.00  0.00     0.372 C
HETATM   12  O5  UNL     1      12.729  -6.468  -4.912  1.00  0.00    -0.333 OA
HETATM   13  C11 UNL     1      12.005  -6.365  -3.718  1.00  0.00     0.197 C
ENDROOT
BRANCH   1  14
HETATM   14  C2  UNL     1      13.717  -5.030  -2.394  1.00  0.00     0.356 C
BRANCH  14  15
HETATM   15  O1  UNL     1      13.059  -3.810  -2.514  1.00  0.00    -0.362 OA
HETATM   16  C1  UNL     1      13.507  -2.880  -1.578  1.00  0.00     0.204 C
ENDBRANCH  14  15
BRANCH  14  17
HETATM   17  N1  UNL     1      14.208  -5.032  -1.008  1.00  0.00    -0.050 N
ATOM     18  H13 UNL     1      13.473  -4.988  -0.302  1.00  0.00     0.277 HD
ATOM     19  H12 UNL     1      14.599  -5.923  -0.703  1.00  0.00     0.277 HD
ATOM     20  H11 UNL     1      14.865  -4.253  -0.980  1.00  0.00     0.277 HD
ENDBRANCH  14  17
ENDBRANCH   1  14
BRANCH   1  21
HETATM   21  O2  UNL     1      13.539  -7.374  -2.257  1.00  0.00    -0.377 OA
HETATM   22  C4  UNL     1      12.891  -8.561  -2.238  1.00  0.00     0.202 C
ENDBRANCH   1  21
BRANCH  11  23
HETATM   23  N3  UNL     1      12.372  -8.160  -6.435  1.00  0.00    -0.319 N
HETATM   24  C10 UNL     1      12.856  -8.254  -7.616  1.00  0.00     0.200 C
HETATM   25  N4  UNL     1      13.338  -9.520  -8.034  1.00  0.00    -0.067 NA
HETATM   26  N5  UNL     1      12.941  -7.174  -8.537  1.00  0.00    -0.067 NA
ATOM     27  H3  UNL     1      12.354  -8.993  -5.846  1.00  0.00     0.166 HD
ENDBRANCH  11  23
TORSDOF 5
ENDMDL