MODEL 2
REMARK VINA RESULT: -7.552717812      1.372      1.873
REMARK  6 active torsions:
REMARK  status: ('A' for Active; 'I' for Inactive)
REMARK    1  A    between atoms: N1_1  and  C1_4
REMARK    2  A    between atoms: C2_7  and  N3_8
REMARK    3  A    between atoms: N3_8  and  O1_10
REMARK    4  A    between atoms: C3_12  and  O2_13
REMARK    5  A    between atoms: O2_13  and  N4_14
REMARK    6  A    between atoms: N4_14  and  C4_16
ROOT
HETATM    1  C1  UNL     1      10.995  -3.867  -1.208  1.00  0.00     0.680 A
HETATM    2  N2  UNL     1      12.100  -4.559  -1.505  1.00  0.00    -0.172 N
ATOM      3  H2  UNL     1      13.004  -4.210  -1.185  1.00  0.00     0.186 HD
HETATM    4  C2  UNL     1      12.053  -5.701  -2.213  1.00  0.00     0.182 A
HETATM    5  C3  UNL     1      10.844  -6.210  -2.669  1.00  0.00     0.213 A
HETATM    6  C6  UNL     1       9.710  -5.488  -2.357  1.00  0.00     0.299 A
HETATM    7  O6  UNL     1       8.603  -5.924  -2.757  1.00  0.00    -0.264 OA
HETATM    8  N7  UNL     1       9.821  -4.351  -1.645  1.00  0.00    -0.154 N
ATOM      9  H7  UNL     1       8.970  -3.832  -1.425  1.00  0.00     0.187 HD
ENDROOT
BRANCH   5  10
HETATM   10  O2  UNL     1      10.793  -7.392  -3.403  1.00  0.00    -0.226 OA
BRANCH  10  11
HETATM   11  N4  UNL     1      10.192  -7.509  -4.609  1.00  0.00    -0.239 N
ATOM     12  H4  UNL     1       9.208  -7.252  -4.689  1.00  0.00     0.196 HD
BRANCH  11  13
HETATM   13  C4  UNL     1      10.884  -7.985  -5.799  1.00  0.00     0.206 A
HETATM   14  N5  UNL     1      12.117  -7.694  -5.951  1.00  0.00    -0.246 N
HETATM   15  S1  UNL     1      12.646  -8.388  -7.430  1.00  0.00     0.327 S
ATOM     16  H5  UNL     1      12.688  -7.145  -5.307  1.00  0.00     0.182 HD
HETATM   17  O3  UNL     1      13.071  -7.329  -8.403  1.00  0.00    -0.182 OA
HETATM   18  O4  UNL     1      13.715  -9.424  -7.223  1.00  0.00    -0.182 OA
HETATM   19  N6  UNL     1      11.152  -9.119  -7.898  1.00  0.00    -0.230 N
HETATM   20  C5  UNL     1      10.281  -8.773  -6.839  1.00  0.00     0.302 A
ATOM     21  H6  UNL     1      10.948  -9.666  -8.733  1.00  0.00     0.183 HD
HETATM   22  O5  UNL     1       9.052  -9.132  -6.807  1.00  0.00    -0.263 OA
ENDBRANCH  11  13
ENDBRANCH  10  11
ENDBRANCH   5  10
BRANCH   4  23
HETATM   23  N3  UNL     1      13.227  -6.450  -2.536  1.00  0.00    -0.250 N
ATOM     24  H3  UNL     1      13.743  -6.899  -1.779  1.00  0.00     0.196 HD
BRANCH  23  25
HETATM   25  O1  UNL     1      13.646  -6.580  -3.696  1.00  0.00    -0.288 OA
ATOM     26  H1  UNL     1      13.159  -7.035  -4.373  1.00  0.00     0.244 HD
ENDBRANCH  23  25
ENDBRANCH   4  23
BRANCH   1  27
HETATM   27  N1  UNL     1      11.061  -2.759  -0.519  1.00  0.00    -0.234 N
ATOM     28  H12 UNL     1      11.549  -2.718   0.375  1.00  0.00     0.174 HD
ATOM     29  H11 UNL     1      10.622  -1.903  -0.858  1.00  0.00     0.174 HD
ENDBRANCH   1  27
TORSDOF 6
ENDMDL