MODEL 2
REMARK VINA RESULT: -8.279706402      1.787      1.917
REMARK  5 active torsions:
REMARK  status: ('A' for Active; 'I' for Inactive)
REMARK    1  A    between atoms: S1_2  and  N1_5
REMARK    2  A    between atoms: C3_10  and  N3_11
REMARK    3  A    between atoms: N4_13  and  C4_15
REMARK    4  A    between atoms: C6_21  and  O3_22
REMARK    5  A    between atoms: C7_24  and  O4_25
ROOT
HETATM    1  N1  UNL     1      13.131  -8.531  -9.251  1.00  0.00    -0.266 N
ATOM      2  H1  UNL     1      13.070  -7.562  -9.563  1.00  0.00     0.180 HD
HETATM    3  C2  UNL     1      12.842  -8.671  -8.037  1.00  0.00     0.186 A
HETATM    4  N2  UNL     1      12.497  -7.542  -7.324  1.00  0.00    -0.319 N
ATOM      5  H2  UNL     1      12.487  -6.636  -7.793  1.00  0.00     0.169 HD
HETATM    6  C3  UNL     1      12.178  -7.612  -6.033  1.00  0.00     0.173 A
HETATM    7  C7  UNL     1      12.203  -8.853  -5.430  1.00  0.00     0.189 A
HETATM    8  N7  UNL     1      12.532  -9.963  -6.095  1.00  0.00    -0.298 N
ATOM      9  H7  UNL     1      12.538 -10.864  -5.615  1.00  0.00     0.171 HD
HETATM   10  C8  UNL     1      12.857  -9.893  -7.409  1.00  0.00     0.292 A
HETATM   11  O5  UNL     1      13.168 -10.977  -8.018  1.00  0.00    -0.264 OA
ENDROOT
BRANCH   6  12
HETATM   12  N3  UNL     1      11.815  -6.465  -5.259  1.00  0.00    -0.280 N
HETATM   13  N4  UNL     1      10.658  -6.348  -4.747  1.00  0.00    -0.280 N
ATOM     14  H4  UNL     1       9.968  -7.085  -4.888  1.00  0.00     0.188 HD
ATOM     15  H3  UNL     1      12.501  -5.724  -5.115  1.00  0.00     0.188 HD
BRANCH  13  16
HETATM   16  C4  UNL     1      10.309  -5.187  -3.969  1.00  0.00     0.173 A
HETATM   17  N5  UNL     1      10.812  -3.953  -4.095  1.00  0.00    -0.334 N
HETATM   18  C5  UNL     1      10.233  -3.152  -3.191  1.00  0.00     0.184 A
ATOM     19  H5  UNL     1      11.522  -3.669  -4.770  1.00  0.00     0.168 HD
HETATM   20  N6  UNL     1       9.350  -3.868  -2.476  1.00  0.00    -0.330 N
HETATM   21  C6  UNL     1       9.389  -5.123  -2.948  1.00  0.00     0.187 A
ATOM     22  H6  UNL     1       8.760  -3.522  -1.717  1.00  0.00     0.168 HD
BRANCH  21  23
HETATM   23  O3  UNL     1       8.617  -6.172  -2.467  1.00  0.00    -0.343 OA
ATOM     24  H3  UNL     1       7.999  -6.692  -2.965  1.00  0.00     0.219 HD
ENDBRANCH  21  23
ENDBRANCH  13  16
ENDBRANCH   6  12
BRANCH   7  25
HETATM   25  O4  UNL     1      11.867  -8.920  -4.079  1.00  0.00    -0.343 OA
ATOM     26  H4  UNL     1      11.090  -9.412  -3.843  1.00  0.00     0.219 HD
ENDBRANCH   7  25
BRANCH   1  27
HETATM   27  S1  UNL     1      13.594  -9.578 -10.474  1.00  0.00     0.228 S
HETATM   28  C1  UNL     1      15.121 -10.421 -10.201  1.00  0.00     0.186 C
HETATM   29  O1  UNL     1      13.772  -8.782 -11.782  1.00  0.00    -0.206 OA
HETATM   30  O2  UNL     1      12.514 -10.604 -10.810  1.00  0.00    -0.206 OA
ENDBRANCH   1  27
TORSDOF 5
ENDMDL