MODEL 2
REMARK VINA RESULT: -7.165095568      2.389      5.482
REMARK  7 active torsions:
REMARK  status: ('A' for Active; 'I' for Inactive)
REMARK    1  A    between atoms: N1_2  and  C2_4
REMARK    2  A    between atoms: C4_10  and  N4_11
REMARK    3  A    between atoms: N4_11  and  C5_13
REMARK    4  A    between atoms: C5_13  and  C6_14
REMARK    5  A    between atoms: C6_14  and  O1_15
REMARK    6  A    between atoms: C7_19  and  N6_20
REMARK    7  A    between atoms: C9_26  and  N8_27
ROOT
HETATM    1  C2  UNL     1      10.024  -7.701  -5.018  1.00  0.00     0.147 A
HETATM    2  N2  UNL     1       9.231  -8.182  -5.996  1.00  0.00    -0.283 N
ATOM      3  H2  UNL     1       8.253  -7.895  -6.032  1.00  0.00     0.188 HD
HETATM    4  N3  UNL     1       9.696  -9.022  -6.911  1.00  0.00    -0.293 N
ATOM      5  H3  UNL     1       9.050  -9.351  -7.628  1.00  0.00     0.187 HD
HETATM    6  C3  UNL     1      10.936  -9.458  -6.957  1.00  0.00     0.122 A
HETATM    7  C4  UNL     1      11.391 -10.337  -7.936  1.00  0.00     0.147 A
HETATM    8  N5  UNL     1      12.724 -10.678  -7.824  1.00  0.00    -0.175 N
ATOM      9  H5  UNL     1      13.105 -11.321  -8.519  1.00  0.00     0.186 HD
HETATM   10  C7  UNL     1      13.534 -10.241  -6.898  1.00  0.00     0.678 A
HETATM   11  N7  UNL     1      13.117  -9.404  -5.956  1.00  0.00    -0.187 N
ATOM     12  H7  UNL     1      13.755  -9.068  -5.233  1.00  0.00     0.184 HD
HETATM   13  C8  UNL     1      11.832  -9.011  -5.979  1.00  0.00     0.113 A
HETATM   14  C9  UNL     1      11.331  -8.129  -5.023  1.00  0.00     0.133 A
ENDROOT
BRANCH  14  15
HETATM   15  N8  UNL     1      12.283  -7.689  -4.034  1.00  0.00    -0.229 N
HETATM   16  C10 UNL     1      12.573  -8.246  -2.869  1.00  0.00     0.226 A
HETATM   17  N9  UNL     1      13.510  -7.480  -2.294  1.00  0.00    -0.279 N
HETATM   18  N10 UNL     1      13.761  -6.461  -3.154  1.00  0.00    -0.227 N
ATOM     19  H9  UNL     1      13.949  -7.632  -1.385  1.00  0.00     0.189 HD
HETATM   20  N11 UNL     1      13.003  -6.594  -4.221  1.00  0.00    -0.220 N
ATOM     21  H10 UNL     1      14.433  -5.709  -2.998  1.00  0.00     0.210 HD
ATOM     22  H11 UNL     1      12.976  -5.977  -5.031  1.00  0.00     0.210 HD
ENDBRANCH  14  15
BRANCH   1  23
HETATM   23  N1  UNL     1       9.667  -6.891  -4.116  1.00  0.00    -0.378 N
HETATM   24  C1  UNL     1       8.946  -5.667  -4.245  1.00  0.00     0.148 C
ATOM     25  H1  UNL     1       9.929  -7.149  -3.164  1.00  0.00     0.160 HD
ENDBRANCH   1  23
BRANCH   7  26
HETATM   26  N4  UNL     1      10.700 -10.770  -8.844  1.00  0.00    -0.372 N
ATOM     27  H4  UNL     1       9.865 -11.170  -8.415  1.00  0.00     0.161 HD
BRANCH  26  28
HETATM   28  C5  UNL     1      10.577 -10.943 -10.177  1.00  0.00     0.147 C
BRANCH  28  29
HETATM   29  C6  UNL     1       9.809  -9.735 -10.758  1.00  0.00     0.183 C
BRANCH  29  30
HETATM   30  O1  UNL     1       9.400 -10.136 -12.043  1.00  0.00    -0.399 OA
ATOM     31  H1  UNL     1       9.107  -9.342 -12.474  1.00  0.00     0.209 HD
ENDBRANCH  29  30
ENDBRANCH  28  29
ENDBRANCH  26  28
ENDBRANCH   7  26
BRANCH  10  32
HETATM   32  N6  UNL     1      14.806 -10.583  -6.842  1.00  0.00    -0.234 N
ATOM     33  H62 UNL     1      15.128 -11.219  -7.570  1.00  0.00     0.174 HD
ATOM     34  H61 UNL     1      15.437 -10.247  -6.115  1.00  0.00     0.174 HD
ENDBRANCH  10  32
TORSDOF 7
ENDMDL