MODEL 1
REMARK VINA RESULT: -7.168074651      0.000      0.000
REMARK  7 active torsions:
REMARK  status: ('A' for Active; 'I' for Inactive)
REMARK    1  A    between atoms: O1_2  and  C2_3
REMARK    2  A    between atoms: C6_8  and  O3_9
REMARK    3  A    between atoms: C6_8  and  C7_11
REMARK    4  A    between atoms: C7_11  and  C8_12
REMARK    5  A    between atoms: C9_15  and  O5_17
REMARK    6  A    between atoms: C11_19  and  O6_20
REMARK    7  A    between atoms: C12_22  and  O7_23
ROOT
HETATM    1  C2  UNL     1       9.343  -5.094  -2.637  1.00  0.00     0.294 C
HETATM    2  O2  UNL     1       9.918  -6.325  -2.827  1.00  0.00    -0.319 OA
HETATM    3  C3  UNL     1      11.264  -6.362  -2.968  1.00  0.00     0.203 C
HETATM    4  C4  UNL     1      11.703  -7.828  -2.828  1.00  0.00     0.077 C
HETATM    5  C5  UNL     1      11.685  -8.368  -4.249  1.00  0.00     0.074 C
HETATM    6  C6  UNL     1      11.503  -7.134  -5.058  1.00  0.00     0.166 C
HETATM    7  O4  UNL     1      11.727  -6.045  -4.221  1.00  0.00    -0.316 OA
HETATM    8  C9  UNL     1      11.993  -5.609  -1.882  1.00  0.00     0.139 C
HETATM    9  C10 UNL     1      13.469  -5.633  -2.053  1.00  0.00     0.054 C
HETATM   10  C11 UNL     1      11.513  -4.175  -1.915  1.00  0.00     0.191 C
HETATM   11  C12 UNL     1      10.022  -4.249  -1.593  1.00  0.00     0.205 C
ENDROOT
BRANCH   8  12
HETATM   12  O5  UNL     1      11.624  -6.148  -0.661  1.00  0.00    -0.382 OA
ATOM     13  H5  UNL     1      12.415  -6.383  -0.190  1.00  0.00     0.210 HD
ENDBRANCH   8  12
BRANCH   1  14
HETATM   14  O1  UNL     1       9.251  -4.331  -3.792  1.00  0.00    -0.363 OA
HETATM   15  C1  UNL     1       8.028  -4.538  -4.446  1.00  0.00     0.204 C
ENDBRANCH   1  14
BRANCH   6  16
HETATM   16  O3  UNL     1      10.217  -7.044  -5.598  1.00  0.00    -0.365 OA
ATOM     17  H3  UNL     1      10.205  -7.237  -6.528  1.00  0.00     0.213 HD
ENDBRANCH   6  16
BRANCH   6  18
HETATM   18  C7  UNL     1      12.471  -7.019  -6.208  1.00  0.00     0.079 C
BRANCH  18  19
HETATM   19  C8  UNL     1      12.726  -8.323  -6.895  1.00  0.00     0.091 C
HETATM   20  S1  UNL     1      12.523  -8.278  -8.666  1.00  0.00    -0.097 SA
ENDBRANCH  18  19
ENDBRANCH   6  18
BRANCH  10  21
HETATM   21  O6  UNL     1      12.205  -3.399  -1.023  1.00  0.00    -0.390 OA
ATOM     22  H6  UNL     1      11.665  -2.694  -0.688  1.00  0.00     0.210 HD
ENDBRANCH  10  21
BRANCH  11  23
HETATM   23  O7  UNL     1       9.522  -2.965  -1.678  1.00  0.00    -0.388 OA
ATOM     24  H7  UNL     1      10.063  -2.396  -1.143  1.00  0.00     0.210 HD
ENDBRANCH  11  23
TORSDOF 7
ENDMDL