MODEL 4
REMARK VINA RESULT: -8.399213433      1.100      1.227
REMARK  9 active torsions:
REMARK  status: ('A' for Active; 'I' for Inactive)
REMARK    1  A    between atoms: O1_2  and  C2_3
REMARK    2  A    between atoms: C2_3  and  C3_5
REMARK    3  A    between atoms: C3_5  and  O3_7
REMARK    4  A    between atoms: C3_5  and  C14_30
REMARK    5  A    between atoms: O3_7  and  C5_8
REMARK    6  A    between atoms: C5_8  and  C6_12
REMARK    7  A    between atoms: C6_12  and  N2_13
REMARK    8  A    between atoms: N2_13  and  C7_15
REMARK    9  A    between atoms: C10_19  and  O4_20
ROOT
HETATM    1  N2  UNL     1       7.432   7.090  -4.372  1.00  0.00    -0.354 N
ATOM      2  H2  UNL     1       8.183   7.683  -4.021  1.00  0.00     0.166 HD
ENDROOT
BRANCH   1   3
HETATM    3  C6  UNL     1       7.171   5.978  -3.792  1.00  0.00     0.144 C
BRANCH   3   4
HETATM    4  C5  UNL     1       7.922   4.795  -4.195  1.00  0.00     0.153 C
HETATM    5  N1  UNL     1       9.106   4.881  -4.688  1.00  0.00    -0.379 N
ATOM      6  H12 UNL     1       9.632   4.053  -4.970  1.00  0.00     0.158 HD
ATOM      7  H11 UNL     1       9.485   5.822  -4.781  1.00  0.00     0.158 HD
BRANCH   4   8
HETATM    8  O3  UNL     1       7.403   3.508  -4.068  1.00  0.00    -0.302 OA
BRANCH   8   9
HETATM    9  C3  UNL     1       8.106   2.476  -3.435  1.00  0.00     0.239 C
HETATM   10  C4  UNL     1       7.671   1.102  -3.822  1.00  0.00     0.070 C
BRANCH   9  11
HETATM   11  C2  UNL     1       7.885   2.635  -1.956  1.00  0.00     0.304 C
HETATM   12  O2  UNL     1       8.568   1.994  -1.112  1.00  0.00    -0.261 OA
BRANCH  11  13
HETATM   13  O1  UNL     1       6.921   3.494  -1.444  1.00  0.00    -0.324 OA
HETATM   14  C1  UNL     1       7.175   4.323  -0.320  1.00  0.00     0.213 C
ENDBRANCH  11  13
ENDBRANCH   9  11
BRANCH   9  15
HETATM   15  C14 UNL     1       9.581   2.568  -3.696  1.00  0.00     0.220 C
HETATM   16  O6  UNL     1      10.008   2.008  -4.737  1.00  0.00    -0.645 OA
HETATM   17  O7  UNL     1      10.459   3.216  -2.875  1.00  0.00    -0.645 OA
ENDBRANCH   9  15
ENDBRANCH   8   9
ENDBRANCH   4   8
ENDBRANCH   3   4
ENDBRANCH   1   3
BRANCH   1  18
HETATM   18  C7  UNL     1       6.661   7.508  -5.525  1.00  0.00     0.110 A
HETATM   19  S1  UNL     1       5.265   8.474  -5.609  1.00  0.00    -0.050 SA
HETATM   20  C8  UNL     1       5.021   8.468  -7.297  1.00  0.00     0.099 A
HETATM   21  C9  UNL     1       6.047   7.703  -7.758  1.00  0.00     0.102 A
HETATM   22  N4  UNL     1       4.097   9.025  -8.146  1.00  0.00    -0.321 N
HETATM   23  C10 UNL     1       6.908   7.197  -6.838  1.00  0.00     0.118 A
HETATM   24  C11 UNL     1       6.086   7.530  -9.151  1.00  0.00     0.263 A
HETATM   25  O5  UNL     1       6.990   6.840  -9.713  1.00  0.00    -0.267 OA
HETATM   26  N3  UNL     1       5.171   8.086  -9.950  1.00  0.00    -0.299 N
HETATM   27  C12 UNL     1       4.170   8.835  -9.468  1.00  0.00     0.181 A
ATOM     28  H3  UNL     1       5.237   7.935 -10.957  1.00  0.00     0.171 HD
HETATM   29  S2  UNL     1       3.090   9.482 -10.490  1.00  0.00    -0.040 SA
HETATM   30  C13 UNL     1       3.058   9.814  -7.535  1.00  0.00     0.159 C
BRANCH  23  31
HETATM   31  O4  UNL     1       8.034   6.377  -7.167  1.00  0.00    -0.357 OA
ATOM     32  H4  UNL     1       7.895   5.554  -7.621  1.00  0.00     0.218 HD
ENDBRANCH  23  31
ENDBRANCH   1  18
TORSDOF 9
ENDMDL