MODEL 1
REMARK VINA RESULT: -9.732924845      0.000      0.000
REMARK  7 active torsions:
REMARK  status: ('A' for Active; 'I' for Inactive)
REMARK    1  A    between atoms: O1_2  and  C2_3
REMARK    2  A    between atoms: C2_3  and  C3_5
REMARK    3  A    between atoms: C4_6  and  N1_7
REMARK    4  A    between atoms: N2_9  and  C5_11
REMARK    5  A    between atoms: C7_16  and  C8_17
REMARK    6  A    between atoms: C11_22  and  N4_23
REMARK    7  A    between atoms: C14_32  and  N7_33
ROOT
HETATM    1  N1  UNL     1       5.454  10.456  -2.880  1.00  0.00    -0.283 N
ATOM      2  H1  UNL     1       5.541  10.844  -1.941  1.00  0.00     0.188 HD
HETATM    3  N2  UNL     1       6.496   9.978  -3.254  1.00  0.00    -0.293 N
ATOM      4  H2  UNL     1       7.235  10.062  -2.557  1.00  0.00     0.187 HD
ENDROOT
BRANCH   3   5
HETATM    5  C5  UNL     1       6.928   9.335  -4.419  1.00  0.00     0.129 A
HETATM    6  C6  UNL     1       7.207   9.982  -5.601  1.00  0.00     0.275 A
HETATM    7  O3  UNL     1       7.078  11.254  -5.683  1.00  0.00    -0.266 OA
HETATM    8  N3  UNL     1       7.611   9.347  -6.692  1.00  0.00    -0.315 N
HETATM    9  C7  UNL     1       7.782   7.994  -6.732  1.00  0.00     0.124 A
ATOM     10  H3  UNL     1       7.801   9.891  -7.534  1.00  0.00     0.169 HD
HETATM   11  C9  UNL     1       7.523   7.275  -5.585  1.00  0.00     0.015 A
HETATM   12  C10 UNL     1       7.652   5.908  -5.498  1.00  0.00     0.070 A
HETATM   13  C13 UNL     1       7.097   7.961  -4.443  1.00  0.00     0.026 A
HETATM   14  C11 UNL     1       7.381   5.198  -4.343  1.00  0.00     0.174 A
HETATM   15  N5  UNL     1       6.976   5.879  -3.265  1.00  0.00    -0.346 N
HETATM   16  C12 UNL     1       6.840   7.204  -3.313  1.00  0.00     0.104 A
ATOM     17  H5  UNL     1       6.771   5.380  -2.399  1.00  0.00     0.167 HD
BRANCH   9  18
HETATM   18  C8  UNL     1       8.223   7.369  -7.950  1.00  0.00     0.227 C
HETATM   19  O4  UNL     1       9.434   7.576  -8.293  1.00  0.00    -0.643 OA
HETATM   20  O5  UNL     1       7.502   6.584  -8.775  1.00  0.00    -0.643 OA
ENDBRANCH   9  18
BRANCH  14  21
HETATM   21  N4  UNL     1       7.533   3.766  -4.301  1.00  0.00    -0.098 N
HETATM   22  O6  UNL     1       6.521   3.074  -4.089  1.00  0.00    -0.531 OA
HETATM   23  O7  UNL     1       8.733   3.162  -4.483  1.00  0.00    -0.531 OA
ENDBRANCH  14  21
ENDBRANCH   3   5
BRANCH   1  24
HETATM   24  C4  UNL     1       4.178  10.623  -3.373  1.00  0.00     0.157 A
HETATM   25  C3  UNL     1       3.090  10.679  -2.510  1.00  0.00     0.153 A
HETATM   26  C15 UNL     1       1.779  10.836  -2.992  1.00  0.00     0.279 A
HETATM   27  N8  UNL     1       1.628  10.929  -4.322  1.00  0.00    -0.155 N
HETATM   28  O8  UNL     1       0.784  10.890  -2.238  1.00  0.00    -0.266 OA
HETATM   29  C14 UNL     1       2.645  10.879  -5.177  1.00  0.00     0.680 A
ATOM     30  H8  UNL     1       0.687  11.045  -4.696  1.00  0.00     0.187 HD
HETATM   31  N6  UNL     1       3.886  10.730  -4.699  1.00  0.00    -0.174 N
ATOM     32  H6  UNL     1       4.657  10.694  -5.366  1.00  0.00     0.186 HD
BRANCH  25  33
HETATM   33  C2  UNL     1       3.217  10.579  -1.065  1.00  0.00     0.302 C
HETATM   34  O2  UNL     1       2.735   9.630  -0.399  1.00  0.00    -0.259 OA
BRANCH  33  35
HETATM   35  O1  UNL     1       3.893  11.545  -0.296  1.00  0.00    -0.322 OA
HETATM   36  C1  UNL     1       3.856  12.919  -0.618  1.00  0.00     0.213 C
ENDBRANCH  33  35
ENDBRANCH  25  33
BRANCH  29  37
HETATM   37  N7  UNL     1       2.421  10.978  -6.467  1.00  0.00    -0.234 N
ATOM     38  H72 UNL     1       3.012  11.580  -7.041  1.00  0.00     0.174 HD
ATOM     39  H71 UNL     1       1.663  10.461  -6.913  1.00  0.00     0.174 HD
ENDBRANCH  29  37
ENDBRANCH   1  24
TORSDOF 7
ENDMDL