MODEL 4
REMARK VINA RESULT: -7.846179733      4.052      6.954
REMARK  9 active torsions:
REMARK  status: ('A' for Active; 'I' for Inactive)
REMARK    1  A    between atoms: S1_2  and  C2_3
REMARK    2  A    between atoms: N3_9  and  C4_11
REMARK    3  A    between atoms: C4_11  and  C6_17
REMARK    4  A    between atoms: N4_12  and  O1_14
REMARK    5  A    between atoms: C6_17  and  O2_18
REMARK    6  A    between atoms: C6_17  and  C9_22
REMARK    7  A    between atoms: O2_18  and  C7_19
REMARK    8  A    between atoms: C9_22  and  C10_24
REMARK    9  A    between atoms: C12_31  and  O5_32
ROOT
HETATM    1  O1  UNL     1       7.760   5.002  -6.132  1.00  0.00    -0.158 OA
HETATM    2  C5  UNL     1       7.226   4.600  -4.940  1.00  0.00     0.253 C
HETATM    3  N5  UNL     1       6.781   4.261  -3.920  1.00  0.00    -0.162 NA
ENDROOT
BRANCH   1   4
HETATM    4  N4  UNL     1       7.187   6.073  -6.768  1.00  0.00    -0.234 N
HETATM    5  C4  UNL     1       7.832   7.148  -6.975  1.00  0.00     0.142 C
ATOM      6  H4  UNL     1       6.219   6.004  -7.084  1.00  0.00     0.197 HD
BRANCH   5   7
HETATM    7  N3  UNL     1       9.174   7.249  -6.541  1.00  0.00    -0.321 N
HETATM    8  C3  UNL     1      10.046   7.703  -7.414  1.00  0.00     0.167 A
HETATM    9  N2  UNL     1       9.837   8.087  -8.678  1.00  0.00    -0.278 N
HETATM   10  S3  UNL     1      11.728   7.956  -7.247  1.00  0.00    -0.026 SA
HETATM   11  N1  UNL     1      10.826   8.497  -9.359  1.00  0.00    -0.286 N
ATOM     12  H2  UNL     1       8.902   8.051  -9.085  1.00  0.00     0.189 HD
HETATM   13  C2  UNL     1      12.035   8.539  -8.823  1.00  0.00     0.129 A
ATOM     14  H1  UNL     1      10.689   8.795 -10.325  1.00  0.00     0.188 HD
ATOM     15  H3  UNL     1       9.452   6.984  -5.596  1.00  0.00     0.169 HD
BRANCH  13  16
HETATM   16  S1  UNL     1      13.572   9.084  -9.606  1.00  0.00    -0.108 SA
HETATM   17  C1  UNL     1      14.925   8.280  -8.706  1.00  0.00     0.097 C
ENDBRANCH  13  16
ENDBRANCH   5   7
BRANCH   5  18
HETATM   18  C6  UNL     1       7.232   8.347  -7.673  1.00  0.00     0.277 C
BRANCH  18  19
HETATM   19  O2  UNL     1       6.497   9.029  -6.719  1.00  0.00    -0.300 OA
BRANCH  19  20
HETATM   20  C7  UNL     1       7.038   9.572  -5.556  1.00  0.00     0.256 C
HETATM   21  C8  UNL     1       6.810   8.945  -4.229  1.00  0.00     0.126 C
HETATM   22  O3  UNL     1       7.729  10.614  -5.652  1.00  0.00    -0.266 OA
ENDBRANCH  19  20
ENDBRANCH  18  19
BRANCH  18  23
HETATM   23  C9  UNL     1       6.518   7.850  -8.853  1.00  0.00     0.217 C
HETATM   24  O4  UNL     1       7.150   6.929  -9.498  1.00  0.00    -0.287 OA
BRANCH  23  25
HETATM   25  C10 UNL     1       5.231   8.269  -9.348  1.00  0.00     0.135 A
HETATM   26  N6  UNL     1       4.347   9.054  -8.713  1.00  0.00    -0.326 N
HETATM   27  C11 UNL     1       3.281   9.173  -9.557  1.00  0.00     0.178 A
ATOM     28  H6  UNL     1       4.451   9.475  -7.790  1.00  0.00     0.168 HD
HETATM   29  S2  UNL     1       1.926  10.049  -9.220  1.00  0.00    -0.040 SA
HETATM   30  N7  UNL     1       3.514   8.476 -10.674  1.00  0.00    -0.312 N
HETATM   31  C12 UNL     1       4.707   7.894 -10.602  1.00  0.00     0.173 A
ATOM     32  H7  UNL     1       2.872   8.402 -11.463  1.00  0.00     0.170 HD
BRANCH  31  33
HETATM   33  O5  UNL     1       5.358   7.081 -11.525  1.00  0.00    -0.344 OA
ATOM     34  H5  UNL     1       5.511   7.307 -12.434  1.00  0.00     0.219 HD
ENDBRANCH  31  33
ENDBRANCH  23  25
ENDBRANCH  18  23
ENDBRANCH   5  18
ENDBRANCH   1   4
TORSDOF 9
ENDMDL