MODEL 1
REMARK VINA RESULT: -8.105901308      0.000      0.000
REMARK  8 active torsions:
REMARK  status: ('A' for Active; 'I' for Inactive)
REMARK    1  A    between atoms: O1_2  and  C2_3
REMARK    2  A    between atoms: C4_5  and  O2_6
REMARK    3  A    between atoms: C7_11  and  C8_12
REMARK    4  A    between atoms: C9_15  and  C10_16
REMARK    5  A    between atoms: C12_21  and  O7_22
REMARK    6  A    between atoms: C14_24  and  O8_25
REMARK    7  A    between atoms: C16_27  and  O9_28
REMARK    8  A    between atoms: C18_32  and  O11_33
ROOT
HETATM    1  C2  UNL     1       9.368  15.969  -4.161  1.00  0.00     0.106 A
HETATM    2  C3  UNL     1       8.408  16.604  -3.400  1.00  0.00     0.077 A
HETATM    3  C4  UNL     1       7.304  15.935  -2.944  1.00  0.00     0.085 A
HETATM    4  C5  UNL     1       7.164  14.589  -3.265  1.00  0.00     0.085 A
HETATM    5  C6  UNL     1       6.059  13.922  -2.802  1.00  0.00     0.207 A
HETATM    6  O3  UNL     1       5.187  14.500  -2.110  1.00  0.00    -0.286 OA
HETATM    7  C7  UNL     1       5.922  12.559  -3.126  1.00  0.00     0.128 A
HETATM    8  C9  UNL     1       6.916  12.016  -3.888  1.00  0.00     0.127 A
HETATM    9  O10 UNL     1       7.978  12.726  -4.307  1.00  0.00    -0.303 OA
HETATM   10  C17 UNL     1       8.132  13.968  -4.026  1.00  0.00     0.129 A
HETATM   11  C18 UNL     1       9.265  14.641  -4.498  1.00  0.00     0.134 A
ENDROOT
BRANCH   8  12
HETATM   12  C10 UNL     1       6.862  10.631  -4.304  1.00  0.00     0.107 A
HETATM   13  N1  UNL     1       6.646   9.651  -3.416  1.00  0.00    -0.316 N
HETATM   14  C11 UNL     1       6.678   8.340  -3.719  1.00  0.00     0.282 A
ATOM     15  H1  UNL     1       6.443   9.914  -2.452  1.00  0.00     0.169 HD
HETATM   16  O6  UNL     1       6.468   7.452  -2.846  1.00  0.00    -0.265 OA
HETATM   17  C12 UNL     1       6.952   7.965  -5.029  1.00  0.00     0.173 A
HETATM   18  C14 UNL     1       7.185   8.915  -5.997  1.00  0.00     0.143 A
HETATM   19  C16 UNL     1       7.137  10.249  -5.614  1.00  0.00     0.132 A
BRANCH  17  20
HETATM   20  O7  UNL     1       6.998   6.626  -5.403  1.00  0.00    -0.349 OA
HETATM   21  C13 UNL     1       8.204   5.910  -5.371  1.00  0.00     0.210 C
ENDBRANCH  17  20
BRANCH  18  22
HETATM   22  O8  UNL     1       7.461   8.579  -7.321  1.00  0.00    -0.350 OA
HETATM   23  C15 UNL     1       6.495   8.399  -8.309  1.00  0.00     0.210 C
ENDBRANCH  18  22
BRANCH  19  24
HETATM   24  O9  UNL     1       7.390  11.190  -6.628  1.00  0.00    -0.356 OA
ATOM     25  H9  UNL     1       7.136  11.038  -7.531  1.00  0.00     0.218 HD
ENDBRANCH  19  24
ENDBRANCH   8  12
BRANCH   7  26
HETATM   26  C8  UNL     1       4.798  11.837  -2.564  1.00  0.00     0.216 C
HETATM   27  O4  UNL     1       4.989  11.288  -1.408  1.00  0.00    -0.644 OA
HETATM   28  O5  UNL     1       3.560  11.654  -3.102  1.00  0.00    -0.644 OA
ENDBRANCH   7  26
BRANCH  11  29
HETATM   29  O11 UNL     1      10.209  13.962  -5.262  1.00  0.00    -0.356 OA
ATOM     30  H11 UNL     1      10.094  13.072  -5.575  1.00  0.00     0.218 HD
ENDBRANCH  11  29
BRANCH   3  31
HETATM   31  O2  UNL     1       6.313  16.515  -2.181  1.00  0.00    -0.360 OA
ATOM     32  H2  UNL     1       6.391  16.683  -1.249  1.00  0.00     0.217 HD
ENDBRANCH   3  31
BRANCH   1  33
HETATM   33  O1  UNL     1      10.489  16.650  -4.622  1.00  0.00    -0.353 OA
HETATM   34  C1  UNL     1      10.872  17.899  -4.073  1.00  0.00     0.210 C
ENDBRANCH   1  33
TORSDOF 8
ENDMDL