MODEL 3
REMARK VINA RESULT: -7.771379040      3.202      8.237
REMARK  10 active torsions:
REMARK  status: ('A' for Active; 'I' for Inactive)
REMARK    1  A    between atoms: N2_7  and  C6_8
REMARK    2  A    between atoms: C6_8  and  O1_9
REMARK    3  A    between atoms: C6_8  and  C7_11
REMARK    4  A    between atoms: C7_11  and  N3_12
REMARK    5  A    between atoms: C7_11  and  C16_30
REMARK       I    between atoms: N3_12  and  C8_14
REMARK    6  A    between atoms: C8_14  and  C9_16
REMARK    7  A    between atoms: C10_18  and  N4_19
REMARK    8  A    between atoms: C15_27  and  O4_28
REMARK    9  A    between atoms: C16_30  and  O5_31
REMARK   10  A    between atoms: N6_33  and  O6_35
ROOT
HETATM    1  N1  UNL     1       7.170   5.779  -7.632  1.00  0.00    -0.195 NA
HETATM    2  C1  UNL     1       7.243   6.534  -6.760  1.00  0.00     0.084 C
HETATM    3  C2  UNL     1       7.320   7.498  -5.617  1.00  0.00     0.189 C
HETATM    4  C3  UNL     1       7.902   8.791  -6.247  1.00  0.00     0.041 C
HETATM    5  C4  UNL     1       6.733   9.275  -7.074  1.00  0.00     0.022 C
HETATM    6  C5  UNL     1       5.538   8.613  -6.455  1.00  0.00     0.121 C
HETATM    7  N2  UNL     1       6.027   7.907  -5.293  1.00  0.00    -0.369 N
ENDROOT
BRANCH   7   8
HETATM    8  C6  UNL     1       5.636   8.428  -4.075  1.00  0.00     0.247 C
BRANCH   8   9
HETATM    9  O1  UNL     1       6.810   8.452  -3.218  1.00  0.00    -0.374 OA
ATOM     10  H1  UNL     1       6.691   7.781  -2.557  1.00  0.00     0.212 HD
ENDBRANCH   8   9
BRANCH   8  11
HETATM   11  C7  UNL     1       5.133   9.835  -4.010  1.00  0.00     0.209 C
BRANCH  11  12
HETATM   12  N3  UNL     1       6.187  10.703  -3.418  1.00  0.00    -0.340 N
HETATM   13  C8  UNL     1       6.262  12.056  -3.702  1.00  0.00     0.263 C
HETATM   14  O2  UNL     1       5.416  12.594  -4.485  1.00  0.00    -0.267 OA
ATOM     15  H3  UNL     1       6.874  10.289  -2.786  1.00  0.00     0.163 HD
BRANCH  13  16
HETATM   16  C9  UNL     1       7.284  12.928  -3.142  1.00  0.00     0.126 A
HETATM   17  S1  UNL     1       8.216  14.128  -3.998  1.00  0.00    -0.044 SA
HETATM   18  C10 UNL     1       9.166  14.696  -2.698  1.00  0.00     0.149 A
HETATM   19  N5  UNL     1       8.729  13.951  -1.694  1.00  0.00    -0.316 N
HETATM   20  C15 UNL     1       7.800  13.071  -1.886  1.00  0.00     0.165 A
ATOM     21  H5  UNL     1       9.127  14.072  -0.763  1.00  0.00     0.170 HD
BRANCH  18  22
HETATM   22  N4  UNL     1      10.176  15.708  -2.683  1.00  0.00    -0.357 N
HETATM   23  C11 UNL     1       9.839  17.061  -2.307  1.00  0.00     0.151 C
HETATM   24  C12 UNL     1      10.842  17.976  -3.024  1.00  0.00     0.187 C
HETATM   25  O3  UNL     1      11.231  17.428  -4.218  1.00  0.00    -0.388 OA
HETATM   26  C13 UNL     1      11.947  16.274  -4.184  1.00  0.00     0.187 C
HETATM   27  C14 UNL     1      11.518  15.400  -3.036  1.00  0.00     0.151 C
ENDBRANCH  18  22
BRANCH  20  28
HETATM   28  O4  UNL     1       7.329  12.267  -0.801  1.00  0.00    -0.345 OA
ATOM     29  H4  UNL     1       7.889  11.614  -0.397  1.00  0.00     0.219 HD
ENDBRANCH  20  28
ENDBRANCH  13  16
ENDBRANCH  11  12
BRANCH  11  30
HETATM   30  C16 UNL     1       3.958  10.032  -3.154  1.00  0.00     0.163 C
HETATM   31  N6  UNL     1       2.763  10.059  -3.683  1.00  0.00    -0.249 N
ATOM     32  H6  UNL     1       1.953  10.197  -3.079  1.00  0.00     0.196 HD
BRANCH  30  33
HETATM   33  O5  UNL     1       4.047  10.199  -1.784  1.00  0.00    -0.346 OA
ATOM     34  H5  UNL     1       3.386  10.653  -1.276  1.00  0.00     0.219 HD
ENDBRANCH  30  33
BRANCH  31  35
HETATM   35  O6  UNL     1       2.572   9.904  -5.045  1.00  0.00    -0.288 OA
ATOM     36  H6  UNL     1       1.712   9.989  -5.437  1.00  0.00     0.244 HD
ENDBRANCH  31  35
ENDBRANCH  11  30
ENDBRANCH   8  11
ENDBRANCH   7   8
TORSDOF 10
ENDMDL