MODEL 2
REMARK VINA RESULT: -8.322062715      1.542      1.847
REMARK  9 active torsions:
REMARK  status: ('A' for Active; 'I' for Inactive)
REMARK    1  A    between atoms: O1_2  and  C2_3
REMARK    2  A    between atoms: N1_7  and  N2_8
REMARK    3  A    between atoms: C7_13  and  O2_14
REMARK    4  A    between atoms: C8_16  and  C9_17
REMARK    5  A    between atoms: N4_19  and  C11_21
REMARK    6  A    between atoms: C11_21  and  C13_23
REMARK    7  A    between atoms: C14_29  and  N7_30
REMARK    8  A    between atoms: C15_33  and  N8_34
REMARK    9  A    between atoms: N8_34  and  O4_35
ROOT
HETATM    1  N2  UNL     1       5.336  12.485  -2.989  1.00  0.00    -0.200 N
HETATM    2  C6  UNL     1       6.441  13.156  -3.323  1.00  0.00     0.202 A
HETATM    3  S1  UNL     1       6.899  14.469  -2.460  1.00  0.00    -0.038 SA
HETATM    4  N3  UNL     1       7.353  12.704  -4.248  1.00  0.00    -0.311 N
ATOM      5  H3  UNL     1       8.185  13.246  -4.483  1.00  0.00     0.170 HD
HETATM    6  C7  UNL     1       7.107  11.537  -4.823  1.00  0.00     0.159 A
HETATM    7  C8  UNL     1       6.014  10.733  -4.563  1.00  0.00     0.100 A
HETATM    8  C15 UNL     1       5.102  11.264  -3.589  1.00  0.00     0.251 A
ENDROOT
BRANCH   7   9
HETATM    9  C9  UNL     1       5.975   9.377  -5.025  1.00  0.00     0.025 C
HETATM   10  C10 UNL     1       4.932   8.869  -5.918  1.00  0.00     0.069 C
HETATM   11  N4  UNL     1       7.037   8.609  -4.856  1.00  0.00    -0.361 N
ATOM     12  H4  UNL     1       7.835   9.067  -4.417  1.00  0.00     0.165 HD
BRANCH  11  13
HETATM   13  C11 UNL     1       7.233   7.289  -5.182  1.00  0.00     0.038 C
HETATM   14  C12 UNL     1       6.982   6.067  -4.440  1.00  0.00     0.070 C
BRANCH  13  15
HETATM   15  C13 UNL     1       7.512   7.042  -6.603  1.00  0.00     0.124 A
HETATM   16  N5  UNL     1       6.936   6.024  -7.352  1.00  0.00    -0.236 N
HETATM   17  O3  UNL     1       7.555   5.929  -8.510  1.00  0.00    -0.155 OA
ATOM     18  H5  UNL     1       6.156   5.439  -7.052  1.00  0.00     0.197 HD
HETATM   19  N6  UNL     1       8.491   6.809  -8.591  1.00  0.00    -0.224 N
HETATM   20  C14 UNL     1       8.495   7.498  -7.457  1.00  0.00     0.152 A
ATOM     21  H6  UNL     1       9.117   6.950  -9.383  1.00  0.00     0.198 HD
BRANCH  20  22
HETATM   22  N7  UNL     1       9.203   8.533  -7.215  1.00  0.00    -0.382 N
ATOM     23  H72 UNL     1       8.891   9.502  -7.295  1.00  0.00     0.157 HD
ATOM     24  H71 UNL     1      10.135   8.486  -6.804  1.00  0.00     0.157 HD
ENDBRANCH  20  22
ENDBRANCH  13  15
ENDBRANCH  11  13
ENDBRANCH   7   9
BRANCH   6  25
HETATM   25  O2  UNL     1       8.020  11.071  -5.765  1.00  0.00    -0.345 OA
ATOM     26  H2  UNL     1       8.017  10.142  -5.964  1.00  0.00     0.219 HD
ENDBRANCH   6  25
BRANCH   8  27
HETATM   27  N8  UNL     1       4.271  10.538  -3.076  1.00  0.00    -0.262 NA
BRANCH  27  28
HETATM   28  O4  UNL     1       3.178   9.945  -2.787  1.00  0.00    -0.217 OA
ATOM     29  H4  UNL     1       2.511   9.282  -2.654  1.00  0.00     0.261 HD
ENDBRANCH  27  28
ENDBRANCH   8  27
BRANCH   1  30
HETATM   30  N1  UNL     1       4.369  13.079  -2.180  1.00  0.00    -0.314 N
HETATM   31  C5  UNL     1       4.276  12.601  -0.775  1.00  0.00     0.143 C
HETATM   32  C4  UNL     1       2.890  12.908  -0.176  1.00  0.00     0.024 C
HETATM   33  C3  UNL     1       1.779  12.713  -1.105  1.00  0.00     0.035 C
HETATM   34  C2  UNL     1       1.958  13.417  -2.437  1.00  0.00     0.140 C
HETATM   35  C16 UNL     1       3.380  14.041  -2.384  1.00  0.00     0.175 C
BRANCH  34  36
HETATM   36  O1  UNL     1       1.778  12.474  -3.383  1.00  0.00    -0.389 OA
HETATM   37  C1  UNL     1       1.783  12.840  -4.700  1.00  0.00     0.202 C
ENDBRANCH  34  36
ENDBRANCH   1  30
TORSDOF 9
ENDMDL