MODEL 5
REMARK VINA RESULT: -8.308659550      2.835      5.486
REMARK  7 active torsions:
REMARK  status: ('A' for Active; 'I' for Inactive)
REMARK    1  A    between atoms: O1_2  and  C2_3
REMARK    2  A    between atoms: C3_5  and  C4_6
REMARK    3  A    between atoms: C5_9  and  O3_10
REMARK    4  A    between atoms: N4_21  and  O4_22
REMARK    5  A    between atoms: O4_22  and  C12_23
REMARK    6  A    between atoms: C14_30  and  N7_31
REMARK    7  A    between atoms: C15_34  and  O8_35
ROOT
HETATM    1  C4  UNL     1       6.786   8.573  -4.261  1.00  0.00     0.098 A
HETATM    2  N1  UNL     1       7.484   9.295  -5.150  1.00  0.00    -0.332 N
ATOM      3  H1  UNL     1       8.229   8.930  -5.743  1.00  0.00     0.168 HD
HETATM    4  C5  UNL     1       7.052  10.592  -5.145  1.00  0.00     0.151 A
HETATM    5  C6  UNL     1       6.033  10.695  -4.212  1.00  0.00     0.047 A
HETATM    6  C7  UNL     1       5.876   9.443  -3.670  1.00  0.00     0.072 A
HETATM    7  N2  UNL     1       4.879   9.269  -2.669  1.00  0.00    -0.358 N
ATOM      8  H2  UNL     1       4.870   8.474  -2.030  1.00  0.00     0.162 HD
HETATM    9  C8  UNL     1       3.863  10.332  -2.632  1.00  0.00     0.206 C
HETATM   10  C9  UNL     1       2.881  10.150  -1.600  1.00  0.00     0.101 C
HETATM   11  N3  UNL     1       2.106   9.984  -0.770  1.00  0.00    -0.194 NA
HETATM   12  C10 UNL     1       4.690  11.606  -2.398  1.00  0.00     0.090 C
HETATM   13  C11 UNL     1       5.177  11.872  -3.801  1.00  0.00     0.162 C
HETATM   14  N4  UNL     1       3.935  11.751  -4.549  1.00  0.00    -0.205 N
HETATM   15  C13 UNL     1       3.292  10.598  -3.976  1.00  0.00     0.287 C
HETATM   16  O5  UNL     1       2.376   9.900  -4.520  1.00  0.00    -0.267 OA
ENDROOT
BRANCH  14  17
HETATM   17  O4  UNL     1       3.421  12.490  -5.563  1.00  0.00    -0.199 OA
BRANCH  17  18
HETATM   18  C12 UNL     1       2.643  13.627  -5.356  1.00  0.00     0.249 C
HETATM   19  N5  UNL     1       1.388  13.468  -5.271  1.00  0.00    -0.366 N
ATOM     20  H52 UNL     1       0.990  12.533  -5.354  1.00  0.00     0.159 HD
ATOM     21  H51 UNL     1       0.819  14.300  -5.119  1.00  0.00     0.159 HD
HETATM   22  N6  UNL     1       3.195  14.926  -5.240  1.00  0.00    -0.055 NA
ENDBRANCH  17  18
ENDBRANCH  14  17
BRANCH   1  23
HETATM   23  C3  UNL     1       6.855   7.158  -3.908  1.00  0.00     0.143 A
HETATM   24  O2  UNL     1       6.556   6.641  -2.717  1.00  0.00    -0.281 OA
HETATM   25  C2  UNL     1       6.714   5.352  -2.723  1.00  0.00     0.223 A
HETATM   26  C15 UNL     1       7.140   4.948  -3.964  1.00  0.00     0.163 A
HETATM   27  C14 UNL     1       7.227   6.137  -4.723  1.00  0.00     0.177 A
BRANCH  25  28
HETATM   28  O1  UNL     1       6.489   4.478  -1.642  1.00  0.00    -0.333 OA
HETATM   29  C1  UNL     1       7.165   4.621  -0.402  1.00  0.00     0.212 C
ENDBRANCH  25  28
BRANCH  26  30
HETATM   30  O8  UNL     1       7.435   3.691  -4.435  1.00  0.00    -0.349 OA
HETATM   31  C16 UNL     1       8.544   2.959  -3.980  1.00  0.00     0.210 C
ENDBRANCH  26  30
BRANCH  27  32
HETATM   32  N7  UNL     1       7.632   6.147  -6.084  1.00  0.00    -0.110 N
HETATM   33  O6  UNL     1       8.674   6.716  -6.408  1.00  0.00    -0.532 OA
HETATM   34  O7  UNL     1       6.873   5.497  -7.005  1.00  0.00    -0.532 OA
ENDBRANCH  27  32
ENDBRANCH   1  23
BRANCH   4  35
HETATM   35  O3  UNL     1       7.530  11.636  -5.924  1.00  0.00    -0.346 OA
ATOM     36  H3  UNL     1       7.196  11.923  -6.765  1.00  0.00     0.219 HD
ENDBRANCH   4  35
TORSDOF 7
ENDMDL