MODEL 4
REMARK VINA RESULT: -9.854981240      3.356      7.918
REMARK  8 active torsions:
REMARK  status: ('A' for Active; 'I' for Inactive)
REMARK    1  A    between atoms: O1_2  and  C2_3
REMARK    2  A    between atoms: C2_3  and  C3_5
REMARK    3  A    between atoms: C5_7  and  O3_8
REMARK    4  A    between atoms: O3_8  and  C6_9
REMARK    5  A    between atoms: C7_12  and  N2_13
REMARK    6  A    between atoms: N2_13  and  C8_15
REMARK    7  A    between atoms: C12_22  and  N4_23
REMARK    8  A    between atoms: C13_29  and  C14_30
ROOT
HETATM    1  O3  UNL     1       7.877   6.850  -5.000  1.00  0.00    -0.271 OA
ENDROOT
BRANCH   1   2
HETATM    2  C5  UNL     1       7.851   5.559  -4.424  1.00  0.00     0.122 A
HETATM    3  C4  UNL     1       8.887   4.687  -4.321  1.00  0.00     0.064 A
HETATM    4  C3  UNL     1       8.656   3.484  -3.729  1.00  0.00     0.064 A
HETATM    5  C13 UNL     1       7.403   3.241  -3.282  1.00  0.00     0.076 A
HETATM    6  S1  UNL     1       6.572   4.715  -3.706  1.00  0.00    -0.060 SA
BRANCH   4   7
HETATM    7  C2  UNL     1       9.768   2.513  -3.601  1.00  0.00     0.294 C
HETATM    8  O2  UNL     1      10.837   2.817  -2.959  1.00  0.00    -0.259 OA
BRANCH   7   9
HETATM    9  O1  UNL     1       9.773   1.258  -4.126  1.00  0.00    -0.322 OA
HETATM   10  C1  UNL     1      10.788   0.804  -5.034  1.00  0.00     0.213 C
ENDBRANCH   7   9
ENDBRANCH   4   7
BRANCH   5  11
HETATM   11  C14 UNL     1       6.736   2.136  -2.615  1.00  0.00     0.184 A
HETATM   12  N6  UNL     1       7.028   0.867  -2.470  1.00  0.00    -0.275 N
HETATM   13  N7  UNL     1       6.120   0.207  -1.773  1.00  0.00    -0.263 N
ATOM     14  H6  UNL     1       7.867   0.434  -2.854  1.00  0.00     0.189 HD
HETATM   15  C15 UNL     1       5.189   1.131  -1.457  1.00  0.00     0.238 A
ATOM     16  H7  UNL     1       6.122  -0.782  -1.528  1.00  0.00     0.190 HD
HETATM   17  N8  UNL     1       4.135   0.844  -0.767  1.00  0.00    -0.364 N
HETATM   18  O5  UNL     1       5.568   2.264  -1.962  1.00  0.00    -0.259 OA
ATOM     19  H82 UNL     1       3.837  -0.046  -0.370  1.00  0.00     0.159 HD
ATOM     20  H81 UNL     1       3.431   1.543  -0.528  1.00  0.00     0.159 HD
ENDBRANCH   5  11
ENDBRANCH   1   2
BRANCH   1  21
HETATM   21  C6  UNL     1       8.063   7.025  -6.363  1.00  0.00     0.258 A
HETATM   22  N1  UNL     1       9.322   7.305  -6.777  1.00  0.00    -0.154 N
HETATM   23  C7  UNL     1       9.558   7.484  -8.091  1.00  0.00     0.696 A
ATOM     24  H1  UNL     1      10.083   7.380  -6.102  1.00  0.00     0.188 HD
HETATM   25  N3  UNL     1       8.524   7.377  -8.957  1.00  0.00    -0.022 N
HETATM   26  C12 UNL     1       7.277   7.101  -8.557  1.00  0.00     0.693 A
ATOM     27  H3  UNL     1       8.702   7.513  -9.952  1.00  0.00     0.203 HD
HETATM   28  N5  UNL     1       7.053   6.924  -7.238  1.00  0.00    -0.154 N
ATOM     29  H5  UNL     1       6.112   6.713  -6.905  1.00  0.00     0.188 HD
BRANCH  23  30
HETATM   30  N2  UNL     1      10.744   7.745  -8.466  1.00  0.00    -0.219 N
ATOM     31  H2  UNL     1      10.859   8.009  -9.445  1.00  0.00     0.178 HD
BRANCH  30  32
HETATM   32  C8  UNL     1      11.931   7.713  -7.678  1.00  0.00     0.125 C
HETATM   33  C9  UNL     1      13.095   7.017  -8.370  1.00  0.00     0.054 C
HETATM   34  C10 UNL     1      14.261   7.796  -7.785  1.00  0.00     0.169 C
HETATM   35  O4  UNL     1      13.830   9.065  -7.524  1.00  0.00    -0.389 OA
HETATM   36  C11 UNL     1      12.466   9.115  -7.543  1.00  0.00     0.193 C
ENDBRANCH  30  32
ENDBRANCH  23  30
BRANCH  26  37
HETATM   37  N4  UNL     1       6.337   7.014  -9.425  1.00  0.00    -0.234 N
ATOM     38  H42 UNL     1       6.344   7.557 -10.288  1.00  0.00     0.174 HD
ATOM     39  H41 UNL     1       5.553   6.382  -9.258  1.00  0.00     0.174 HD
ENDBRANCH  26  37
ENDBRANCH   1  21
TORSDOF 8
ENDMDL