MODEL 1
REMARK VINA RESULT: -8.806319229      0.000      0.000
REMARK  7 active torsions:
REMARK  status: ('A' for Active; 'I' for Inactive)
REMARK       I    between atoms: N1_2  and  C2_4
REMARK    1  A    between atoms: C2_4  and  O2_6
REMARK    2  A    between atoms: O2_6  and  N2_7
REMARK    3  A    between atoms: C3_9  and  C4_10
REMARK    4  A    between atoms: C7_16  and  S1_17
REMARK    5  A    between atoms: S1_17  and  C8_18
REMARK    6  A    between atoms: C9_21  and  N6_22
REMARK    7  A    between atoms: C15_33  and  N9_34
ROOT
HETATM    1  C8  UNL     1       7.075   8.320  -5.656  1.00  0.00     0.117 A
HETATM    2  N5  UNL     1       7.218   7.443  -4.620  1.00  0.00    -0.184 N
ATOM      3  H5  UNL     1       7.219   7.790  -3.660  1.00  0.00     0.185 HD
HETATM    4  C9  UNL     1       7.357   6.122  -4.851  1.00  0.00     0.682 A
HETATM    5  N8  UNL     1       7.352   5.679  -6.125  1.00  0.00    -0.175 N
ATOM      6  H8  UNL     1       7.454   4.680  -6.299  1.00  0.00     0.186 HD
HETATM    7  C15 UNL     1       7.216   6.508  -7.169  1.00  0.00     0.138 A
HETATM    8  C16 UNL     1       7.071   7.887  -6.959  1.00  0.00     0.123 A
HETATM    9  C17 UNL     1       6.967   8.780  -8.075  1.00  0.00     0.106 C
HETATM   10  N10 UNL     1       6.889   9.498  -8.995  1.00  0.00    -0.191 NA
ENDROOT
BRANCH   1  11
HETATM   11  S1  UNL     1       6.923  10.096  -5.376  1.00  0.00    -0.050 SA
BRANCH  11  12
HETATM   12  C7  UNL     1       5.475  10.465  -4.414  1.00  0.00     0.107 A
HETATM   13  C4  UNL     1       4.192  10.092  -4.790  1.00  0.00     0.085 A
HETATM   14  N3  UNL     1       3.354  10.607  -3.833  1.00  0.00    -0.349 N
HETATM   15  C5  UNL     1       4.075  11.256  -2.921  1.00  0.00     0.183 A
ATOM     16  H3  UNL     1       2.338  10.509  -3.823  1.00  0.00     0.167 HD
HETATM   17  N4  UNL     1       5.394  11.165  -3.284  1.00  0.00    -0.340 N
HETATM   18  C6  UNL     1       6.487  11.741  -2.516  1.00  0.00     0.158 C
BRANCH  13  19
HETATM   19  C3  UNL     1       3.768   9.260  -5.895  1.00  0.00     0.147 C
HETATM   20  N2  UNL     1       3.488   9.673  -7.051  1.00  0.00    -0.265 N
ATOM     21  H2  UNL     1       3.564  10.676  -7.220  1.00  0.00     0.194 HD
BRANCH  20  22
HETATM   22  O2  UNL     1       3.091   8.894  -8.095  1.00  0.00    -0.181 OA
BRANCH  22  23
HETATM   23  C2  UNL     1       2.907   9.255  -9.404  1.00  0.00     0.382 C
HETATM   24  N1  UNL     1       3.811   8.955 -10.458  1.00  0.00    -0.340 N
HETATM   25  C1  UNL     1       3.572   9.361 -11.825  1.00  0.00     0.151 C
ATOM     26  H1  UNL     1       4.661   8.434 -10.243  1.00  0.00     0.164 HD
HETATM   27  O1  UNL     1       1.868   9.895  -9.692  1.00  0.00    -0.236 OA
ENDBRANCH  22  23
ENDBRANCH  20  22
ENDBRANCH  13  19
ENDBRANCH  11  12
ENDBRANCH   1  11
BRANCH   7  28
HETATM   28  N9  UNL     1       7.209   6.091  -8.386  1.00  0.00    -0.384 N
ATOM     29  H92 UNL     1       7.885   6.505  -9.028  1.00  0.00     0.157 HD
ATOM     30  H91 UNL     1       6.561   5.375  -8.716  1.00  0.00     0.157 HD
ENDBRANCH   7  28
BRANCH   4  31
HETATM   31  N6  UNL     1       7.515   5.236  -3.758  1.00  0.00    -0.216 N
HETATM   32  C10 UNL     1       6.725   5.502  -2.577  1.00  0.00     0.143 C
HETATM   33  C11 UNL     1       7.060   4.513  -1.480  1.00  0.00     0.048 C
HETATM   34  C12 UNL     1       6.572   3.135  -1.885  1.00  0.00     0.234 C
HETATM   35  N7  UNL     1       7.727   2.426  -2.455  1.00  0.00    -0.074 N
HETATM   36  C13 UNL     1       7.765   2.804  -3.870  1.00  0.00     0.252 C
ATOM     37  H72 UNL     1       8.602   2.604  -1.960  1.00  0.00     0.277 HD
ATOM     38  H71 UNL     1       7.703   1.418  -2.301  1.00  0.00     0.277 HD
HETATM   39  C14 UNL     1       8.446   4.157  -3.963  1.00  0.00     0.168 C
ENDBRANCH   4  31
TORSDOF 7
ENDMDL