MODEL 1
REMARK VINA RESULT: -10.242847838      0.000      0.000
REMARK  8 active torsions:
REMARK  status: ('A' for Active; 'I' for Inactive)
REMARK    1  A    between atoms: O1_2  and  C2_3
REMARK    2  A    between atoms: C7_9  and  O3_10
REMARK    3  A    between atoms: O3_10  and  C8_11
REMARK       I    between atoms: C8_11  and  N1_13
REMARK    4  A    between atoms: N1_13  and  C9_15
REMARK    5  A    between atoms: C9_15  and  C10_16
REMARK    6  A    between atoms: C9_15  and  C11_23
REMARK    7  A    between atoms: C10_16  and  O5_17
REMARK    8  A    between atoms: N2_19  and  O6_21
ROOT
HETATM    1  C8  UNL     1       8.521   4.409  -4.666  1.00  0.00     0.366 C
HETATM    2  O4  UNL     1       7.529   3.651  -4.935  1.00  0.00    -0.238 OA
HETATM    3  N1  UNL     1       9.572   3.978  -3.828  1.00  0.00    -0.317 N
ATOM      4  H1  UNL     1      10.339   4.628  -3.653  1.00  0.00     0.166 HD
ENDROOT
BRANCH   3   5
HETATM    5  C9  UNL     1       9.632   2.683  -3.206  1.00  0.00     0.232 C
BRANCH   5   6
HETATM    6  C10 UNL     1      10.600   1.784  -3.895  1.00  0.00     0.166 C
HETATM    7  N2  UNL     1      11.155   2.063  -5.025  1.00  0.00    -0.249 N
ATOM      8  H2  UNL     1      10.924   2.947  -5.478  1.00  0.00     0.196 HD
BRANCH   6   9
HETATM    9  O5  UNL     1      10.939   0.568  -3.310  1.00  0.00    -0.346 OA
ATOM     10  H5  UNL     1      11.836   0.418  -3.033  1.00  0.00     0.219 HD
ENDBRANCH   6   9
BRANCH   7  11
HETATM   11  O6  UNL     1      12.039   1.224  -5.639  1.00  0.00    -0.288 OA
ATOM     12  H6  UNL     1      12.868   1.523  -5.995  1.00  0.00     0.244 HD
ENDBRANCH   7  11
ENDBRANCH   5   6
BRANCH   5  13
HETATM   13  C11 UNL     1       8.357   1.978  -3.067  1.00  0.00     0.131 A
HETATM   14  N3  UNL     1       7.998   0.941  -3.845  1.00  0.00    -0.284 N
HETATM   15  N4  UNL     1       6.822   0.509  -3.497  1.00  0.00    -0.275 N
ATOM     16  H3  UNL     1       8.566   0.551  -4.598  1.00  0.00     0.188 HD
HETATM   17  C12 UNL     1       6.400   1.273  -2.476  1.00  0.00     0.194 A
ATOM     18  H4  UNL     1       6.314  -0.266  -3.921  1.00  0.00     0.189 HD
HETATM   19  S1  UNL     1       4.961   1.129  -1.678  1.00  0.00    -0.039 SA
HETATM   20  N5  UNL     1       7.343   2.174  -2.214  1.00  0.00    -0.314 N
HETATM   21  C13 UNL     1       7.316   3.197  -1.194  1.00  0.00     0.160 C
ENDBRANCH   5  13
ENDBRANCH   3   5
BRANCH   1  22
HETATM   22  O3  UNL     1       8.504   5.671  -5.235  1.00  0.00    -0.273 OA
BRANCH  22  23
HETATM   23  C7  UNL     1       7.451   6.557  -5.165  1.00  0.00     0.167 C
HETATM   24  C6  UNL     1       6.808   7.094  -6.169  1.00  0.00     0.091 A
HETATM   25  C5  UNL     1       5.694   8.031  -5.978  1.00  0.00     0.196 A
HETATM   26  C14 UNL     1       7.163   6.798  -7.548  1.00  0.00     0.240 A
HETATM   27  C3  UNL     1       4.984   8.631  -7.118  1.00  0.00     0.027 A
HETATM   28  O2  UNL     1       5.375   8.299  -4.795  1.00  0.00    -0.287 OA
HETATM   29  C2  UNL     1       5.313   8.356  -8.368  1.00  0.00     0.132 A
HETATM   30  C4  UNL     1       3.861   9.576  -6.874  1.00  0.00     0.056 C
HETATM   31  C15 UNL     1       6.408   7.433  -8.639  1.00  0.00     0.256 A
HETATM   32  O8  UNL     1       6.741   7.155  -9.823  1.00  0.00    -0.281 OA
HETATM   33  O7  UNL     1       8.097   6.011  -7.806  1.00  0.00    -0.283 OA
BRANCH  29  34
HETATM   34  O1  UNL     1       4.592   8.963  -9.382  1.00  0.00    -0.351 OA
HETATM   35  C1  UNL     1       3.852   8.243 -10.344  1.00  0.00     0.210 C
ENDBRANCH  29  34
ENDBRANCH  22  23
ENDBRANCH   1  22
TORSDOF 8
ENDMDL