MODEL 1
REMARK VINA RESULT: -4.223215428      0.000      0.000
REMARK  5 active torsions:
REMARK  status: ('A' for Active; 'I' for Inactive)
REMARK    1  A    between atoms: C2_2  and  N1_3
REMARK    2  A    between atoms: C2_2  and  C3_7
REMARK    3  A    between atoms: C4_8  and  C5_9
REMARK    4  A    between atoms: C5_9  and  N3_13
REMARK    5  A    between atoms: N3_13  and  N4_15
ROOT
HETATM    1  C5  UNL     1      27.980 137.319 147.148  1.00  0.00     0.112 C
HETATM    2  N2  UNL     1      26.713 137.468 146.931  1.00  0.00    -0.384 N
ATOM      3  H21 UNL     1      26.307 137.059 146.089  1.00  0.00     0.157 HD
ATOM      4  H22 UNL     1      26.163 137.990 147.613  1.00  0.00     0.157 HD
ENDROOT
BRANCH   1   5
HETATM    5  C4  UNL     1      28.558 137.900 148.346  1.00  0.00     0.047 C
HETATM    6  C3  UNL     1      28.086 137.620 149.542  1.00  0.00     0.009 C
BRANCH   6   7
HETATM    7  C2  UNL     1      28.682 138.219 150.756  1.00  0.00     0.202 C
HETATM    8  C1  UNL     1      30.200 138.224 150.649  1.00  0.00     0.044 C
BRANCH   7   9
HETATM    9  N1  UNL     1      28.349 137.475 151.954  1.00  0.00    -0.072 N
ATOM     10  H13 UNL     1      28.780 136.551 151.987  1.00  0.00     0.275 HD
ATOM     11  H12 UNL     1      28.788 137.850 152.795  1.00  0.00     0.275 HD
ATOM     12  H11 UNL     1      27.331 137.446 152.011  1.00  0.00     0.275 HD
ENDBRANCH   7   9
ENDBRANCH   6   7
ENDBRANCH   1   5
BRANCH   1  13
HETATM   13  N3  UNL     1      28.737 136.599 146.207  1.00  0.00    -0.292 N
ATOM     14  H3  UNL     1      29.755 136.601 146.279  1.00  0.00     0.188 HD
BRANCH  13  15
HETATM   15  N4  UNL     1      28.124 135.882 145.176  1.00  0.00    -0.344 N
ATOM     16  H42 UNL     1      27.123 135.697 145.243  1.00  0.00     0.176 HD
ATOM     17  H41 UNL     1      28.657 135.547 144.373  1.00  0.00     0.176 HD
ENDBRANCH  13  15
ENDBRANCH   1  13
TORSDOF 5
ENDMDL