MODEL 3
REMARK VINA RESULT: -4.158539352      2.964      4.104
REMARK  1 active torsions:
REMARK  status: ('A' for Active; 'I' for Inactive)
REMARK       I    between atoms: C1_4  and  N3_6
REMARK    1  A    between atoms: N3_6  and  C2_8
ROOT
HETATM    1  C2  UNL     1      27.502 137.137 149.130  1.00  0.00     0.123 A
HETATM    2  C3  UNL     1      28.442 138.084 148.766  1.00  0.00     0.068 A
HETATM    3  C4  UNL     1      28.024 138.746 147.631  1.00  0.00     0.111 A
HETATM    4  N4  UNL     1      26.843 138.200 147.319  1.00  0.00    -0.310 N
ATOM      5  H4  UNL     1      26.264 138.469 146.523  1.00  0.00     0.186 HD
HETATM    6  N5  UNL     1      26.532 137.246 148.205  1.00  0.00    -0.286 N
ATOM      7  H5  UNL     1      25.682 136.683 148.183  1.00  0.00     0.188 HD
ENDROOT
BRANCH   1   8
HETATM    8  N3  UNL     1      27.529 136.237 150.231  1.00  0.00    -0.316 N
HETATM    9  C1  UNL     1      28.597 136.249 151.152  1.00  0.00     0.187 C
HETATM   10  N1  UNL     1      28.481 136.941 152.217  1.00  0.00    -0.373 N
HETATM   11  N2  UNL     1      29.770 135.514 150.911  1.00  0.00    -0.064 NA
ATOM     12  H12 UNL     1      29.254 136.949 152.883  1.00  0.00     0.158 HD
ATOM     13  H11 UNL     1      27.630 137.475 152.392  1.00  0.00     0.158 HD
ATOM     14  H3  UNL     1      26.765 135.573 150.357  1.00  0.00     0.170 HD
ENDBRANCH   1   8
TORSDOF 1
ENDMDL