MODEL 4
REMARK VINA RESULT: -3.551973572      2.023      3.398
REMARK  3 active torsions:
REMARK  status: ('A' for Active; 'I' for Inactive)
REMARK    1  A    between atoms: C1_4  and  C2_6
REMARK    2  A    between atoms: C2_6  and  N3_7
REMARK    3  A    between atoms: C2_6  and  C3_11
ROOT
HETATM    1  C2  UNL     1      28.780 137.402 148.209  1.00  0.00     0.277 C
ENDROOT
BRANCH   1   2
HETATM    2  C1  UNL     1      27.664 137.271 147.226  1.00  0.00     0.119 C
HETATM    3  N1  UNL     1      26.693 138.110 147.269  1.00  0.00    -0.389 N
ATOM      4  H12 UNL     1      25.931 138.021 146.597  1.00  0.00     0.157 HD
ATOM      5  H11 UNL     1      26.700 138.848 147.972  1.00  0.00     0.157 HD
HETATM    6  N2  UNL     1      27.653 136.246 146.249  1.00  0.00    -0.086 NA
ENDBRANCH   1   2
BRANCH   1   7
HETATM    7  N3  UNL     1      28.220 137.876 149.442  1.00  0.00    -0.067 N
ATOM      8  H33 UNL     1      28.386 137.241 150.223  1.00  0.00     0.275 HD
ATOM      9  H32 UNL     1      28.717 138.684 149.818  1.00  0.00     0.275 HD
ATOM     10  H31 UNL     1      27.230 138.059 149.282  1.00  0.00     0.275 HD
ENDBRANCH   1   7
BRANCH   1  11
HETATM   11  C3  UNL     1      29.768 138.406 147.610  1.00  0.00     0.224 C
HETATM   12  C4  UNL     1      31.119 138.411 148.252  1.00  0.00     0.063 C
HETATM   13  C5  UNL     1      31.607 137.610 147.089  1.00  0.00     0.235 C
HETATM   14  N4  UNL     1      30.356 137.816 146.437  1.00  0.00    -0.068 N
ATOM     15  H42 UNL     1      29.891 137.021 145.998  1.00  0.00     0.277 HD
ATOM     16  H41 UNL     1      30.337 138.338 145.561  1.00  0.00     0.277 HD
ENDBRANCH   1  11
TORSDOF 3
ENDMDL