MODEL 5
REMARK VINA RESULT: -3.668593157      2.045      3.678
REMARK  2 active torsions:
REMARK  status: ('A' for Active; 'I' for Inactive)
REMARK    1  A    between atoms: N1_2  and  N2_4
REMARK    2  A    between atoms: N2_4  and  C2_6
ROOT
HETATM    1  C2  UNL     1      29.346 138.370 147.931  1.00  0.00     0.134 A
HETATM    2  C3  UNL     1      30.523 137.970 147.333  1.00  0.00     0.143 A
HETATM    3  N3  UNL     1      31.348 137.488 148.302  1.00  0.00    -0.307 N
ATOM      4  H3  UNL     1      32.286 137.125 148.136  1.00  0.00     0.186 HD
HETATM    5  N4  UNL     1      30.768 137.554 149.482  1.00  0.00    -0.265 N
ATOM      6  H4  UNL     1      31.165 137.259 150.374  1.00  0.00     0.190 HD
HETATM    7  C4  UNL     1      29.539 138.093 149.281  1.00  0.00     0.289 A
HETATM    8  O1  UNL     1      28.651 138.336 150.134  1.00  0.00    -0.264 OA
ENDROOT
BRANCH   1   9
HETATM    9  N2  UNL     1      28.175 138.929 147.334  1.00  0.00    -0.299 N
ATOM     10  H2  UNL     1      28.212 139.826 146.852  1.00  0.00     0.186 HD
BRANCH   9  11
HETATM   11  N1  UNL     1      27.018 138.240 147.424  1.00  0.00    -0.340 N
HETATM   12  C1  UNL     1      26.950 136.889 147.084  1.00  0.00     0.167 C
ATOM     13  H1  UNL     1      26.176 138.718 147.746  1.00  0.00     0.179 HD
ENDBRANCH   9  11
ENDBRANCH   1   9
TORSDOF 2
ENDMDL