MODEL 3
REMARK VINA RESULT: -4.052282566      6.885      8.189
REMARK  4 active torsions:
REMARK  status: ('A' for Active; 'I' for Inactive)
REMARK    1  A    between atoms: C1_4  and  N2_5
REMARK    2  A    between atoms: C1_4  and  C2_10
REMARK    3  A    between atoms: N2_5  and  N3_7
REMARK    4  A    between atoms: C5_13  and  N4_14
ROOT
HETATM    1  N1  UNL     1      28.258 136.337 145.858  1.00  0.00    -0.388 N
ATOM      2  H11 UNL     1      28.580 135.374 145.764  1.00  0.00     0.157 HD
ATOM      3  H12 UNL     1      28.463 137.030 145.137  1.00  0.00     0.157 HD
HETATM    4  C1  UNL     1      27.593 136.662 146.895  1.00  0.00     0.095 C
ENDROOT
BRANCH   4   5
HETATM    5  N2  UNL     1      27.148 137.995 147.024  1.00  0.00    -0.296 N
ATOM      6  H2  UNL     1      26.169 138.237 146.876  1.00  0.00     0.187 HD
BRANCH   5   7
HETATM    7  N3  UNL     1      28.086 138.972 147.361  1.00  0.00    -0.344 N
ATOM      8  H32 UNL     1      29.083 138.776 147.268  1.00  0.00     0.176 HD
ATOM      9  H31 UNL     1      27.744 139.872 147.697  1.00  0.00     0.176 HD
ENDBRANCH   5   7
ENDBRANCH   4   5
BRANCH   4  10
HETATM   10  C2  UNL     1      27.301 135.674 147.921  1.00  0.00     0.084 C
HETATM   11  C3  UNL     1      27.915 134.302 147.743  1.00  0.00     0.016 C
HETATM   12  C4  UNL     1      28.032 134.262 149.273  1.00  0.00     0.034 C
HETATM   13  C5  UNL     1      28.143 135.790 149.198  1.00  0.00     0.194 C
BRANCH  13  14
HETATM   14  N4  UNL     1      27.514 136.491 150.272  1.00  0.00    -0.074 N
ATOM     15  H43 UNL     1      26.796 137.120 149.910  1.00  0.00     0.274 HD
ATOM     16  H42 UNL     1      26.933 135.854 150.817  1.00  0.00     0.274 HD
ATOM     17  H41 UNL     1      28.151 136.999 150.885  1.00  0.00     0.274 HD
ENDBRANCH  13  14
ENDBRANCH   4  10
TORSDOF 4
ENDMDL