MODEL 3
REMARK VINA RESULT: -3.778818442      6.925      7.792
REMARK  2 active torsions:
REMARK  status: ('A' for Active; 'I' for Inactive)
REMARK    1  A    between atoms: N1_1  and  C1_4
REMARK    2  A    between atoms: C3_9  and  C4_10
ROOT
HETATM    1  C1  UNL     1      28.212 137.362 150.830  1.00  0.00     0.677 A
HETATM    2  N2  UNL     1      28.725 138.302 150.022  1.00  0.00    -0.177 N
ATOM      3  H2  UNL     1      29.370 139.035 150.317  1.00  0.00     0.185 HD
HETATM    4  C2  UNL     1      28.268 138.140 148.766  1.00  0.00     0.162 A
HETATM    5  N3  UNL     1      28.609 138.961 147.656  1.00  0.00    -0.080 NA
HETATM    6  C3  UNL     1      27.429 137.043 148.803  1.00  0.00     0.128 A
HETATM    7  N4  UNL     1      27.417 136.596 150.066  1.00  0.00    -0.186 N
ATOM      8  H4  UNL     1      26.883 135.792 150.398  1.00  0.00     0.184 HD
ENDROOT
BRANCH   1   9
HETATM    9  N1  UNL     1      28.432 137.207 152.114  1.00  0.00    -0.234 N
ATOM     10  H12 UNL     1      28.383 137.937 152.824  1.00  0.00     0.174 HD
ATOM     11  H11 UNL     1      28.683 136.347 152.601  1.00  0.00     0.174 HD
ENDBRANCH   1   9
BRANCH   6  12
HETATM   12  C4  UNL     1      26.698 136.493 147.650  1.00  0.00     0.292 C
HETATM   13  O1  UNL     1      27.271 135.913 146.719  1.00  0.00    -0.300 OA
ENDBRANCH   6  12
TORSDOF 2
ENDMDL