MODEL 1
REMARK VINA RESULT: -3.482558926      0.000      0.000
REMARK  2 active torsions:
REMARK  status: ('A' for Active; 'I' for Inactive)
REMARK       I    between atoms: N1_2  and  C2_4
REMARK       I    between atoms: C2_4  and  N3_8
REMARK    1  A    between atoms: N3_8  and  S1_10
REMARK    2  A    between atoms: S1_10  and  C3_11
ROOT
HETATM    1  C1  UNL     1      29.968 138.175 149.808  1.00  0.00     0.165 C
HETATM    2  N1  UNL     1      30.440 138.121 148.465  1.00  0.00    -0.230 N
ATOM      3  H1  UNL     1      31.445 138.144 148.286  1.00  0.00     0.177 HD
HETATM    4  C2  UNL     1      29.540 138.036 147.375  1.00  0.00     0.677 C
HETATM    5  N2  UNL     1      28.715 139.016 147.171  1.00  0.00    -0.234 N
ATOM      6  H21 UNL     1      28.067 138.956 146.386  1.00  0.00     0.174 HD
ATOM      7  H22 UNL     1      28.731 139.822 147.797  1.00  0.00     0.174 HD
HETATM    8  N3  UNL     1      29.518 136.918 146.506  1.00  0.00    -0.160 N
ATOM      9  H3  UNL     1      30.389 136.613 146.071  1.00  0.00     0.193 HD
ENDROOT
BRANCH   8  10
HETATM   10  S1  UNL     1      28.033 136.039 146.152  1.00  0.00     0.006 SA
BRANCH  10  11
HETATM   11  C3  UNL     1      27.083 135.994 147.652  1.00  0.00     0.150 C
HETATM   12  N4  UNL     1      26.108 136.778 147.838  1.00  0.00    -0.402 N
ATOM     13  H42 UNL     1      25.875 137.443 147.101  1.00  0.00     0.156 HD
ATOM     14  H41 UNL     1      25.562 136.752 148.700  1.00  0.00     0.156 HD
ENDBRANCH  10  11
ENDBRANCH   8  10
TORSDOF 2
ENDMDL