MODEL 1
REMARK VINA RESULT: -3.848037109      0.000      0.000
REMARK  2 active torsions:
REMARK  status: ('A' for Active; 'I' for Inactive)
REMARK    1  A    between atoms: C3_4  and  N1_5
REMARK    2  A    between atoms: N1_5  and  N2_7
REMARK       I    between atoms: N2_7  and  C4_9
ROOT
HETATM    1  N2  UNL     1      27.025 136.383 147.286  1.00  0.00    -0.276 N
ATOM      2  H2  UNL     1      26.638 135.967 148.134  1.00  0.00     0.189 HD
HETATM    3  C4  UNL     1      27.774 135.577 146.399  1.00  0.00     0.200 C
HETATM    4  N3  UNL     1      28.657 136.040 145.577  1.00  0.00    -0.372 N
ATOM      5  H31 UNL     1      29.198 135.459 144.937  1.00  0.00     0.158 HD
ATOM      6  H32 UNL     1      28.787 137.051 145.606  1.00  0.00     0.158 HD
HETATM    7  N4  UNL     1      27.590 134.146 146.358  1.00  0.00    -0.062 NA
ENDROOT
BRANCH   1   8
HETATM    8  N1  UNL     1      26.809 137.704 147.032  1.00  0.00    -0.299 N
ATOM      9  H1  UNL     1      26.169 138.025 146.305  1.00  0.00     0.183 HD
BRANCH   8  10
HETATM   10  C3  UNL     1      27.553 138.616 147.866  1.00  0.00     0.299 A
HETATM   11  C2  UNL     1      28.483 138.232 148.850  1.00  0.00     0.090 A
HETATM   12  C1  UNL     1      28.917 137.861 150.040  1.00  0.00     0.051 C
HETATM   13  O1  UNL     1      28.996 138.510 147.512  1.00  0.00    -0.319 OA
ENDBRANCH   8  10
ENDBRANCH   1   8
TORSDOF 2
ENDMDL