MODEL 2
REMARK VINA RESULT: -3.812027470     12.919     13.678
REMARK  1 active torsions:
REMARK  status: ('A' for Active; 'I' for Inactive)
REMARK    1  A    between atoms: C1_4  and  C2_6
ROOT
HETATM    1  C2  UNL     1      27.938 136.696 147.009  1.00  0.00     0.148 A
HETATM    2  N3  UNL     1      28.896 136.325 146.162  1.00  0.00    -0.327 N
ATOM      3  H3  UNL     1      29.653 136.931 145.847  1.00  0.00     0.168 HD
HETATM    4  C3  UNL     1      28.735 135.042 145.778  1.00  0.00     0.133 A
HETATM    5  N4  UNL     1      29.530 134.269 144.894  1.00  0.00    -0.081 NA
HETATM    6  C4  UNL     1      27.588 134.606 146.446  1.00  0.00     0.135 A
HETATM    7  N5  UNL     1      27.125 135.638 147.188  1.00  0.00    -0.346 N
ATOM      8  H5  UNL     1      26.298 135.618 147.786  1.00  0.00     0.167 HD
ENDROOT
BRANCH   1   9
HETATM    9  C1  UNL     1      27.779 138.008 147.640  1.00  0.00     0.154 C
HETATM   10  N1  UNL     1      26.767 138.731 147.331  1.00  0.00    -0.385 N
ATOM     11  H12 UNL     1      26.657 139.645 147.771  1.00  0.00     0.157 HD
ATOM     12  H11 UNL     1      26.092 138.380 146.651  1.00  0.00     0.157 HD
HETATM   13  N2  UNL     1      28.716 138.495 148.582  1.00  0.00    -0.079 NA
ENDBRANCH   1   9
TORSDOF 1
ENDMDL