MODEL 4
REMARK VINA RESULT: -6.416431435      2.461      5.077
REMARK  7 active torsions:
REMARK  status: ('A' for Active; 'I' for Inactive)
REMARK    1  A    between atoms: C2_2  and  C3_3
REMARK    2  A    between atoms: C3_3  and  C4_4
REMARK    3  A    between atoms: C4_4  and  C6_6
REMARK       I    between atoms: C6_6  and  N1_8
REMARK    4  A    between atoms: N1_8  and  C7_10
REMARK    5  A    between atoms: C8_11  and  N2_12
REMARK       I    between atoms: N2_12  and  C9_13
REMARK    6  A    between atoms: N2_12  and  C12_22
REMARK    7  A    between atoms: C9_13  and  C10_15
ROOT
HETATM    1  C7  UNL     1     -11.549 -56.548 -31.734  1.00  0.00     0.084 A
HETATM    2  C8  UNL     1     -11.278 -56.568 -33.080  1.00  0.00     0.068 A
HETATM    3  C17 UNL     1     -10.294 -55.719 -33.620  1.00  0.00     0.056 A
HETATM    4  C18 UNL     1      -9.589 -54.868 -32.804  1.00  0.00     0.007 A
HETATM    5  C19 UNL     1      -8.535 -53.954 -33.370  1.00  0.00     0.068 C
HETATM    6  N5  UNL     1      -9.855 -54.858 -31.524  1.00  0.00    -0.362 N
ATOM      7  H5  UNL     1      -9.329 -54.222 -30.924  1.00  0.00     0.165 HD
HETATM    8  C20 UNL     1     -10.781 -55.639 -30.967  1.00  0.00     0.035 A
HETATM    9  C21 UNL     1     -11.019 -55.572 -29.501  1.00  0.00     0.070 C
ENDROOT
BRANCH   2  10
HETATM   10  N2  UNL     1     -11.961 -57.429 -33.989  1.00  0.00    -0.305 N
HETATM   11  C9  UNL     1     -13.251 -56.980 -34.334  1.00  0.00     0.277 C
HETATM   12  O2  UNL     1     -13.522 -55.766 -34.039  1.00  0.00    -0.265 OA
BRANCH  11  13
HETATM   13  C10 UNL     1     -14.327 -57.746 -34.999  1.00  0.00     0.124 A
HETATM   14  C11 UNL     1     -14.675 -57.478 -36.312  1.00  0.00     0.106 A
HETATM   15  S1  UNL     1     -15.922 -58.635 -36.585  1.00  0.00    -0.008 SA
HETATM   16  N3  UNL     1     -15.913 -59.350 -35.073  1.00  0.00    -0.269 N
HETATM   17  N4  UNL     1     -15.002 -58.711 -34.441  1.00  0.00    -0.289 N
ATOM     18  H3  UNL     1     -16.497 -60.115 -34.734  1.00  0.00     0.195 HD
ATOM     19  H4  UNL     1     -14.798 -58.964 -33.474  1.00  0.00     0.188 HD
ENDBRANCH  11  13
BRANCH  10  20
HETATM   20  C12 UNL     1     -11.357 -58.547 -34.640  1.00  0.00     0.093 C
HETATM   21  C13 UNL     1     -10.768 -58.253 -36.015  1.00  0.00     0.026 C
HETATM   22  C14 UNL     1     -11.779 -58.875 -36.968  1.00  0.00     0.002 C
HETATM   23  C15 UNL     1     -11.945 -60.221 -36.303  1.00  0.00     0.002 C
HETATM   24  C16 UNL     1     -12.170 -59.765 -34.841  1.00  0.00     0.026 C
ENDBRANCH  10  20
ENDBRANCH   2  10
BRANCH   1  25
HETATM   25  N1  UNL     1     -12.549 -57.179 -31.029  1.00  0.00    -0.319 N
HETATM   26  C6  UNL     1     -13.836 -56.915 -30.583  1.00  0.00     0.259 C
HETATM   27  O1  UNL     1     -14.367 -55.799 -30.748  1.00  0.00    -0.267 OA
ATOM     28  H1  UNL     1     -12.258 -58.117 -30.754  1.00  0.00     0.169 HD
BRANCH  26  29
HETATM   29  C4  UNL     1     -14.678 -57.926 -29.870  1.00  0.00     0.047 C
HETATM   30  C5  UNL     1     -15.412 -58.864 -30.688  1.00  0.00     0.063 C
BRANCH  29  31
HETATM   31  C3  UNL     1     -14.796 -57.770 -28.531  1.00  0.00    -0.144 C
BRANCH  31  32
HETATM   32  C2  UNL     1     -14.813 -57.503 -27.235  1.00  0.00     0.081 C
HETATM   33  C1  UNL     1     -13.666 -56.530 -26.787  1.00  0.00     0.017 C
ENDBRANCH  31  32
ENDBRANCH  29  31
ENDBRANCH  26  29
ENDBRANCH   1  25
TORSDOF 7
ENDMDL