MODEL 2
REMARK VINA RESULT: -8.143129925      1.830      3.564
REMARK  7 active torsions:
REMARK  status: ('A' for Active; 'I' for Inactive)
REMARK    1  A    between atoms: C2_2  and  O1_3
REMARK    2  A    between atoms: O1_3  and  C3_4
REMARK    3  A    between atoms: C3_4  and  C4_6
REMARK    4  A    between atoms: C5_7  and  N1_8
REMARK       I    between atoms: N1_8  and  C6_10
REMARK    5  A    between atoms: C6_10  and  C7_12
REMARK    6  A    between atoms: C7_12  and  C8_13
REMARK    7  A    between atoms: C16_25  and  C17_26
ROOT
HETATM    1  N1  UNL     1     -10.371 -54.542 -31.327  1.00  0.00    -0.320 N
ATOM      2  H1  UNL     1     -10.968 -53.783 -31.656  1.00  0.00     0.169 HD
HETATM    3  C6  UNL     1     -10.801 -55.823 -31.591  1.00  0.00     0.228 C
HETATM    4  O3  UNL     1     -10.163 -56.862 -31.297  1.00  0.00    -0.273 OA
ENDROOT
BRANCH   1   5
HETATM    5  C5  UNL     1      -9.180 -54.166 -30.643  1.00  0.00     0.094 A
HETATM    6  C4  UNL     1      -8.751 -54.151 -29.361  1.00  0.00     0.080 A
HETATM    7  C19 UNL     1      -7.427 -53.987 -29.122  1.00  0.00    -0.022 A
HETATM    8  C16 UNL     1      -6.605 -53.832 -30.188  1.00  0.00     0.059 A
HETATM    9  C20 UNL     1      -6.867 -54.016 -27.705  1.00  0.00     0.051 C
HETATM   10  S2  UNL     1      -7.670 -53.920 -31.524  1.00  0.00    -0.067 SA
BRANCH   6  11
HETATM   11  C3  UNL     1      -9.750 -53.994 -28.250  1.00  0.00     0.296 C
HETATM   12  O2  UNL     1      -9.765 -52.975 -27.500  1.00  0.00    -0.259 OA
BRANCH  11  13
HETATM   13  O1  UNL     1     -10.730 -54.920 -27.963  1.00  0.00    -0.318 OA
BRANCH  13  14
HETATM   14  C2  UNL     1     -10.947 -55.499 -26.699  1.00  0.00     0.174 C
HETATM   15  C1  UNL     1     -11.955 -54.744 -25.853  1.00  0.00     0.034 C
ENDBRANCH  13  14
ENDBRANCH  11  13
ENDBRANCH   6  11
BRANCH   8  16
HETATM   16  C17 UNL     1      -5.134 -53.618 -30.281  1.00  0.00     0.163 C
HETATM   17  C18 UNL     1      -4.518 -52.591 -29.373  1.00  0.00     0.097 C
HETATM   18  O4  UNL     1      -4.387 -54.216 -31.040  1.00  0.00    -0.292 OA
ENDBRANCH   8  16
ENDBRANCH   1   5
BRANCH   3  19
HETATM   19  C7  UNL     1     -12.115 -56.096 -32.275  1.00  0.00     0.168 C
BRANCH  19  20
HETATM   20  C8  UNL     1     -13.051 -56.586 -31.221  1.00  0.00     0.060 A
HETATM   21  N2  UNL     1     -13.233 -56.211 -29.977  1.00  0.00    -0.356 N
HETATM   22  C9  UNL     1     -14.139 -56.775 -29.237  1.00  0.00     0.023 A
ATOM     23  H2  UNL     1     -12.657 -55.466 -29.586  1.00  0.00     0.166 HD
HETATM   24  C10 UNL     1     -14.892 -57.768 -29.796  1.00  0.00     0.007 A
HETATM   25  C15 UNL     1     -14.329 -56.309 -27.806  1.00  0.00     0.058 C
HETATM   26  S1  UNL     1     -14.235 -57.833 -31.392  1.00  0.00    -0.079 SA
HETATM   27  C11 UNL     1     -16.021 -58.626 -29.291  1.00  0.00     0.048 C
HETATM   28  C12 UNL     1     -15.597 -59.223 -27.988  1.00  0.00     0.005 C
HETATM   29  C13 UNL     1     -15.779 -58.130 -26.939  1.00  0.00     0.001 C
HETATM   30  C14 UNL     1     -14.432 -57.442 -26.838  1.00  0.00     0.006 C
ENDBRANCH  19  20
ENDBRANCH   3  19
TORSDOF 7
ENDMDL