MODEL 5
REMARK VINA RESULT: -7.064264001      1.342      3.555
REMARK  6 active torsions:
REMARK  status: ('A' for Active; 'I' for Inactive)
REMARK    1  A    between atoms: C2_2  and  C4_4
REMARK    2  A    between atoms: C4_4  and  S1_5
REMARK    3  A    between atoms: C4_4  and  C15_22
REMARK    4  A    between atoms: S1_5  and  C5_6
REMARK    5  A    between atoms: N4_16  and  C10_17
REMARK       I    between atoms: C15_22  and  N5_24
REMARK    6  A    between atoms: N5_24  and  C16_26
ROOT
HETATM    1  C5  UNL     1     -13.194 -56.247 -32.406  1.00  0.00     0.151 A
HETATM    2  N1  UNL     1     -13.341 -56.598 -33.720  1.00  0.00    -0.319 N
ATOM      3  H1  UNL     1     -13.086 -56.013 -34.515  1.00  0.00     0.169 HD
HETATM    4  C6  UNL     1     -13.869 -57.819 -33.805  1.00  0.00     0.155 A
HETATM    5  C7  UNL     1     -14.070 -58.277 -32.540  1.00  0.00     0.156 A
HETATM    6  N2  UNL     1     -14.609 -59.526 -32.618  1.00  0.00    -0.335 N
ATOM      7  H2  UNL     1     -14.872 -60.131 -31.841  1.00  0.00     0.168 HD
HETATM    8  C8  UNL     1     -14.724 -59.799 -33.938  1.00  0.00     0.185 A
HETATM    9  N3  UNL     1     -14.278 -58.771 -34.664  1.00  0.00    -0.331 N
HETATM   10  C9  UNL     1     -14.247 -58.698 -36.106  1.00  0.00     0.158 C
HETATM   11  N4  UNL     1     -13.654 -57.311 -31.700  1.00  0.00    -0.305 N
ENDROOT
BRANCH   1  12
HETATM   12  S1  UNL     1     -12.477 -54.767 -31.760  1.00  0.00    -0.079 SA
BRANCH  12  13
HETATM   13  C4  UNL     1     -10.734 -54.708 -31.606  1.00  0.00     0.150 C
BRANCH  13  14
HETATM   14  C2  UNL     1      -9.851 -55.187 -32.686  1.00  0.00     0.001 C
HETATM   15  C1  UNL     1     -10.401 -55.131 -34.065  1.00  0.00     0.011 C
HETATM   16  C3  UNL     1      -8.515 -54.449 -32.587  1.00  0.00     0.011 C
ENDBRANCH  13  14
BRANCH  13  17
HETATM   17  C15 UNL     1     -10.256 -55.250 -30.273  1.00  0.00     0.232 C
HETATM   18  O1  UNL     1     -10.040 -56.463 -30.172  1.00  0.00    -0.272 OA
HETATM   19  N5  UNL     1     -10.086 -54.342 -29.226  1.00  0.00    -0.355 N
ATOM     20  H5  UNL     1     -10.289 -53.360 -29.409  1.00  0.00     0.162 HD
BRANCH  19  21
HETATM   21  C16 UNL     1      -9.637 -54.707 -27.893  1.00  0.00     0.084 C
HETATM   22  C17 UNL     1     -10.754 -55.318 -27.091  1.00  0.00     0.025 C
HETATM   23  C18 UNL     1     -11.653 -54.307 -26.450  1.00  0.00     0.002 C
HETATM   24  C19 UNL     1     -10.914 -53.195 -25.765  1.00  0.00     0.000 C
HETATM   25  C20 UNL     1      -9.996 -52.511 -26.748  1.00  0.00     0.002 C
HETATM   26  C21 UNL     1      -8.998 -53.527 -27.229  1.00  0.00     0.025 C
ENDBRANCH  19  21
ENDBRANCH  13  17
ENDBRANCH  12  13
ENDBRANCH   1  12
BRANCH  11  27
HETATM   27  C10 UNL     1     -13.633 -57.384 -30.268  1.00  0.00     0.093 C
HETATM   28  C11 UNL     1     -14.799 -58.222 -29.743  1.00  0.00     0.026 C
HETATM   29  C12 UNL     1     -14.838 -57.849 -28.277  1.00  0.00     0.002 C
HETATM   30  C13 UNL     1     -14.054 -56.561 -28.132  1.00  0.00     0.002 C
HETATM   31  C14 UNL     1     -13.938 -56.075 -29.589  1.00  0.00     0.026 C
ENDBRANCH  11  27
TORSDOF 6
ENDMDL