MODEL 3
REMARK VINA RESULT: -8.403054748      3.414      7.075
REMARK  7 active torsions:
REMARK  status: ('A' for Active; 'I' for Inactive)
REMARK    1  A    between atoms: O1_1  and  C1_3
REMARK    2  A    between atoms: C1_3  and  C2_4
REMARK    3  A    between atoms: C2_4  and  S1_5
REMARK    4  A    between atoms: S1_5  and  C3_6
REMARK    5  A    between atoms: C8_17  and  C9_18
REMARK    6  A    between atoms: C9_18  and  C10_19
REMARK    7  A    between atoms: N4_27  and  C17_29
ROOT
HETATM    1  C3  UNL     1      -7.215 -54.279 -31.826  1.00  0.00     0.159 A
HETATM    2  N1  UNL     1      -7.236 -53.961 -33.098  1.00  0.00    -0.278 N
ATOM      3  H1  UNL     1      -6.411 -53.493 -33.474  1.00  0.00     0.189 HD
HETATM    4  N2  UNL     1      -8.246 -54.196 -33.950  1.00  0.00    -0.276 N
ATOM      5  H2  UNL     1      -8.186 -53.917 -34.929  1.00  0.00     0.189 HD
HETATM    6  C4  UNL     1      -9.334 -54.808 -33.471  1.00  0.00     0.180 A
HETATM    7  C5  UNL     1      -9.385 -55.181 -32.123  1.00  0.00     0.064 A
HETATM    8  N3  UNL     1      -8.361 -54.919 -31.350  1.00  0.00    -0.336 N
ATOM      9  H3  UNL     1      -8.402 -55.193 -30.368  1.00  0.00     0.168 HD
HETATM   10  C6  UNL     1     -10.538 -55.876 -31.442  1.00  0.00     0.062 C
HETATM   11  C7  UNL     1     -11.795 -55.454 -32.081  1.00  0.00     0.013 C
HETATM   12  C8  UNL     1     -12.278 -56.253 -33.271  1.00  0.00     0.011 C
HETATM   13  C16 UNL     1     -11.325 -56.074 -34.445  1.00  0.00     0.182 C
HETATM   14  O2  UNL     1     -10.383 -55.053 -34.332  1.00  0.00    -0.333 OA
ENDROOT
BRANCH   1  15
HETATM   15  S1  UNL     1      -5.944 -54.034 -30.628  1.00  0.00    -0.085 SA
BRANCH  15  16
HETATM   16  C2  UNL     1      -6.442 -52.985 -29.289  1.00  0.00     0.166 C
BRANCH  16  17
HETATM   17  C1  UNL     1      -7.511 -53.550 -28.439  1.00  0.00     0.126 C
HETATM   18  N4  UNL     1      -8.849 -53.328 -28.560  1.00  0.00    -0.334 N
ATOM     19  H4  UNL     1      -9.178 -52.731 -29.318  1.00  0.00     0.168 HD
BRANCH  17  20
HETATM   20  O1  UNL     1      -7.017 -54.329 -27.506  1.00  0.00    -0.349 OA
ATOM     21  H1  UNL     1      -7.090 -55.245 -27.746  1.00  0.00     0.219 HD
ENDBRANCH  17  20
BRANCH  18  22
HETATM   22  C17 UNL     1      -9.830 -53.903 -27.658  1.00  0.00     0.075 A
HETATM   23  C18 UNL     1     -10.414 -55.133 -27.628  1.00  0.00     0.038 A
HETATM   24  C19 UNL     1     -11.318 -55.381 -26.676  1.00  0.00     0.010 A
HETATM   25  C20 UNL     1     -11.606 -54.385 -25.788  1.00  0.00     0.052 A
HETATM   26  S2  UNL     1     -10.587 -53.120 -26.323  1.00  0.00    -0.084 SA
ENDBRANCH  18  22
ENDBRANCH  16  17
ENDBRANCH  15  16
ENDBRANCH   1  15
BRANCH  12  27
HETATM   27  C9  UNL     1     -12.473 -57.679 -32.889  1.00  0.00     0.011 C
BRANCH  27  28
HETATM   28  C10 UNL     1     -13.446 -58.520 -33.596  1.00  0.00    -0.014 C
HETATM   29  C11 UNL     1     -14.493 -58.017 -34.470  1.00  0.00     0.005 C
HETATM   30  C12 UNL     1     -14.138 -57.807 -35.934  1.00  0.00     0.000 C
HETATM   31  C13 UNL     1     -13.783 -59.120 -36.601  1.00  0.00     0.000 C
HETATM   32  C14 UNL     1     -13.317 -60.101 -35.573  1.00  0.00     0.000 C
HETATM   33  C15 UNL     1     -12.572 -59.484 -34.443  1.00  0.00     0.005 C
ENDBRANCH  27  28
ENDBRANCH  12  27
TORSDOF 7
ENDMDL