MODEL 5
REMARK VINA RESULT: -5.738156522      0.964      1.722
REMARK  7 active torsions:
REMARK  status: ('A' for Active; 'I' for Inactive)
REMARK    1  A    between atoms: C2_2  and  C3_3
REMARK    2  A    between atoms: C3_3  and  C4_4
REMARK    3  A    between atoms: C4_4  and  C5_5
REMARK    4  A    between atoms: C5_5  and  C6_6
REMARK    5  A    between atoms: C6_6  and  C7_7
REMARK    6  A    between atoms: N2_17  and  C13_18
REMARK    7  A    between atoms: C22_30  and  O2_31
ROOT
HETATM    1  C7  UNL     1     -15.082 -57.402 -28.255  1.00  0.00     0.093 A
HETATM    2  N1  UNL     1     -14.040 -56.556 -28.506  1.00  0.00    -0.339 N
ATOM      3  H1  UNL     1     -13.732 -55.922 -27.769  1.00  0.00     0.168 HD
HETATM    4  C8  UNL     1     -13.397 -56.530 -29.708  1.00  0.00     0.092 A
HETATM    5  S1  UNL     1     -12.091 -55.634 -30.362  1.00  0.00    -0.073 SA
HETATM    6  C9  UNL     1     -12.038 -56.320 -31.912  1.00  0.00     0.021 A
HETATM    7  C10 UNL     1     -13.047 -57.242 -31.890  1.00  0.00    -0.024 A
HETATM    8  C11 UNL     1     -13.758 -57.349 -30.731  1.00  0.00     0.074 A
HETATM    9  C12 UNL     1     -14.833 -58.220 -30.466  1.00  0.00     0.268 A
HETATM   10  O1  UNL     1     -15.274 -59.032 -31.310  1.00  0.00    -0.267 OA
HETATM   11  N2  UNL     1     -15.436 -58.204 -29.249  1.00  0.00    -0.250 N
HETATM   12  C19 UNL     1     -13.174 -57.983 -33.218  1.00  0.00     0.041 C
HETATM   13  C20 UNL     1     -13.233 -56.983 -34.356  1.00  0.00     0.007 C
HETATM   14  C21 UNL     1     -12.134 -55.980 -34.308  1.00  0.00     0.037 C
HETATM   15  C22 UNL     1     -11.203 -56.144 -33.159  1.00  0.00     0.158 C
ENDROOT
BRANCH  11  16
HETATM   16  C13 UNL     1     -16.498 -59.152 -29.074  1.00  0.00     0.140 A
HETATM   17  C14 UNL     1     -17.845 -58.898 -29.195  1.00  0.00     0.008 A
HETATM   18  C15 UNL     1     -18.534 -57.619 -29.538  1.00  0.00     0.054 C
HETATM   19  C16 UNL     1     -18.551 -60.073 -28.964  1.00  0.00     0.032 A
HETATM   20  C17 UNL     1     -20.026 -60.249 -28.992  1.00  0.00     0.070 C
HETATM   21  N3  UNL     1     -17.613 -60.992 -28.713  1.00  0.00    -0.301 N
HETATM   22  N4  UNL     1     -16.404 -60.458 -28.777  1.00  0.00    -0.280 N
ATOM     23  H3  UNL     1     -17.804 -61.972 -28.503  1.00  0.00     0.187 HD
HETATM   24  C18 UNL     1     -15.147 -61.192 -28.579  1.00  0.00     0.179 C
ENDBRANCH  11  16
BRANCH   1  25
HETATM   25  C6  UNL     1     -15.741 -57.415 -26.935  1.00  0.00     0.077 C
BRANCH  25  26
HETATM   26  C5  UNL     1     -15.224 -58.441 -25.974  1.00  0.00     0.007 C
BRANCH  26  27
HETATM   27  C4  UNL     1     -16.240 -59.379 -25.415  1.00  0.00     0.000 C
BRANCH  27  28
HETATM   28  C3  UNL     1     -15.679 -60.605 -24.754  1.00  0.00    -0.000 C
BRANCH  28  29
HETATM   29  C2  UNL     1     -16.634 -60.985 -23.632  1.00  0.00    -0.005 C
HETATM   30  C1  UNL     1     -17.036 -59.728 -22.857  1.00  0.00     0.005 C
ENDBRANCH  28  29
ENDBRANCH  27  28
ENDBRANCH  26  27
ENDBRANCH  25  26
ENDBRANCH   1  25
BRANCH  15  31
HETATM   31  O2  UNL     1     -10.369 -57.231 -33.255  1.00  0.00    -0.390 OA
ATOM     32  H2  UNL     1      -9.694 -57.133 -32.595  1.00  0.00     0.210 HD
ENDBRANCH  15  31
TORSDOF 7
ENDMDL