MODEL 2
REMARK VINA RESULT: -8.417537795      0.513      2.761
REMARK  7 active torsions:
REMARK  status: ('A' for Active; 'I' for Inactive)
REMARK    1  A    between atoms: C6_9  and  C7_10
REMARK    2  A    between atoms: C7_10  and  N3_11
REMARK    3  A    between atoms: C7_10  and  C9_15
REMARK    4  A    between atoms: C9_15  and  C11_18
REMARK    5  A    between atoms: C11_18  and  C12_20
REMARK    6  A    between atoms: N6_22  and  C14_23
REMARK    7  A    between atoms: C18_27  and  C19_28
ROOT
HETATM    1  C1  UNL     1      -9.812 -54.742 -35.123  1.00  0.00     0.057 C
HETATM    2  C2  UNL     1     -10.239 -56.161 -35.126  1.00  0.00    -0.006 A
HETATM    3  S1  UNL     1      -9.414 -57.366 -35.990  1.00  0.00    -0.078 SA
HETATM    4  C3  UNL     1     -10.367 -58.703 -35.592  1.00  0.00     0.109 A
HETATM    5  N1  UNL     1     -10.182 -60.059 -36.022  1.00  0.00    -0.093 NA
HETATM    6  C4  UNL     1     -11.351 -58.154 -34.759  1.00  0.00     0.089 A
HETATM    7  C5  UNL     1     -12.347 -59.134 -34.291  1.00  0.00     0.103 C
HETATM    8  N2  UNL     1     -13.135 -59.952 -33.950  1.00  0.00    -0.191 NA
HETATM    9  C6  UNL     1     -11.285 -56.833 -34.515  1.00  0.00     0.025 A
ENDROOT
BRANCH   9  10
HETATM   10  C7  UNL     1     -12.233 -56.037 -33.671  1.00  0.00     0.057 C
BRANCH  10  11
HETATM   11  N3  UNL     1     -13.325 -55.764 -34.243  1.00  0.00    -0.295 N
HETATM   12  C8  UNL     1     -14.267 -56.307 -34.981  1.00  0.00     0.182 C
HETATM   13  N4  UNL     1     -15.116 -56.749 -35.618  1.00  0.00    -0.172 NA
ATOM     14  H3  UNL     1     -13.557 -54.786 -34.072  1.00  0.00     0.178 HD
ENDBRANCH  10  11
BRANCH  10  15
HETATM   15  C9  UNL     1     -11.960 -55.491 -32.332  1.00  0.00     0.218 C
HETATM   16  C10 UNL     1     -13.118 -55.458 -31.470  1.00  0.00     0.078 C
HETATM   17  N5  UNL     1     -14.050 -55.448 -30.787  1.00  0.00    -0.196 NA
BRANCH  15  18
HETATM   18  C11 UNL     1     -10.777 -56.063 -31.626  1.00  0.00     0.180 C
HETATM   19  O1  UNL     1     -10.410 -57.239 -31.884  1.00  0.00    -0.291 OA
BRANCH  18  20
HETATM   20  C12 UNL     1     -10.002 -55.316 -30.626  1.00  0.00     0.009 A
HETATM   21  C13 UNL     1      -8.844 -54.777 -30.984  1.00  0.00     0.102 A
HETATM   22  N6  UNL     1      -8.009 -54.036 -30.105  1.00  0.00    -0.362 N
HETATM   23  C17 UNL     1      -8.483 -53.891 -28.761  1.00  0.00     0.094 A
HETATM   24  C18 UNL     1      -9.610 -54.401 -28.350  1.00  0.00    -0.057 A
HETATM   25  C22 UNL     1     -10.485 -55.182 -29.247  1.00  0.00     0.079 A
BRANCH  22  26
HETATM   26  C14 UNL     1      -6.761 -53.465 -30.535  1.00  0.00     0.080 C
HETATM   27  C15 UNL     1      -5.868 -53.229 -29.344  1.00  0.00     0.032 C
HETATM   28  C16 UNL     1      -6.015 -54.372 -31.490  1.00  0.00     0.032 C
ENDBRANCH  22  26
BRANCH  24  29
HETATM   29  C19 UNL     1     -10.063 -54.226 -26.953  1.00  0.00     0.008 C
HETATM   30  C20 UNL     1     -10.292 -52.789 -26.577  1.00  0.00     0.014 C
HETATM   31  C21 UNL     1     -11.317 -55.061 -26.684  1.00  0.00     0.014 C
ENDBRANCH  24  29
ENDBRANCH  18  20
ENDBRANCH  15  18
ENDBRANCH  10  15
ENDBRANCH   9  10
TORSDOF 7
ENDMDL