MODEL 5
REMARK VINA RESULT: -7.196579389      4.030      6.415
REMARK  7 active torsions:
REMARK  status: ('A' for Active; 'I' for Inactive)
REMARK    1  A    between atoms: C2_2  and  O1_3
REMARK    2  A    between atoms: C2_2  and  C10_18
REMARK    3  A    between atoms: O1_3  and  C3_4
REMARK    4  A    between atoms: C3_4  and  C4_6
REMARK    5  A    between atoms: C7_9  and  N1_10
REMARK    6  A    between atoms: C9_14  and  N2_15
REMARK    7  A    between atoms: C10_18  and  C12_20
ROOT
HETATM    1  C1  UNL     1      -9.819 -54.707 -34.552  1.00  0.00     0.040 C
HETATM    2  C2  UNL     1      -9.912 -55.972 -33.758  1.00  0.00     0.134 C
ENDROOT
BRANCH   2   3
HETATM    3  O1  UNL     1     -10.353 -55.674 -32.461  1.00  0.00    -0.312 OA
BRANCH   3   4
HETATM    4  C3  UNL     1      -9.633 -56.137 -31.325  1.00  0.00     0.296 C
HETATM    5  O2  UNL     1      -9.048 -57.208 -31.502  1.00  0.00    -0.259 OA
BRANCH   4   6
HETATM    6  C4  UNL     1      -9.649 -55.341 -30.111  1.00  0.00     0.072 A
HETATM    7  C5  UNL     1     -10.673 -55.611 -29.171  1.00  0.00     0.022 A
HETATM    8  C6  UNL     1     -10.836 -54.887 -28.027  1.00  0.00     0.037 A
HETATM    9  C7  UNL     1      -9.988 -53.836 -27.732  1.00  0.00     0.105 A
HETATM   10  C8  UNL     1      -8.994 -53.556 -28.615  1.00  0.00     0.073 A
HETATM   11  C9  UNL     1      -8.826 -54.314 -29.808  1.00  0.00     0.121 A
BRANCH   9  12
HETATM   12  N1  UNL     1     -10.171 -53.087 -26.532  1.00  0.00    -0.116 N
HETATM   13  O3  UNL     1     -11.195 -53.250 -25.842  1.00  0.00    -0.532 OA
HETATM   14  O4  UNL     1      -9.237 -52.192 -26.129  1.00  0.00    -0.532 OA
ENDBRANCH   9  12
BRANCH  11  15
HETATM   15  N2  UNL     1      -7.752 -53.922 -30.640  1.00  0.00    -0.115 N
HETATM   16  O5  UNL     1      -7.848 -53.629 -31.808  1.00  0.00    -0.532 OA
HETATM   17  O6  UNL     1      -6.468 -53.944 -30.099  1.00  0.00    -0.532 OA
ENDBRANCH  11  15
ENDBRANCH   4   6
ENDBRANCH   3   4
ENDBRANCH   2   3
BRANCH   2  18
HETATM   18  C10 UNL     1     -10.723 -57.072 -34.404  1.00  0.00     0.042 C
HETATM   19  C11 UNL     1     -10.155 -57.120 -35.842  1.00  0.00     0.015 C
BRANCH  18  20
HETATM   20  C12 UNL     1     -12.156 -56.678 -34.436  1.00  0.00     0.197 C
HETATM   21  N3  UNL     1     -12.970 -57.061 -33.316  1.00  0.00    -0.066 N
HETATM   22  C13 UNL     1     -14.328 -57.326 -33.825  1.00  0.00     0.191 C
ATOM     23  H32 UNL     1     -12.582 -57.846 -32.792  1.00  0.00     0.278 HD
ATOM     24  H31 UNL     1     -12.955 -56.376 -32.560  1.00  0.00     0.278 HD
HETATM   25  C14 UNL     1     -14.258 -56.676 -35.228  1.00  0.00     0.040 C
HETATM   26  C21 UNL     1     -14.407 -58.708 -34.294  1.00  0.00     0.021 C
HETATM   27  C15 UNL     1     -12.928 -57.390 -35.566  1.00  0.00     0.023 C
HETATM   28  C16 UNL     1     -13.112 -58.777 -35.128  1.00  0.00    -0.002 C
HETATM   29  C17 UNL     1     -13.350 -59.837 -36.117  1.00  0.00     0.005 C
HETATM   30  C18 UNL     1     -13.555 -61.138 -35.373  1.00  0.00     0.000 C
HETATM   31  C19 UNL     1     -14.508 -61.092 -34.241  1.00  0.00     0.000 C
HETATM   32  C20 UNL     1     -14.387 -59.833 -33.368  1.00  0.00     0.007 C
ENDBRANCH  18  20
ENDBRANCH   2  18
TORSDOF 7
ENDMDL