MODEL 4
REMARK VINA RESULT: -7.978833941      1.441      2.556
REMARK  7 active torsions:
REMARK  status: ('A' for Active; 'I' for Inactive)
REMARK    1  A    between atoms: C5_5  and  C6_6
REMARK    2  A    between atoms: C6_6  and  S1_8
REMARK    3  A    between atoms: S1_8  and  C8_9
REMARK    4  A    between atoms: C9_14  and  N3_15
REMARK    5  A    between atoms: C11_17  and  C12_18
REMARK    6  A    between atoms: C12_18  and  C13_19
REMARK    7  A    between atoms: C13_19  and  O1_20
ROOT
HETATM    1  C8  UNL     1     -12.096 -55.772 -32.613  1.00  0.00     0.130 A
HETATM    2  N1  UNL     1     -11.604 -55.559 -33.826  1.00  0.00    -0.286 N
ATOM      3  H1  UNL     1     -10.843 -54.892 -33.954  1.00  0.00     0.188 HD
HETATM    4  N2  UNL     1     -12.071 -56.177 -34.820  1.00  0.00    -0.278 N
ATOM      5  H2  UNL     1     -11.688 -56.009 -35.750  1.00  0.00     0.189 HD
HETATM    6  C9  UNL     1     -13.061 -57.047 -34.659  1.00  0.00     0.165 A
HETATM    7  S2  UNL     1     -13.300 -56.933 -32.949  1.00  0.00    -0.026 SA
ENDROOT
BRANCH   6   8
HETATM    8  N3  UNL     1     -13.734 -57.851 -35.626  1.00  0.00    -0.328 N
HETATM    9  C10 UNL     1     -14.927 -57.448 -36.327  1.00  0.00     0.163 C
HETATM   10  C11 UNL     1     -15.648 -58.767 -36.503  1.00  0.00     0.245 C
HETATM   11  N4  UNL     1     -14.538 -59.647 -36.818  1.00  0.00     0.117 N
HETATM   12  C14 UNL     1     -14.849 -60.972 -36.387  1.00  0.00     0.276 C
HETATM   13  C17 UNL     1     -13.407 -59.168 -36.103  1.00  0.00     0.326 C
HETATM   14  C15 UNL     1     -14.175 -61.191 -35.056  1.00  0.00     0.034 C
HETATM   15  C16 UNL     1     -13.079 -60.151 -35.017  1.00  0.00     0.059 C
BRANCH  10  16
HETATM   16  C12 UNL     1     -16.693 -58.735 -37.565  1.00  0.00     0.063 C
BRANCH  16  17
HETATM   17  C13 UNL     1     -18.079 -59.036 -37.043  1.00  0.00     0.166 C
BRANCH  17  18
HETATM   18  O1  UNL     1     -18.658 -57.783 -36.731  1.00  0.00    -0.401 OA
ATOM     19  H1  UNL     1     -19.500 -57.767 -37.171  1.00  0.00     0.209 HD
ENDBRANCH  17  18
ENDBRANCH  16  17
ENDBRANCH  10  16
ENDBRANCH   6   8
BRANCH   1  20
HETATM   20  S1  UNL     1     -11.724 -55.121 -31.007  1.00  0.00    -0.099 SA
BRANCH  20  21
HETATM   21  C6  UNL     1     -10.121 -55.600 -30.402  1.00  0.00     0.055 C
HETATM   22  C7  UNL     1      -9.479 -56.721 -31.178  1.00  0.00     0.022 C
BRANCH  21  23
HETATM   23  C5  UNL     1      -9.217 -54.377 -30.423  1.00  0.00     0.003 C
HETATM   24  C4  UNL     1      -8.267 -54.527 -31.553  1.00  0.00     0.006 C
HETATM   25  C3  UNL     1      -7.029 -53.689 -31.452  1.00  0.00     0.005 C
HETATM   26  C2  UNL     1      -6.392 -54.008 -30.096  1.00  0.00    -0.018 C
HETATM   27  C1  UNL     1      -5.023 -53.408 -30.031  1.00  0.00     0.010 C
HETATM   28  C20 UNL     1      -7.327 -53.443 -29.051  1.00  0.00     0.009 C
HETATM   29  C18 UNL     1      -8.605 -54.221 -29.081  1.00  0.00    -0.013 C
HETATM   30  C19 UNL     1      -9.606 -53.451 -28.208  1.00  0.00     0.010 C
ENDBRANCH  21  23
ENDBRANCH  20  21
ENDBRANCH   1  20
TORSDOF 7
ENDMDL