MODEL 4
REMARK VINA RESULT: -7.162672401      2.034      3.620
REMARK  9 active torsions:
REMARK  status: ('A' for Active; 'I' for Inactive)
REMARK    1  A    between atoms: C5_6  and  C6_7
REMARK    2  A    between atoms: C6_7  and  C7_8
REMARK    3  A    between atoms: C7_8  and  O1_9
REMARK    4  A    between atoms: C7_8  and  O2_11
REMARK    5  A    between atoms: O2_11  and  N2_12
REMARK    6  A    between atoms: C8_14  and  C9_15
REMARK    7  A    between atoms: C16_22  and  O3_23
REMARK    8  A    between atoms: O3_23  and  C17_24
REMARK    9  A    between atoms: C17_24  and  C18_26
ROOT
HETATM    1  C1  UNL     1      -9.477 -57.076 -31.472  1.00  0.00     0.116 C
HETATM    2  N1  UNL     1     -10.475 -56.273 -31.871  1.00  0.00    -0.390 N
HETATM    3  C2  UNL     1     -10.278 -55.287 -32.902  1.00  0.00     0.085 C
HETATM    4  C3  UNL     1     -10.437 -55.971 -34.167  1.00  0.00     0.026 C
HETATM    5  C4  UNL     1     -11.929 -56.222 -34.310  1.00  0.00     0.007 C
HETATM    6  C5  UNL     1     -12.589 -56.752 -33.038  1.00  0.00    -0.008 C
HETATM    7  C13 UNL     1     -12.705 -55.783 -31.945  1.00  0.00     0.030 C
HETATM    8  C14 UNL     1     -11.449 -55.720 -31.023  1.00  0.00     0.086 C
HETATM    9  C15 UNL     1     -11.025 -54.288 -30.777  1.00  0.00     0.057 C
HETATM   10  C16 UNL     1      -9.577 -53.992 -31.081  1.00  0.00     0.136 C
HETATM   11  C22 UNL     1      -9.135 -54.485 -32.475  1.00  0.00     0.057 C
ENDROOT
BRANCH   6  12
HETATM   12  C6  UNL     1     -13.868 -57.334 -33.521  1.00  0.00     0.067 C
BRANCH  12  13
HETATM   13  C7  UNL     1     -14.215 -58.735 -33.280  1.00  0.00     0.285 C
BRANCH  13  14
HETATM   14  O1  UNL     1     -15.455 -58.965 -32.728  1.00  0.00    -0.369 OA
ATOM     15  H1  UNL     1     -15.643 -58.504 -31.918  1.00  0.00     0.212 HD
ENDBRANCH  13  14
BRANCH  13  16
HETATM   16  O2  UNL     1     -14.264 -59.389 -34.567  1.00  0.00    -0.249 OA
BRANCH  16  17
HETATM   17  N2  UNL     1     -14.205 -58.715 -35.742  1.00  0.00    -0.278 N
HETATM   18  C8  UNL     1     -13.344 -58.943 -36.644  1.00  0.00     0.095 C
ATOM     19  H2  UNL     1     -14.894 -57.981 -35.909  1.00  0.00     0.193 HD
BRANCH  18  20
HETATM   20  C9  UNL     1     -12.278 -59.976 -36.549  1.00  0.00    -0.017 C
HETATM   21  C10 UNL     1     -12.873 -61.343 -36.351  1.00  0.00     0.020 C
HETATM   22  C11 UNL     1     -11.350 -59.686 -35.377  1.00  0.00     0.020 C
HETATM   23  C12 UNL     1     -11.437 -59.918 -37.805  1.00  0.00     0.020 C
ENDBRANCH  18  20
ENDBRANCH  16  17
ENDBRANCH  13  16
ENDBRANCH  12  13
ENDBRANCH   6  12
BRANCH  10  24
HETATM   24  O3  UNL     1      -8.695 -54.417 -30.080  1.00  0.00    -0.311 OA
BRANCH  24  25
HETATM   25  C17 UNL     1      -8.514 -53.813 -28.871  1.00  0.00     0.300 C
HETATM   26  O4  UNL     1      -7.439 -53.200 -28.664  1.00  0.00    -0.259 OA
BRANCH  25  27
HETATM   27  C18 UNL     1      -9.533 -53.848 -27.795  1.00  0.00     0.080 A
HETATM   28  C19 UNL     1      -9.887 -52.833 -26.944  1.00  0.00     0.025 A
HETATM   29  C20 UNL     1     -10.841 -53.094 -26.043  1.00  0.00     0.009 A
HETATM   30  C21 UNL     1     -11.383 -54.352 -26.045  1.00  0.00     0.050 A
HETATM   31  S1  UNL     1     -10.543 -55.130 -27.308  1.00  0.00    -0.096 SA
ENDBRANCH  25  27
ENDBRANCH  24  25
ENDBRANCH  10  24
TORSDOF 9
ENDMDL