MODEL 1
REMARK VINA RESULT: -7.217347088      0.000      0.000
REMARK  7 active torsions:
REMARK  status: ('A' for Active; 'I' for Inactive)
REMARK    1  A    between atoms: C2_2  and  C3_3
REMARK    2  A    between atoms: C3_3  and  C4_4
REMARK    3  A    between atoms: C4_4  and  C5_5
REMARK    4  A    between atoms: C5_5  and  N1_6
REMARK    5  A    between atoms: C10_14  and  C11_15
REMARK    6  A    between atoms: C11_15  and  N3_17
REMARK    7  A    between atoms: N5_24  and  C14_25
ROOT
HETATM    1  N1  UNL     1     -11.917 -55.779 -31.579  1.00  0.00    -0.264 N
HETATM    2  C6  UNL     1     -12.604 -56.085 -30.486  1.00  0.00     0.282 A
HETATM    3  O1  UNL     1     -12.463 -55.554 -29.358  1.00  0.00    -0.265 OA
HETATM    4  C7  UNL     1     -13.572 -57.072 -30.572  1.00  0.00     0.146 A
HETATM    5  N2  UNL     1     -14.280 -57.401 -29.480  1.00  0.00    -0.351 N
ATOM      6  H2  UNL     1     -14.104 -56.927 -28.594  1.00  0.00     0.166 HD
HETATM    7  C8  UNL     1     -15.219 -58.357 -29.557  1.00  0.00     0.030 A
HETATM    8  C9  UNL     1     -16.046 -58.777 -28.389  1.00  0.00     0.070 C
HETATM    9  C10 UNL     1     -15.438 -58.985 -30.767  1.00  0.00     0.063 A
HETATM   10  N4  UNL     1     -14.722 -58.647 -31.852  1.00  0.00    -0.340 N
ATOM     11  H4  UNL     1     -14.891 -59.118 -32.741  1.00  0.00     0.167 HD
HETATM   12  C13 UNL     1     -13.780 -57.685 -31.766  1.00  0.00     0.145 A
HETATM   13  N5  UNL     1     -13.102 -57.387 -32.866  1.00  0.00    -0.275 N
HETATM   14  C24 UNL     1     -12.171 -56.432 -32.763  1.00  0.00     0.334 A
HETATM   15  O2  UNL     1     -11.479 -56.087 -33.764  1.00  0.00    -0.246 OA
ENDROOT
BRANCH  13  16
HETATM   16  C14 UNL     1     -13.315 -58.047 -34.186  1.00  0.00     0.118 C
HETATM   17  C15 UNL     1     -13.703 -57.034 -35.196  1.00  0.00    -0.005 C
HETATM   18  C16 UNL     1     -15.018 -57.040 -35.833  1.00  0.00    -0.029 C
HETATM   19  C17 UNL     1     -15.601 -58.130 -36.611  1.00  0.00     0.027 C
HETATM   20  C18 UNL     1     -14.865 -58.779 -37.719  1.00  0.00     0.004 C
HETATM   21  C19 UNL     1     -14.769 -60.263 -37.739  1.00  0.00     0.000 C
HETATM   22  C20 UNL     1     -13.470 -60.884 -37.184  1.00  0.00     0.000 C
HETATM   23  C21 UNL     1     -13.130 -59.998 -36.070  1.00  0.00     0.000 C
HETATM   24  C22 UNL     1     -12.114 -60.165 -35.044  1.00  0.00     0.002 C
HETATM   25  C23 UNL     1     -12.022 -58.769 -34.389  1.00  0.00     0.030 C
ENDBRANCH  13  16
BRANCH   1  26
HETATM   26  C5  UNL     1     -10.865 -54.801 -31.589  1.00  0.00     0.137 C
BRANCH  26  27
HETATM   27  C4  UNL     1      -9.572 -55.269 -31.048  1.00  0.00     0.020 C
BRANCH  27  28
HETATM   28  C3  UNL     1      -8.745 -54.378 -30.220  1.00  0.00     0.001 C
BRANCH  28  29
HETATM   29  C2  UNL     1      -9.352 -53.863 -28.957  1.00  0.00    -0.004 C
HETATM   30  C1  UNL     1      -8.266 -53.442 -27.968  1.00  0.00     0.005 C
ENDBRANCH  28  29
ENDBRANCH  27  28
ENDBRANCH  26  27
ENDBRANCH   1  26
BRANCH   9  31
HETATM   31  C11 UNL     1     -16.469 -60.041 -30.873  1.00  0.00     0.231 C
HETATM   32  C12 UNL     1     -15.832 -61.338 -31.233  1.00  0.00     0.046 C
BRANCH  31  33
HETATM   33  N3  UNL     1     -17.532 -59.690 -31.787  1.00  0.00    -0.070 N
ATOM     34  H33 UNL     1     -18.408 -59.534 -31.288  1.00  0.00     0.275 HD
ATOM     35  H32 UNL     1     -17.393 -58.755 -32.171  1.00  0.00     0.275 HD
ATOM     36  H31 UNL     1     -17.653 -60.377 -32.532  1.00  0.00     0.275 HD
ENDBRANCH  31  33
ENDBRANCH   9  31
TORSDOF 7
ENDMDL