MODEL 3
REMARK VINA RESULT: -6.011781230      9.360     11.745
REMARK  1 active torsions:
REMARK  status: ('A' for Active; 'I' for Inactive)
REMARK    1  A    between atoms: C4_7  and  C5_8
ROOT
HETATM    1  C5  UNL     1     -27.127   4.753   2.439  1.00  0.00     0.107 C
HETATM    2  N2  UNL     1     -27.202   3.473   2.903  1.00  0.00    -0.375 N
HETATM    3  C6  UNL     1     -27.001   3.258   4.297  1.00  0.00     0.142 C
HETATM    4  C7  UNL     1     -25.755   2.428   4.537  1.00  0.00     0.133 C
HETATM    5  N3  UNL     1     -25.419   1.553   3.460  1.00  0.00    -0.417 N
ATOM      6  H3  UNL     1     -24.975   0.654   3.647  1.00  0.00     0.153 HD
HETATM    7  C8  UNL     1     -25.710   1.945   2.124  1.00  0.00     0.145 C
HETATM    8  C9  UNL     1     -27.199   2.328   2.098  1.00  0.00     0.055 C
HETATM    9  C10 UNL     1     -27.636   2.564   0.693  1.00  0.00     0.016 C
HETATM   10  C11 UNL     1     -29.145   2.768   0.593  1.00  0.00     0.012 C
HETATM   11  C12 UNL     1     -29.859   1.501   1.051  1.00  0.00    -0.013 C
HETATM   12  C13 UNL     1     -29.429   0.288   0.281  1.00  0.00     0.009 C
HETATM   13  C14 UNL     1     -27.918   0.131   0.388  1.00  0.00    -0.013 C
HETATM   14  C15 UNL     1     -27.309   1.385  -0.186  1.00  0.00     0.012 C
HETATM   15  C16 UNL     1     -27.592  -0.076   1.839  1.00  0.00     0.012 C
HETATM   16  C17 UNL     1     -27.983   1.166   2.640  1.00  0.00     0.016 C
HETATM   17  C18 UNL     1     -29.478   1.304   2.494  1.00  0.00     0.012 C
ENDROOT
BRANCH   1  18
HETATM   18  C4  UNL     1     -26.401   5.733   3.266  1.00  0.00     0.043 A
HETATM   19  C2  UNL     1     -26.901   7.067   3.415  1.00  0.00     0.024 A
HETATM   20  C1  UNL     1     -28.278   7.366   2.859  1.00  0.00     0.069 C
HETATM   21  N1  UNL     1     -26.170   7.865   4.026  1.00  0.00    -0.362 N
HETATM   22  C3  UNL     1     -25.002   7.566   4.520  1.00  0.00     0.139 A
ATOM     23  H1  UNL     1     -26.508   8.819   4.149  1.00  0.00     0.165 HD
HETATM   24  S1  UNL     1     -24.914   5.883   4.086  1.00  0.00    -0.082 SA
ENDBRANCH   1  18
TORSDOF 1
ENDMDL