MODEL 3
REMARK VINA RESULT: -6.703853290      2.408      4.176
REMARK  4 active torsions:
REMARK  status: ('A' for Active; 'I' for Inactive)
REMARK    1  A    between atoms: C4_4  and  O1_5
REMARK    2  A    between atoms: O1_5  and  C5_6
REMARK    3  A    between atoms: C5_6  and  C6_8
REMARK    4  A    between atoms: C19_22  and  O4_23
ROOT
HETATM    1  C1  UNL     1     -20.792   1.418  -5.394  1.00  0.00     0.020 C
HETATM    2  C2  UNL     1     -22.022   0.709  -5.863  1.00  0.00     0.006 C
HETATM    3  C3  UNL     1     -23.178   1.131  -4.961  1.00  0.00     0.020 C
HETATM    4  C4  UNL     1     -21.922  -0.793  -5.761  1.00  0.00     0.145 C
HETATM    5  C11 UNL     1     -21.015  -1.274  -6.850  1.00  0.00     0.074 C
HETATM    6  C12 UNL     1     -21.614  -0.852  -8.176  1.00  0.00     0.091 C
HETATM    7  C13 UNL     1     -21.917  -2.012  -9.071  1.00  0.00     0.049 C
HETATM    8  O3  UNL     1     -22.813  -0.126  -7.985  1.00  0.00    -0.371 OA
HETATM    9  C14 UNL     1     -22.377   1.019  -7.303  1.00  0.00     0.140 C
HETATM   10  C15 UNL     1     -21.207   1.457  -8.119  1.00  0.00     0.053 C
HETATM   11  C16 UNL     1     -21.712   2.385  -9.209  1.00  0.00     0.010 C
HETATM   12  C17 UNL     1     -22.162   1.486 -10.338  1.00  0.00     0.004 C
HETATM   13  C18 UNL     1     -21.169   0.363 -10.284  1.00  0.00     0.041 C
HETATM   14  C19 UNL     1     -20.761   0.207  -8.851  1.00  0.00     0.095 C
ENDROOT
BRANCH   4  15
HETATM   15  O1  UNL     1     -21.577  -1.245  -4.484  1.00  0.00    -0.315 OA
BRANCH  15  16
HETATM   16  C5  UNL     1     -20.248  -1.481  -4.136  1.00  0.00     0.263 C
HETATM   17  O2  UNL     1     -19.539  -2.036  -5.016  1.00  0.00    -0.265 OA
BRANCH  16  18
HETATM   18  C6  UNL     1     -19.677  -1.117  -2.830  1.00  0.00     0.085 C
HETATM   19  C7  UNL     1     -18.168  -1.116  -2.833  1.00  0.00     0.014 C
HETATM   20  C8  UNL     1     -17.805  -2.293  -1.956  1.00  0.00     0.001 C
HETATM   21  C9  UNL     1     -18.877  -2.174  -0.865  1.00  0.00     0.001 C
HETATM   22  C10 UNL     1     -20.122  -2.032  -1.716  1.00  0.00     0.014 C
ENDBRANCH  16  18
ENDBRANCH  15  16
ENDBRANCH   4  15
BRANCH  14  23
HETATM   23  O4  UNL     1     -19.422  -0.055  -8.703  1.00  0.00    -0.386 OA
ATOM     24  H4  UNL     1     -19.268  -0.963  -8.472  1.00  0.00     0.210 HD
ENDBRANCH  14  23
TORSDOF 4
ENDMDL