MODEL 4
REMARK VINA RESULT: -6.349851172      8.416     11.215
REMARK  1 active torsions:
REMARK  status: ('A' for Active; 'I' for Inactive)
REMARK    1  A    between atoms: N2_5  and  C3_6
ROOT
HETATM    1  C1  UNL     1     -23.773   0.793   3.529  1.00  0.00     0.065 C
HETATM    2  C2  UNL     1     -24.905   1.636   3.107  1.00  0.00    -0.000 C
HETATM    3  N1  UNL     1     -26.165   1.272   3.162  1.00  0.00    -0.311 N
ATOM      4  H1  UNL     1     -26.421   0.349   3.516  1.00  0.00     0.186 HD
HETATM    5  N2  UNL     1     -27.170   2.179   2.724  1.00  0.00    -0.317 N
HETATM    6  C10 UNL     1     -27.009   3.558   3.066  1.00  0.00     0.125 C
HETATM    7  C11 UNL     1     -27.719   3.917   4.360  1.00  0.00     0.154 C
HETATM    8  N3  UNL     1     -27.379   5.259   4.775  1.00  0.00    -0.330 N
HETATM    9  C12 UNL     1     -26.549   5.896   5.785  1.00  0.00     0.152 C
HETATM   10  C13 UNL     1     -25.854   6.923   4.872  1.00  0.00     0.104 C
HETATM   11  C14 UNL     1     -24.824   6.212   4.099  1.00  0.00     0.027 C
HETATM   12  C15 UNL     1     -25.257   5.377   2.945  1.00  0.00     0.009 C
HETATM   13  C16 UNL     1     -25.556   3.946   3.298  1.00  0.00     0.017 C
HETATM   14  C17 UNL     1     -24.665   2.987   2.572  1.00  0.00     0.060 C
HETATM   15  N4  UNL     1     -26.991   7.425   4.130  1.00  0.00    -0.337 N
ATOM     16  H4  UNL     1     -27.088   8.355   3.725  1.00  0.00     0.164 HD
HETATM   17  C18 UNL     1     -27.948   6.372   4.072  1.00  0.00     0.318 C
HETATM   18  O1  UNL     1     -29.078   6.378   3.523  1.00  0.00    -0.247 OA
ENDROOT
BRANCH   5  19
HETATM   19  C3  UNL     1     -28.262   1.630   1.958  1.00  0.00     0.102 C
HETATM   20  C4  UNL     1     -28.180   0.143   1.725  1.00  0.00     0.027 C
HETATM   21  C5  UNL     1     -29.369  -0.203   0.827  1.00  0.00     0.002 C
HETATM   22  C6  UNL     1     -29.107  -0.063  -0.621  1.00  0.00     0.000 C
HETATM   23  C7  UNL     1     -27.743   0.388  -1.007  1.00  0.00     0.000 C
HETATM   24  C8  UNL     1     -27.343   1.700  -0.389  1.00  0.00     0.002 C
HETATM   25  C9  UNL     1     -28.344   2.250   0.578  1.00  0.00     0.027 C
ENDBRANCH   5  19
TORSDOF 1
ENDMDL