MODEL 1
REMARK VINA RESULT: -5.720412219      0.000      0.000
REMARK  3 active torsions:
REMARK  status: ('A' for Active; 'I' for Inactive)
REMARK    1  A    between atoms: C2_2  and  C4_4
REMARK    2  A    between atoms: C4_4  and  C6_6
REMARK    3  A    between atoms: C19_22  and  O4_23
ROOT
HETATM    1  C6  UNL     1     -21.782  -0.617  -7.068  1.00  0.00     0.091 C
HETATM    2  C7  UNL     1     -20.284  -0.978  -7.022  1.00  0.00     0.042 C
HETATM    3  C8  UNL     1     -20.026  -2.192  -6.199  1.00  0.00     0.015 C
HETATM    4  C9  UNL     1     -20.095  -2.056  -4.736  1.00  0.00    -0.006 C
HETATM    5  C10 UNL     1     -20.898  -3.138  -4.052  1.00  0.00     0.018 C
HETATM    6  C11 UNL     1     -18.748  -2.020  -4.026  1.00  0.00     0.122 C
HETATM    7  C12 UNL     1     -19.158  -1.308  -2.761  1.00  0.00     0.260 C
HETATM    8  O1  UNL     1     -18.475  -1.145  -1.709  1.00  0.00    -0.265 OA
HETATM    9  O2  UNL     1     -20.465  -0.821  -2.898  1.00  0.00    -0.312 OA
HETATM   10  C13 UNL     1     -20.632  -0.699  -4.322  1.00  0.00     0.170 C
HETATM   11  C14 UNL     1     -22.058  -0.580  -4.739  1.00  0.00     0.160 C
HETATM   12  O3  UNL     1     -22.359  -1.170  -5.934  1.00  0.00    -0.368 OA
HETATM   13  C15 UNL     1     -22.575   0.813  -4.569  1.00  0.00    -0.017 C
HETATM   14  C16 UNL     1     -21.631   1.762  -3.911  1.00  0.00     0.018 C
HETATM   15  C17 UNL     1     -23.886   0.860  -3.781  1.00  0.00     0.018 C
HETATM   16  C18 UNL     1     -22.898   1.337  -5.951  1.00  0.00     0.046 C
HETATM   17  C19 UNL     1     -21.842   0.852  -6.956  1.00  0.00     0.153 C
ENDROOT
BRANCH   1  18
HETATM   18  C4  UNL     1     -22.392  -1.291  -8.239  1.00  0.00     0.022 C
HETATM   19  C5  UNL     1     -23.446  -2.335  -7.928  1.00  0.00     0.013 C
BRANCH  18  20
HETATM   20  C2  UNL     1     -21.519  -1.680  -9.371  1.00  0.00    -0.016 C
HETATM   21  C1  UNL     1     -21.900  -0.718 -10.526  1.00  0.00     0.010 C
HETATM   22  C3  UNL     1     -21.604  -3.027  -9.951  1.00  0.00     0.010 C
ENDBRANCH  18  20
ENDBRANCH   1  18
BRANCH  17  23
HETATM   23  O4  UNL     1     -21.989   1.605  -8.074  1.00  0.00    -0.392 OA
ATOM     24  H4  UNL     1     -22.781   1.528  -8.593  1.00  0.00     0.210 HD
ENDBRANCH  17  23
TORSDOF 3
ENDMDL