MODEL 2
REMARK VINA RESULT: -6.363946734      1.336      4.460
REMARK  3 active torsions:
REMARK  status: ('A' for Active; 'I' for Inactive)
REMARK    1  A    between atoms: C2_2  and  O2_4
REMARK    2  A    between atoms: O2_4  and  C3_5
REMARK    3  A    between atoms: C10_15  and  C11_16
ROOT
HETATM    1  C3  UNL     1     -23.050   0.522  -3.542  1.00  0.00     0.135 C
HETATM    2  C4  UNL     1     -23.475   1.731  -4.340  1.00  0.00     0.035 C
HETATM    3  C5  UNL     1     -23.700   1.371  -5.818  1.00  0.00     0.036 C
HETATM    4  C6  UNL     1     -22.512   0.592  -6.227  1.00  0.00     0.191 C
HETATM    5  N1  UNL     1     -21.341   1.210  -5.581  1.00  0.00    -0.063 N
ATOM      6  H11 UNL     1     -21.552   1.746  -4.740  1.00  0.00     0.278 HD
ATOM      7  H12 UNL     1     -20.930   1.988  -6.098  1.00  0.00     0.278 HD
HETATM    8  C7  UNL     1     -20.437   0.063  -5.370  1.00  0.00     0.224 C
HETATM    9  C8  UNL     1     -20.523  -0.926  -6.474  1.00  0.00     0.037 C
HETATM   10  C9  UNL     1     -20.957  -0.308  -7.799  1.00  0.00     0.009 C
HETATM   11  C10 UNL     1     -22.168   0.571  -7.664  1.00  0.00     0.019 C
HETATM   12  C14 UNL     1     -20.768  -0.446  -3.998  1.00  0.00     0.110 C
HETATM   13  C15 UNL     1     -21.280  -1.809  -3.932  1.00  0.00     0.011 C
HETATM   14  C16 UNL     1     -20.634  -2.464  -2.958  1.00  0.00     0.003 C
HETATM   15  C17 UNL     1     -19.673  -1.524  -2.362  1.00  0.00     0.141 C
HETATM   16  C18 UNL     1     -18.300  -2.166  -2.163  1.00  0.00     0.044 C
HETATM   17  O3  UNL     1     -19.531  -0.547  -3.312  1.00  0.00    -0.365 OA
HETATM   18  C19 UNL     1     -21.580   0.542  -3.187  1.00  0.00     0.077 C
ENDROOT
BRANCH   1  19
HETATM   19  O2  UNL     1     -23.739   0.612  -2.293  1.00  0.00    -0.316 OA
BRANCH  19  20
HETATM   20  C2  UNL     1     -24.240   1.777  -1.779  1.00  0.00     0.255 C
HETATM   21  C1  UNL     1     -25.710   2.078  -1.840  1.00  0.00     0.126 C
HETATM   22  O1  UNL     1     -23.435   2.587  -1.254  1.00  0.00    -0.266 OA
ENDBRANCH  19  20
ENDBRANCH   1  19
BRANCH  11  23
HETATM   23  C11 UNL     1     -23.292   0.191  -8.580  1.00  0.00    -0.017 C
HETATM   24  C12 UNL     1     -22.945   0.670  -9.975  1.00  0.00     0.010 C
HETATM   25  C13 UNL     1     -23.674  -1.246  -8.527  1.00  0.00     0.010 C
ENDBRANCH  11  23
TORSDOF 3
ENDMDL