MODEL 4
REMARK VINA RESULT: -5.716707271      1.573      3.321
REMARK  5 active torsions:
REMARK  status: ('A' for Active; 'I' for Inactive)
REMARK    1  A    between atoms: C3_3  and  O1_5
REMARK    2  A    between atoms: C3_3  and  C5_7
REMARK    3  A    between atoms: C7_10  and  C8_11
REMARK    4  A    between atoms: C8_11  and  C9_12
REMARK    5  A    between atoms: C10_13  and  C11_14
ROOT
HETATM    1  C1  UNL     1     -21.564   3.209  -9.916  1.00  0.00     0.015 C
HETATM    2  C2  UNL     1     -21.858   2.119 -10.314  1.00  0.00    -0.074 C
HETATM    3  C3  UNL     1     -22.190   0.813 -10.796  1.00  0.00     0.174 C
HETATM    4  C4  UNL     1     -21.303   0.394 -11.936  1.00  0.00     0.066 C
ENDROOT
BRANCH   3   5
HETATM    5  O1  UNL     1     -23.463   0.956 -11.447  1.00  0.00    -0.372 OA
ATOM      6  H1  UNL     1     -23.923   0.141 -11.287  1.00  0.00     0.212 HD
ENDBRANCH   3   5
BRANCH   3   7
HETATM    7  C5  UNL     1     -22.429  -0.253  -9.798  1.00  0.00     0.225 C
HETATM    8  O2  UNL     1     -23.639  -0.043  -9.167  1.00  0.00    -0.349 OA
HETATM    9  C6  UNL     1     -23.471   0.430  -7.940  1.00  0.00     0.189 C
HETATM   10  C7  UNL     1     -22.148  -0.212  -7.478  1.00  0.00     0.095 C
HETATM   11  C15 UNL     1     -21.493  -0.602  -8.763  1.00  0.00     0.045 C
HETATM   12  C16 UNL     1     -20.107  -0.033  -8.860  1.00  0.00     0.023 C
HETATM   13  C17 UNL     1     -21.456  -2.109  -8.790  1.00  0.00     0.096 C
HETATM   14  C18 UNL     1     -20.168  -2.759  -8.429  1.00  0.00     0.021 C
HETATM   15  C19 UNL     1     -21.755  -2.402 -10.237  1.00  0.00     0.266 C
HETATM   16  O3  UNL     1     -21.239  -3.331 -10.913  1.00  0.00    -0.265 OA
HETATM   17  O4  UNL     1     -22.674  -1.447 -10.587  1.00  0.00    -0.278 OA
BRANCH  10  18
HETATM   18  C8  UNL     1     -21.881  -0.274  -6.291  1.00  0.00    -0.148 C
BRANCH  18  19
HETATM   19  C9  UNL     1     -21.567  -0.346  -4.899  1.00  0.00     0.048 C
HETATM   20  C10 UNL     1     -20.750  -1.302  -4.421  1.00  0.00    -0.011 C
BRANCH  20  21
HETATM   21  C11 UNL     1     -20.399  -1.409  -2.989  1.00  0.00    -0.033 C
HETATM   22  C12 UNL     1     -20.727  -2.828  -2.556  1.00  0.00     0.018 C
HETATM   23  C13 UNL     1     -18.917  -1.184  -2.741  1.00  0.00     0.018 C
HETATM   24  C14 UNL     1     -21.209  -0.452  -2.146  1.00  0.00     0.018 C
ENDBRANCH  20  21
ENDBRANCH  18  19
ENDBRANCH  10  18
ENDBRANCH   3   7
TORSDOF 5
ENDMDL