MODEL 1
REMARK VINA RESULT: -5.656059247      0.000      0.000
REMARK  4 active torsions:
REMARK  status: ('A' for Active; 'I' for Inactive)
REMARK    1  A    between atoms: C2_2  and  O2_4
REMARK    2  A    between atoms: O2_4  and  C3_5
REMARK    3  A    between atoms: C3_5  and  C4_6
REMARK    4  A    between atoms: C4_6  and  O3_7
ROOT
HETATM    1  C4  UNL     1     -26.849   6.751   3.786  1.00  0.00     0.115 C
HETATM    2  C5  UNL     1     -27.817   7.288   2.785  1.00  0.00     0.100 C
HETATM    3  N1  UNL     1     -28.414   6.356   1.923  1.00  0.00    -0.372 N
ATOM      4  H1  UNL     1     -28.422   6.680   0.956  1.00  0.00     0.164 HD
HETATM    5  C6  UNL     1     -28.940   5.226   2.044  1.00  0.00    -0.005 C
HETATM    6  C7  UNL     1     -29.439   4.657   0.732  1.00  0.00     0.053 C
HETATM    7  C8  UNL     1     -28.821   3.337   0.400  1.00  0.00     0.010 C
HETATM    8  C9  UNL     1     -28.258   2.726   1.638  1.00  0.00    -0.014 C
HETATM    9  C10 UNL     1     -28.142   1.236   1.443  1.00  0.00     0.010 C
HETATM   10  C11 UNL     1     -29.125   2.959   2.853  1.00  0.00    -0.001 C
HETATM   11  C12 UNL     1     -30.483   2.400   2.608  1.00  0.00     0.011 C
HETATM   12  C13 UNL     1     -29.120   4.423   3.275  1.00  0.00     0.003 C
HETATM   13  C14 UNL     1     -30.451   4.794   3.855  1.00  0.00     0.022 C
HETATM   14  C15 UNL     1     -27.978   4.557   4.229  1.00  0.00     0.011 C
HETATM   15  C16 UNL     1     -28.266   4.265   5.698  1.00  0.00    -0.013 C
HETATM   16  C17 UNL     1     -27.850   2.906   6.168  1.00  0.00     0.010 C
HETATM   17  C18 UNL     1     -27.172   5.339   5.936  1.00  0.00     0.013 C
HETATM   18  C19 UNL     1     -27.733   5.940   4.709  1.00  0.00     0.033 C
ENDROOT
BRANCH   1  19
HETATM   19  C3  UNL     1     -25.651   6.036   3.339  1.00  0.00     0.222 C
BRANCH  19  20
HETATM   20  O2  UNL     1     -25.699   5.115   2.334  1.00  0.00    -0.318 OA
BRANCH  20  21
HETATM   21  C2  UNL     1     -25.266   3.886   2.079  1.00  0.00     0.254 C
HETATM   22  C1  UNL     1     -24.861   2.896   3.162  1.00  0.00     0.126 C
HETATM   23  O1  UNL     1     -25.178   3.499   0.897  1.00  0.00    -0.266 OA
ENDBRANCH  20  21
ENDBRANCH  19  20
ENDBRANCH   1  19
BRANCH   1  24
HETATM   24  O3  UNL     1     -26.412   7.830   4.603  1.00  0.00    -0.382 OA
ATOM     25  H3  UNL     1     -27.029   7.905   5.322  1.00  0.00     0.211 HD
ENDBRANCH   1  24
TORSDOF 4
ENDMDL