MODEL 2
REMARK VINA RESULT: -5.879728240      1.012      1.259
REMARK  2 active torsions:
REMARK  status: ('A' for Active; 'I' for Inactive)
REMARK    1  A    between atoms: C2_2  and  C3_3
REMARK    2  A    between atoms: C11_12  and  O1_13
ROOT
HETATM    1  C3  UNL     1     -27.581   5.710   2.827  1.00  0.00     0.045 C
HETATM    2  C4  UNL     1     -28.757   5.390   2.036  1.00  0.00     0.012 C
HETATM    3  C5  UNL     1     -29.305   4.010   2.038  1.00  0.00     0.015 C
HETATM    4  C6  UNL     1     -28.479   2.823   2.063  1.00  0.00     0.011 C
HETATM    5  C7  UNL     1     -28.693   1.768   3.114  1.00  0.00     0.113 C
HETATM    6  N1  UNL     1     -30.086   1.951   3.331  1.00  0.00    -0.269 NA
HETATM    7  C8  UNL     1     -30.260   1.858   4.680  1.00  0.00     0.061 C
HETATM    8  C9  UNL     1     -30.003   3.039   5.542  1.00  0.00    -0.008 C
HETATM    9  C10 UNL     1     -28.641   3.563   5.798  1.00  0.00     0.095 C
HETATM   10  C11 UNL     1     -28.165   4.743   5.004  1.00  0.00     0.076 C
HETATM   11  C12 UNL     1     -27.228   4.689   3.903  1.00  0.00     0.081 C
HETATM   12  O2  UNL     1     -26.780   3.672   3.235  1.00  0.00    -0.341 OA
HETATM   13  C13 UNL     1     -27.000   2.953   2.220  1.00  0.00     0.073 C
HETATM   14  C14 UNL     1     -26.262   1.658   2.597  1.00  0.00     0.047 C
HETATM   15  C15 UNL     1     -26.677   3.050   0.790  1.00  0.00     0.040 C
HETATM   16  C16 UNL     1     -27.478   1.830   0.221  1.00  0.00     0.013 C
HETATM   17  C17 UNL     1     -28.788   2.055   0.759  1.00  0.00     0.028 C
HETATM   18  C18 UNL     1     -29.885   1.129   0.993  1.00  0.00    -0.068 C
HETATM   19  C19 UNL     1     -29.675  -0.319   0.595  1.00  0.00     0.044 C
HETATM   20  C20 UNL     1     -30.694   1.286   2.289  1.00  0.00     0.067 C
ENDROOT
BRANCH   1  21
HETATM   21  C2  UNL     1     -27.488   7.139   3.305  1.00  0.00     0.007 C
HETATM   22  C1  UNL     1     -27.860   8.105   2.161  1.00  0.00     0.006 C
ENDBRANCH   1  21
BRANCH  10  23
HETATM   23  O1  UNL     1     -29.363   5.483   4.766  1.00  0.00    -0.362 OA
ATOM     24  H1  UNL     1     -29.957   4.830   4.418  1.00  0.00     0.217 HD
ENDBRANCH  10  23
TORSDOF 2
ENDMDL