MODEL 1
REMARK VINA RESULT: -7.953040875      0.000      0.000
REMARK  3 active torsions:
REMARK  status: ('A' for Active; 'I' for Inactive)
REMARK    1  A    between atoms: C5_8  and  S1_9
REMARK    2  A    between atoms: S1_9  and  N2_12
REMARK    3  A    between atoms: N2_12  and  C6_14
ROOT
HETATM    1  N2  UNL     1     -20.949  -0.365  -5.439  1.00  0.00    -0.310 N
ATOM      2  H2  UNL     1     -20.288   0.413  -5.451  1.00  0.00     0.172 HD
ENDROOT
BRANCH   1   3
HETATM    3  S1  UNL     1     -21.110  -1.389  -4.117  1.00  0.00     0.263 S
HETATM    4  O2  UNL     1     -19.861  -2.238  -3.882  1.00  0.00    -0.200 OA
HETATM    5  O3  UNL     1     -22.178  -2.423  -4.471  1.00  0.00    -0.200 OA
BRANCH   3   6
HETATM    6  C5  UNL     1     -21.509  -0.609  -2.616  1.00  0.00     0.134 A
HETATM    7  C2  UNL     1     -22.295   0.546  -2.491  1.00  0.00     0.054 A
HETATM    8  C1  UNL     1     -22.916   1.242  -3.642  1.00  0.00     0.072 C
HETATM    9  N1  UNL     1     -22.346   0.847  -1.185  1.00  0.00    -0.264 N
HETATM   10  O1  UNL     1     -21.663  -0.020  -0.508  1.00  0.00    -0.241 OA
ATOM     11  H1  UNL     1     -22.848   1.640  -0.786  1.00  0.00     0.194 HD
HETATM   12  C3  UNL     1     -21.136  -0.924  -1.335  1.00  0.00     0.098 A
HETATM   13  C4  UNL     1     -20.300  -2.046  -0.892  1.00  0.00     0.081 C
ENDBRANCH   3   6
ENDBRANCH   1   3
BRANCH   1  14
HETATM   14  C6  UNL     1     -21.778  -0.652  -6.516  1.00  0.00     0.098 C
HETATM   15  C7  UNL     1     -22.306   0.549  -7.272  1.00  0.00     0.036 C
HETATM   16  C8  UNL     1     -22.524   0.094  -8.700  1.00  0.00    -0.035 C
HETATM   17  C9  UNL     1     -23.903   0.406  -9.172  1.00  0.00     0.016 C
HETATM   18  C10 UNL     1     -21.464   0.677  -9.616  1.00  0.00     0.010 C
HETATM   19  C14 UNL     1     -22.226  -1.392  -8.658  1.00  0.00    -0.035 C
HETATM   20  C11 UNL     1     -20.134   0.556  -8.974  1.00  0.00     0.001 C
HETATM   21  C12 UNL     1     -19.903  -0.623  -8.125  1.00  0.00     0.007 C
HETATM   22  C13 UNL     1     -21.070  -1.392  -7.667  1.00  0.00     0.017 C
HETATM   23  C15 UNL     1     -21.778  -1.937  -9.978  1.00  0.00     0.016 C
HETATM   24  C16 UNL     1     -23.408  -2.143  -8.168  1.00  0.00     0.016 C
ENDBRANCH   1  14
TORSDOF 3
ENDMDL