MODEL 4
REMARK VINA RESULT: -5.721926778      2.604      5.415
REMARK  3 active torsions:
REMARK  status: ('A' for Active; 'I' for Inactive)
REMARK    1  A    between atoms: C2_2  and  C4_4
REMARK    2  A    between atoms: C15_16  and  C16_17
REMARK    3  A    between atoms: C16_17  and  O2_18
ROOT
HETATM    1  C4  UNL     1     -27.067   3.778   2.341  1.00  0.00     0.062 C
HETATM    2  C5  UNL     1     -27.295   2.668   1.687  1.00  0.00     0.021 C
HETATM    3  C6  UNL     1     -28.539   1.982   1.094  1.00  0.00     0.061 C
HETATM    4  C7  UNL     1     -29.626   2.042   2.085  1.00  0.00     0.006 A
HETATM    5  C8  UNL     1     -30.708   1.157   2.413  1.00  0.00     0.015 A
HETATM    6  C9  UNL     1     -29.512   1.435   3.385  1.00  0.00    -0.039 A
HETATM    7  C10 UNL     1     -29.947   2.170   4.673  1.00  0.00     0.015 C
HETATM    8  C11 UNL     1     -28.697   0.232   3.628  1.00  0.00     0.019 C
HETATM    9  C12 UNL     1     -27.235   0.413   3.608  1.00  0.00     0.054 A
HETATM   10  C13 UNL     1     -26.349  -0.763   3.315  1.00  0.00     0.079 A
HETATM   11  C14 UNL     1     -26.653   0.368   2.284  1.00  0.00     0.173 A
HETATM   12  O1  UNL     1     -25.500   1.138   2.071  1.00  0.00    -0.312 OA
HETATM   13  C15 UNL     1     -25.902   2.379   1.594  1.00  0.00     0.221 C
HETATM   14  O3  UNL     1     -25.726   3.476   2.464  1.00  0.00    -0.311 OA
HETATM   15  O4  UNL     1     -27.310  -0.074   1.220  1.00  0.00    -0.344 OA
HETATM   16  C17 UNL     1     -28.168   0.683   0.500  1.00  0.00     0.065 C
HETATM   17  C18 UNL     1     -29.404  -0.156   0.113  1.00  0.00     0.046 C
HETATM   18  C19 UNL     1     -27.548   0.962  -0.882  1.00  0.00     0.046 C
ENDROOT
BRANCH   1  19
HETATM   19  C2  UNL     1     -27.759   5.010   2.891  1.00  0.00     0.035 C
HETATM   20  C1  UNL     1     -28.795   5.480   1.845  1.00  0.00     0.016 C
HETATM   21  C3  UNL     1     -26.757   6.095   3.107  1.00  0.00     0.016 C
ENDBRANCH   1  19
BRANCH  13  22
HETATM   22  C16 UNL     1     -25.033   2.739   0.403  1.00  0.00     0.238 C
BRANCH  22  23
HETATM   23  O2  UNL     1     -23.974   1.917   0.180  1.00  0.00    -0.395 OA
ATOM     24  H2  UNL     1     -24.037   1.053   0.569  1.00  0.00     0.209 HD
ENDBRANCH  22  23
ENDBRANCH  13  22
TORSDOF 3
ENDMDL