MODEL 4
REMARK VINA RESULT: -6.161388830      3.356      4.926
REMARK  4 active torsions:
REMARK  status: ('A' for Active; 'I' for Inactive)
REMARK    1  A    between atoms: C1_2  and  C2_4
REMARK    2  A    between atoms: C2_4  and  O2_5
REMARK    3  A    between atoms: O2_5  and  C3_6
REMARK    4  A    between atoms: C3_6  and  C4_8
ROOT
HETATM    1  C4  UNL     1      10.742 -14.092  -5.433  1.00  0.00     0.057 C
HETATM    2  C5  UNL     1      12.049 -13.305  -5.596  1.00  0.00     0.025 C
HETATM    3  C6  UNL     1      11.771 -11.950  -6.149  1.00  0.00    -0.013 C
HETATM    4  C7  UNL     1      10.821 -11.139  -5.322  1.00  0.00     0.009 C
HETATM    5  C8  UNL     1       9.517 -11.911  -5.171  1.00  0.00    -0.013 C
HETATM    6  C9  UNL     1       8.909 -12.099  -6.545  1.00  0.00     0.010 C
HETATM    7  C10 UNL     1       9.868 -12.914  -7.370  1.00  0.00    -0.004 C
HETATM    8  C11 UNL     1      11.136 -12.127  -7.522  1.00  0.00     0.010 C
HETATM    9  C12 UNL     1      10.137 -14.280  -6.797  1.00  0.00    -0.016 C
HETATM   10  C13 UNL     1       8.832 -15.039  -6.663  1.00  0.00     0.037 C
HETATM   11  C14 UNL     1       8.230 -15.325  -8.022  1.00  0.00     0.168 C
HETATM   12  O4  UNL     1       9.099 -16.014  -8.831  1.00  0.00    -0.391 OA
HETATM   13  C15 UNL     1      10.311 -16.312  -8.251  1.00  0.00     0.168 C
HETATM   14  C16 UNL     1      10.996 -15.029  -7.761  1.00  0.00     0.037 C
HETATM   15  C17 UNL     1       9.841 -13.246  -4.598  1.00  0.00     0.025 C
ENDROOT
BRANCH   1  16
HETATM   16  C3  UNL     1      11.002 -15.363  -4.724  1.00  0.00     0.268 C
HETATM   17  O3  UNL     1      12.152 -15.864  -4.738  1.00  0.00    -0.264 OA
BRANCH  16  18
HETATM   18  O2  UNL     1      10.039 -16.068  -4.018  1.00  0.00    -0.312 OA
BRANCH  18  19
HETATM   19  C2  UNL     1      10.405 -16.988  -2.978  1.00  0.00     0.278 C
BRANCH  19  20
HETATM   20  C1  UNL     1      10.275 -16.373  -1.654  1.00  0.00     0.255 C
HETATM   21  N1  UNL     1       9.645 -15.118  -1.508  1.00  0.00    -0.060 NA
HETATM   22  O1  UNL     1      10.725 -16.965  -0.651  1.00  0.00    -0.274 OA
ENDBRANCH  19  20
ENDBRANCH  18  19
ENDBRANCH  16  18
ENDBRANCH   1  16
TORSDOF 4
ENDMDL