MODEL 5
REMARK VINA RESULT: -5.231051791      2.836      6.326
REMARK  3 active torsions:
REMARK  status: ('A' for Active; 'I' for Inactive)
REMARK    1  A    between atoms: C2_2  and  C4_4
REMARK    2  A    between atoms: N1_5  and  C5_6
REMARK    3  A    between atoms: C14_16  and  C16_18
ROOT
HETATM    1  C4  UNL     1      11.759 -15.254  -6.462  1.00  0.00     0.261 C
HETATM    2  N1  UNL     1      12.712 -15.244  -5.333  1.00  0.00     0.101 N
HETATM    3  C10 UNL     1      13.325 -13.962  -5.344  1.00  0.00     0.276 C
HETATM    4  C11 UNL     1      12.574 -13.119  -6.353  1.00  0.00     0.071 C
HETATM    5  C12 UNL     1      11.225 -13.895  -6.409  1.00  0.00     0.099 C
HETATM    6  C13 UNL     1      10.304 -13.338  -7.422  1.00  0.00     0.089 C
HETATM    7  C14 UNL     1       9.520 -12.826  -6.236  1.00  0.00     0.149 C
HETATM    8  C15 UNL     1       8.058 -13.312  -6.225  1.00  0.00     0.058 C
HETATM    9  O4  UNL     1      10.355 -13.528  -5.416  1.00  0.00    -0.356 OA
ENDROOT
BRANCH   1  10
HETATM   10  C2  UNL     1      10.909 -16.444  -6.424  1.00  0.00     0.014 C
HETATM   11  C1  UNL     1      10.135 -16.710  -7.673  1.00  0.00     0.012 C
HETATM   12  C3  UNL     1       9.987 -16.558  -5.243  1.00  0.00     0.012 C
ENDBRANCH   1  10
BRANCH   2  13
HETATM   13  C5  UNL     1      13.628 -16.345  -5.387  1.00  0.00     0.227 C
HETATM   14  C6  UNL     1      14.522 -16.229  -4.147  1.00  0.00     0.062 C
HETATM   15  C7  UNL     1      15.431 -17.441  -4.170  1.00  0.00     0.169 C
HETATM   16  O1  UNL     1      16.308 -17.232  -5.260  1.00  0.00    -0.391 OA
HETATM   17  C8  UNL     1      15.589 -17.402  -6.414  1.00  0.00     0.169 C
HETATM   18  C9  UNL     1      14.486 -16.382  -6.601  1.00  0.00     0.062 C
ENDBRANCH   2  13
BRANCH   7  19
HETATM   19  C16 UNL     1       9.481 -11.365  -6.148  1.00  0.00     0.209 C
HETATM   20  O2  UNL     1       8.522 -10.873  -5.461  1.00  0.00    -0.646 OA
HETATM   21  O3  UNL     1      10.348 -10.477  -6.711  1.00  0.00    -0.646 OA
ENDBRANCH   7  19
TORSDOF 3
ENDMDL