MODEL 1
REMARK VINA RESULT: -7.193188089      0.000      0.000
REMARK  3 active torsions:
REMARK  status: ('A' for Active; 'I' for Inactive)
REMARK    1  A    between atoms: C2_2  and  N1_4
REMARK    2  A    between atoms: N2_11  and  C9_12
REMARK    3  A    between atoms: C14_17  and  O2_18
ROOT
HETATM    1  N1  UNL     1       9.632  -9.994  -5.158  1.00  0.00     0.118 N
HETATM    2  C4  UNL     1       9.301 -10.476  -6.469  1.00  0.00     0.441 C
HETATM    3  O1  UNL     1       9.556 -11.832  -6.452  1.00  0.00    -0.349 OA
HETATM    4  C5  UNL     1      10.456 -12.095  -5.431  1.00  0.00     0.091 C
HETATM    5  C6  UNL     1      11.679 -12.705  -6.052  1.00  0.00     0.042 C
HETATM    6  C7  UNL     1      11.185 -13.714  -7.083  1.00  0.00     0.033 C
HETATM    7  C8  UNL     1      10.475 -14.802  -6.294  1.00  0.00     0.273 C
HETATM    8  N2  UNL     1      11.166 -14.913  -5.038  1.00  0.00     0.095 N
HETATM    9  C15 UNL     1      10.592 -14.147  -3.974  1.00  0.00     0.276 C
HETATM   10  C16 UNL     1       9.780 -12.971  -4.418  1.00  0.00     0.070 C
HETATM   11  C17 UNL     1      10.826 -10.733  -4.853  1.00  0.00     0.313 C
ENDROOT
BRANCH   8  12
HETATM   12  C9  UNL     1      11.497 -16.270  -4.675  1.00  0.00     0.251 C
HETATM   13  C10 UNL     1      12.968 -16.376  -4.584  1.00  0.00     0.038 C
HETATM   14  C11 UNL     1      13.515 -17.282  -3.537  1.00  0.00     0.002 C
HETATM   15  C12 UNL     1      12.488 -18.337  -3.148  1.00  0.00     0.003 C
HETATM   16  C13 UNL     1      11.379 -17.536  -2.492  1.00  0.00     0.034 C
HETATM   17  C14 UNL     1      10.706 -16.626  -3.471  1.00  0.00     0.151 C
BRANCH  17  18
HETATM   18  O2  UNL     1       9.523 -17.283  -3.857  1.00  0.00    -0.393 OA
ATOM     19  H2  UNL     1       8.966 -16.683  -4.339  1.00  0.00     0.210 HD
ENDBRANCH  17  18
ENDBRANCH   8  12
BRANCH   1  20
HETATM   20  C2  UNL     1       9.757  -8.577  -5.051  1.00  0.00     0.217 C
HETATM   21  C1  UNL     1       9.331  -7.977  -6.385  1.00  0.00     0.042 C
HETATM   22  C3  UNL     1      11.139  -8.085  -4.746  1.00  0.00     0.042 C
ENDBRANCH   1  20
TORSDOF 3
ENDMDL