MODEL 2
REMARK VINA RESULT: -6.075707871      0.836      2.174
REMARK  7 active torsions:
REMARK  status: ('A' for Active; 'I' for Inactive)
REMARK    1  A    between atoms: C3_3  and  C4_4
REMARK    2  A    between atoms: C13_13  and  O1_14
REMARK    3  A    between atoms: C13_13  and  C14_16
REMARK    4  A    between atoms: C14_16  and  C15_17
REMARK    5  A    between atoms: C14_16  and  C17_20
REMARK    6  A    between atoms: C15_17  and  O2_18
REMARK    7  A    between atoms: C17_20  and  O4_22
ROOT
HETATM    1  C1  UNL     1      10.840  -7.682  -4.123  1.00  0.00     0.112 C
HETATM    2  C2  UNL     1      10.623  -8.901  -4.931  1.00  0.00    -0.111 C
HETATM    3  C3  UNL     1      10.470  -9.890  -5.589  1.00  0.00    -0.101 C
ENDROOT
BRANCH   3   4
HETATM    4  C4  UNL     1      10.310 -11.080  -6.384  1.00  0.00     0.073 C
HETATM    5  C5  UNL     1       9.137 -11.929  -5.957  1.00  0.00     0.002 C
HETATM    6  C6  UNL     1       8.994 -13.003  -7.035  1.00  0.00     0.014 C
HETATM    7  C12 UNL     1       9.414 -12.560  -4.635  1.00  0.00     0.014 C
HETATM    8  C7  UNL     1      10.159 -13.922  -7.028  1.00  0.00     0.026 C
HETATM    9  C8  UNL     1      11.339 -13.002  -7.459  1.00  0.00     0.014 C
HETATM   10  C13 UNL     1      10.597 -14.521  -5.754  1.00  0.00     0.096 C
HETATM   11  C9  UNL     1      11.543 -11.976  -6.369  1.00  0.00     0.002 C
HETATM   12  C10 UNL     1      11.780 -12.559  -5.006  1.00  0.00     0.014 C
HETATM   13  C11 UNL     1      10.600 -13.492  -4.665  1.00  0.00     0.026 C
BRANCH  10  14
HETATM   14  O1  UNL     1      12.012 -14.761  -5.968  1.00  0.00    -0.384 OA
ATOM     15  H1  UNL     1      12.020 -15.382  -6.687  1.00  0.00     0.211 HD
ENDBRANCH  10  14
BRANCH  10  16
HETATM   16  C14 UNL     1      10.160 -15.875  -5.390  1.00  0.00     0.053 C
BRANCH  16  17
HETATM   17  C15 UNL     1      10.647 -16.567  -4.200  1.00  0.00     0.210 C
BRANCH  17  18
HETATM   18  O2  UNL     1       9.769 -16.619  -3.134  1.00  0.00    -0.391 OA
HETATM   19  C16 UNL     1      10.360 -16.933  -1.940  1.00  0.00     0.201 C
ENDBRANCH  17  18
ENDBRANCH  16  17
BRANCH  16  20
HETATM   20  C17 UNL     1      10.087 -16.762  -6.605  1.00  0.00     0.290 C
HETATM   21  O3  UNL     1      11.100 -17.216  -7.187  1.00  0.00    -0.260 OA
BRANCH  20  22
HETATM   22  O4  UNL     1       8.857 -17.120  -7.141  1.00  0.00    -0.323 OA
HETATM   23  C18 UNL     1       7.634 -16.663  -6.591  1.00  0.00     0.213 C
ENDBRANCH  20  22
ENDBRANCH  16  20
ENDBRANCH  10  16
ENDBRANCH   3   4
TORSDOF 7
ENDMDL