MODEL 3
REMARK VINA RESULT: -6.954012166      2.151      7.007
REMARK  6 active torsions:
REMARK  status: ('A' for Active; 'I' for Inactive)
REMARK    1  A    between atoms: N1_5  and  C5_6
REMARK    2  A    between atoms: C5_6  and  O1_7
REMARK    3  A    between atoms: C5_6  and  C6_9
REMARK    4  A    between atoms: C6_9  and  O2_12
REMARK    5  A    between atoms: O2_12  and  C9_13
REMARK    6  A    between atoms: C15_19  and  O3_20
ROOT
HETATM    1  C6  UNL     1      11.463  -7.467  -4.405  1.00  0.00     0.118 C
HETATM    2  C7  UNL     1      12.357  -8.018  -5.565  1.00  0.00     0.055 C
HETATM    3  C8  UNL     1      10.603  -6.437  -5.181  1.00  0.00     0.055 C
ENDROOT
BRANCH   1   4
HETATM    4  C5  UNL     1      10.525  -8.553  -4.141  1.00  0.00     0.148 C
BRANCH   4   5
HETATM    5  N1  UNL     1      10.187  -9.665  -4.941  1.00  0.00    -0.363 N
HETATM    6  C4  UNL     1      10.914 -10.888  -5.079  1.00  0.00     0.125 C
HETATM    7  C3  UNL     1      10.016 -12.107  -5.026  1.00  0.00     0.024 C
HETATM    8  C2  UNL     1       8.841 -12.046  -5.945  1.00  0.00    -0.015 C
HETATM    9  C1  UNL     1       8.879 -13.220  -6.934  1.00  0.00     0.010 C
HETATM   10  C18 UNL     1       8.887 -10.741  -6.711  1.00  0.00     0.024 C
HETATM   11  C17 UNL     1       8.940  -9.612  -5.721  1.00  0.00     0.125 C
ENDBRANCH   4   5
BRANCH   4  12
HETATM   12  O1  UNL     1       9.875  -8.569  -3.005  1.00  0.00    -0.347 OA
ATOM     13  H1  UNL     1       9.790  -9.453  -2.669  1.00  0.00     0.219 HD
ENDBRANCH   4  12
ENDBRANCH   1   4
BRANCH   1  14
HETATM   14  O2  UNL     1      12.133  -6.979  -3.416  1.00  0.00    -0.367 OA
BRANCH  14  15
HETATM   15  C9  UNL     1      11.797  -6.081  -2.487  1.00  0.00     0.126 C
HETATM   16  C10 UNL     1      11.764  -6.605  -1.075  1.00  0.00     0.033 C
HETATM   17  C11 UNL     1      12.446  -7.910  -0.756  1.00  0.00     0.014 C
HETATM   18  C12 UNL     1      14.017  -7.650  -0.529  1.00  0.00     0.094 C
HETATM   19  C13 UNL     1      14.184  -6.438  -1.249  1.00  0.00    -0.104 C
HETATM   20  C14 UNL     1      14.104  -5.547  -1.816  1.00  0.00    -0.075 C
HETATM   21  C15 UNL     1      13.719  -4.410  -2.576  1.00  0.00     0.199 C
HETATM   22  C16 UNL     1      12.126  -4.616  -2.655  1.00  0.00     0.076 C
BRANCH  21  23
HETATM   23  O3  UNL     1      14.008  -3.242  -1.957  1.00  0.00    -0.383 OA
ATOM     24  H3  UNL     1      14.609  -2.700  -2.454  1.00  0.00     0.211 HD
ENDBRANCH  21  23
ENDBRANCH  14  15
ENDBRANCH   1  14
TORSDOF 6
ENDMDL