MODEL 5
REMARK VINA RESULT: -4.718553421      2.836      5.264
REMARK  4 active torsions:
REMARK  status: ('A' for Active; 'I' for Inactive)
REMARK    1  A    between atoms: C2_2  and  N1_4
REMARK    2  A    between atoms: C6_9  and  C7_10
REMARK    3  A    between atoms: C7_10  and  N2_11
REMARK       I    between atoms: N3_15  and  C11_16
REMARK    4  A    between atoms: C11_16  and  C12_18
ROOT
HETATM    1  N1  UNL     1      10.218 -10.939  -6.492  1.00  0.00    -0.367 N
ATOM      2  H1  UNL     1      10.552 -10.649  -7.410  1.00  0.00     0.162 HD
HETATM    3  C4  UNL     1      10.191 -12.177  -6.253  1.00  0.00     0.145 C
HETATM    4  S1  UNL     1       9.648 -12.918  -4.718  1.00  0.00    -0.092 SA
HETATM    5  C5  UNL     1      10.098 -14.639  -5.220  1.00  0.00     0.110 C
HETATM    6  C6  UNL     1       9.929 -14.468  -6.719  1.00  0.00     0.133 C
HETATM    7  N3  UNL     1      10.567 -13.236  -7.100  1.00  0.00    -0.290 N
HETATM    8  C11 UNL     1      11.451 -13.124  -8.191  1.00  0.00     0.234 C
HETATM    9  O1  UNL     1      11.932 -11.948  -8.417  1.00  0.00    -0.272 OA
ENDROOT
BRANCH   6  10
HETATM   10  C7  UNL     1       8.410 -14.288  -6.897  1.00  0.00     0.298 C
BRANCH  10  11
HETATM   11  N2  UNL     1       7.929 -15.498  -7.490  1.00  0.00     0.090 N
HETATM   12  C8  UNL     1       7.093 -15.298  -8.685  1.00  0.00     0.274 C
HETATM   13  C9  UNL     1       6.413 -16.615  -8.285  1.00  0.00     0.060 C
HETATM   14  C10 UNL     1       6.740 -16.084  -6.880  1.00  0.00     0.274 C
ENDBRANCH  10  11
ENDBRANCH   6  10
BRANCH   8  15
HETATM   15  C12 UNL     1      11.879 -14.222  -9.096  1.00  0.00     0.030 C
HETATM   16  C13 UNL     1      10.771 -14.933  -9.789  1.00  0.00     0.025 C
HETATM   17  C14 UNL     1      12.687 -15.261  -8.323  1.00  0.00     0.025 C
HETATM   18  C15 UNL     1      12.820 -13.658 -10.126  1.00  0.00     0.025 C
ENDBRANCH   8  15
BRANCH   1  19
HETATM   19  C2  UNL     1       9.818  -9.901  -5.579  1.00  0.00     0.075 C
HETATM   20  C1  UNL     1       8.837  -8.930  -6.162  1.00  0.00     0.032 C
HETATM   21  C3  UNL     1      11.022  -9.142  -5.070  1.00  0.00     0.032 C
ENDBRANCH   1  19
TORSDOF 4
ENDMDL