MODEL 4
REMARK VINA RESULT: -7.681083976      4.370      8.442
REMARK  3 active torsions:
REMARK  status: ('A' for Active; 'I' for Inactive)
REMARK    1  A    between atoms: C2_2  and  C3_3
REMARK    2  A    between atoms: N1_6  and  C6_7
REMARK    3  A    between atoms: C6_7  and  C7_8
ROOT
HETATM    1  C3  UNL     1      11.163 -13.812  -4.565  1.00  0.00     0.017 C
HETATM    2  C4  UNL     1       9.687 -13.425  -4.767  1.00  0.00     0.039 C
HETATM    3  C5  UNL     1       9.524 -11.939  -4.894  1.00  0.00     0.273 C
HETATM    4  N1  UNL     1      10.190 -11.408  -6.068  1.00  0.00     0.090 N
HETATM    5  C11 UNL     1      11.066 -12.409  -6.569  1.00  0.00     0.273 C
HETATM    6  C12 UNL     1      11.966 -13.030  -5.525  1.00  0.00     0.039 C
ENDROOT
BRANCH   1   7
HETATM    7  C2  UNL     1      11.288 -15.284  -4.666  1.00  0.00    -0.079 C
HETATM    8  C1  UNL     1      10.186 -15.974  -4.928  1.00  0.00    -0.017 C
HETATM    9  C17 UNL     1      10.120 -17.456  -5.066  1.00  0.00     0.026 C
HETATM   10  C16 UNL     1       9.474 -18.008  -3.827  1.00  0.00     0.122 C
HETATM   11  C18 UNL     1      11.513 -18.071  -5.107  1.00  0.00     0.016 C
HETATM   12  N2  UNL     1      10.284 -18.026  -2.670  1.00  0.00    -0.420 N
HETATM   13  C15 UNL     1      11.500 -17.279  -2.727  1.00  0.00     0.118 C
ATOM     14  H2  UNL     1      10.014 -18.547  -1.836  1.00  0.00     0.153 HD
HETATM   15  C14 UNL     1      12.270 -17.389  -3.988  1.00  0.00     0.007 C
HETATM   16  C13 UNL     1      12.582 -15.996  -4.487  1.00  0.00     0.040 C
ENDBRANCH   1   7
BRANCH   4  17
HETATM   17  C6  UNL     1      10.786 -10.167  -5.724  1.00  0.00     0.304 C
BRANCH  17  18
HETATM   18  C7  UNL     1       9.887  -9.215  -4.991  1.00  0.00     0.154 C
HETATM   19  C8  UNL     1      10.608  -8.340  -4.019  1.00  0.00     0.060 C
HETATM   20  C9  UNL     1      11.312  -7.175  -4.634  1.00  0.00     0.173 C
HETATM   21  O1  UNL     1      10.364  -6.480  -5.420  1.00  0.00    -0.367 OA
HETATM   22  C10 UNL     1       9.997  -7.400  -6.428  1.00  0.00     0.338 C
HETATM   23  O2  UNL     1       9.232  -8.423  -5.929  1.00  0.00    -0.360 OA
ENDBRANCH  17  18
ENDBRANCH   4  17
TORSDOF 3
ENDMDL