MODEL 3
REMARK VINA RESULT: -6.457900649      1.457      2.224
REMARK  4 active torsions:
REMARK  status: ('A' for Active; 'I' for Inactive)
REMARK    1  A    between atoms: C2_2  and  C4_4
REMARK    2  A    between atoms: C4_4  and  C5_5
REMARK    3  A    between atoms: C5_5  and  N1_6
REMARK    4  A    between atoms: C14_15  and  C15_16
ROOT
HETATM    1  C15 UNL     1      11.864 -12.570  -6.715  1.00  0.00     0.168 C
HETATM    2  C16 UNL     1      12.340 -12.330  -8.150  1.00  0.00     0.062 C
HETATM    3  N2  UNL     1      12.700 -12.165  -9.261  1.00  0.00    -0.197 NA
ENDROOT
BRANCH   1   4
HETATM    4  C14 UNL     1      10.674 -13.318  -6.832  1.00  0.00     0.115 C
HETATM    5  C13 UNL     1       9.570 -13.937  -6.086  1.00  0.00    -0.039 C
HETATM    6  C7  UNL     1       9.930 -13.646  -4.674  1.00  0.00     0.066 C
HETATM    7  C12 UNL     1       8.981 -15.178  -6.527  1.00  0.00    -0.020 C
HETATM    8  C6  UNL     1      10.039 -12.144  -4.797  1.00  0.00     0.133 C
HETATM    9  C8  UNL     1      11.036 -14.526  -4.379  1.00  0.00     0.199 C
HETATM   10  N1  UNL     1       9.658 -11.535  -6.018  1.00  0.00    -0.389 N
HETATM   11  C17 UNL     1       9.845 -12.192  -7.338  1.00  0.00     0.165 C
HETATM   12  C9  UNL     1      10.482 -15.966  -4.534  1.00  0.00     0.043 C
HETATM   13  N3  UNL     1      12.102 -14.747  -5.248  1.00  0.00    -0.043 N
HETATM   14  C10 UNL     1      10.910 -16.400  -5.946  1.00  0.00     0.048 C
HETATM   15  C11 UNL     1       9.730 -16.415  -6.813  1.00  0.00     0.036 C
HETATM   16  C18 UNL     1      11.733 -15.220  -6.496  1.00  0.00     0.326 C
HETATM   17  O1  UNL     1      11.094 -14.450  -7.446  1.00  0.00    -0.340 OA
ATOM     18  H32 UNL     1      12.666 -13.903  -5.340  1.00  0.00     0.280 HD
ATOM     19  H31 UNL     1      12.787 -15.369  -4.820  1.00  0.00     0.280 HD
BRANCH  10  20
HETATM   20  C5  UNL     1       9.033 -10.301  -6.033  1.00  0.00     0.058 C
BRANCH  20  21
HETATM   21  C4  UNL     1       9.394  -9.398  -4.899  1.00  0.00     0.048 C
BRANCH  21  22
HETATM   22  C2  UNL     1      10.546  -8.468  -5.193  1.00  0.00    -0.018 C
HETATM   23  C1  UNL     1      10.998  -7.929  -3.849  1.00  0.00     0.010 C
HETATM   24  C3  UNL     1      10.037  -7.252  -5.980  1.00  0.00     0.010 C
ENDBRANCH  21  22
ENDBRANCH  20  21
ENDBRANCH  10  20
ENDBRANCH   1   4
TORSDOF 4
ENDMDL