MODEL 4
REMARK VINA RESULT: -5.786445453      0.904      1.060
REMARK  5 active torsions:
REMARK  status: ('A' for Active; 'I' for Inactive)
REMARK    1  A    between atoms: C2_2  and  O1_3
REMARK    2  A    between atoms: O1_3  and  C3_4
REMARK    3  A    between atoms: C3_4  and  C4_6
REMARK    4  A    between atoms: C6_8  and  O3_9
REMARK    5  A    between atoms: C10_14  and  C11_15
ROOT
HETATM    1  C4  UNL     1      11.242 -11.482  -5.865  1.00  0.00     0.093 C
HETATM    2  C5  UNL     1      11.429 -12.471  -4.717  1.00  0.00     0.047 C
HETATM    3  C6  UNL     1      12.412 -13.521  -5.254  1.00  0.00     0.125 C
HETATM    4  C7  UNL     1      12.777 -13.150  -6.622  1.00  0.00     0.053 C
HETATM    5  C8  UNL     1      11.835 -12.015  -7.060  1.00  0.00     0.013 C
HETATM    6  C9  UNL     1      11.038 -12.679  -8.139  1.00  0.00     0.003 C
HETATM    7  C10 UNL     1      10.070 -13.708  -7.702  1.00  0.00     0.018 C
HETATM    8  C13 UNL     1      10.543 -15.131  -7.813  1.00  0.00     0.278 C
HETATM    9  N1  UNL     1      11.958 -15.287  -7.625  1.00  0.00     0.094 N
HETATM   10  C14 UNL     1      12.392 -16.177  -8.718  1.00  0.00     0.273 C
HETATM   11  C15 UNL     1      12.494 -15.497 -10.024  1.00  0.00     0.031 C
HETATM   12  C16 UNL     1      11.955 -14.082 -10.075  1.00  0.00     0.009 C
HETATM   13  C17 UNL     1      12.236 -13.301  -8.878  1.00  0.00     0.024 C
HETATM   14  C18 UNL     1      12.753 -14.142  -7.696  1.00  0.00     0.234 C
ENDROOT
BRANCH   1  15
HETATM   15  C3  UNL     1       9.882 -10.940  -5.905  1.00  0.00     0.263 C
HETATM   16  O2  UNL     1       9.029 -11.438  -5.125  1.00  0.00    -0.265 OA
BRANCH  15  17
HETATM   17  O1  UNL     1       9.508  -9.933  -6.739  1.00  0.00    -0.322 OA
BRANCH  17  18
HETATM   18  C2  UNL     1       8.944  -8.731  -6.189  1.00  0.00     0.174 C
HETATM   19  C1  UNL     1      10.054  -7.771  -5.870  1.00  0.00     0.034 C
ENDBRANCH  17  18
ENDBRANCH  15  17
ENDBRANCH   1  15
BRANCH   3  20
HETATM   20  O3  UNL     1      11.937 -14.808  -5.065  1.00  0.00    -0.395 OA
ATOM     21  H3  UNL     1      12.529 -15.455  -5.429  1.00  0.00     0.210 HD
ENDBRANCH   3  20
BRANCH   7  22
HETATM   22  C11 UNL     1       8.703 -13.583  -8.394  1.00  0.00     0.002 C
HETATM   23  C12 UNL     1       8.463 -14.863  -9.170  1.00  0.00     0.005 C
ENDBRANCH   7  22
TORSDOF 5
ENDMDL