MODEL 4
REMARK VINA RESULT: -5.119425920      2.541      3.852
REMARK  4 active torsions:
REMARK  status: ('A' for Active; 'I' for Inactive)
REMARK    1  A    between atoms: C2_2  and  C3_3
REMARK    2  A    between atoms: C6_6  and  C7_7
REMARK       I    between atoms: C7_7  and  N1_9
REMARK    3  A    between atoms: C10_12  and  O2_14
REMARK       I    between atoms: N2_18  and  C14_19
REMARK    4  A    between atoms: C14_19  and  O4_21
ROOT
HETATM    1  C3  UNL     1       9.511 -11.075  -6.467  1.00  0.00     0.003 C
HETATM    2  C4  UNL     1       9.248 -12.012  -5.312  1.00  0.00     0.009 C
HETATM    3  C5  UNL     1      10.481 -12.103  -4.475  1.00  0.00     0.035 C
HETATM    4  C6  UNL     1      11.500 -12.913  -5.284  1.00  0.00     0.181 C
HETATM    5  N2  UNL     1      11.758 -12.114  -6.462  1.00  0.00    -0.314 N
HETATM    6  C14 UNL     1      12.734 -12.447  -7.439  1.00  0.00     0.363 C
HETATM    7  O3  UNL     1      13.452 -13.497  -7.326  1.00  0.00    -0.238 OA
HETATM    8  C16 UNL     1      10.979 -10.912  -6.649  1.00  0.00     0.133 C
ENDROOT
BRANCH   4   9
HETATM    9  C7  UNL     1      10.870 -14.206  -5.610  1.00  0.00     0.242 C
HETATM   10  O1  UNL     1      10.649 -14.435  -6.848  1.00  0.00    -0.271 OA
HETATM   11  N1  UNL     1      10.498 -15.194  -4.703  1.00  0.00    -0.350 N
HETATM   12  C8  UNL     1      10.679 -15.091  -3.263  1.00  0.00     0.129 C
HETATM   13  C13 UNL     1       9.883 -16.460  -5.134  1.00  0.00     0.129 C
HETATM   14  C9  UNL     1      10.834 -16.465  -2.657  1.00  0.00     0.057 C
HETATM   15  C10 UNL     1      11.464 -17.463  -3.562  1.00  0.00     0.057 C
HETATM   16  C11 UNL     1      11.209 -18.837  -2.916  1.00  0.00     0.046 C
HETATM   17  C12 UNL     1      10.959 -17.509  -4.958  1.00  0.00     0.057 C
BRANCH  15  18
HETATM   18  O2  UNL     1      12.866 -17.326  -3.598  1.00  0.00    -0.390 OA
ATOM     19  H2  UNL     1      13.281 -18.053  -4.047  1.00  0.00     0.210 HD
ENDBRANCH  15  18
ENDBRANCH   4   9
BRANCH   6  20
HETATM   20  O4  UNL     1      12.973 -11.677  -8.561  1.00  0.00    -0.309 OA
HETATM   21  C15 UNL     1      13.054 -12.227  -9.874  1.00  0.00     0.215 C
ENDBRANCH   6  20
BRANCH   1  22
HETATM   22  C2  UNL     1       8.921  -9.717  -6.061  1.00  0.00     0.002 C
HETATM   23  C1  UNL     1       9.989  -8.698  -5.835  1.00  0.00     0.005 C
ENDBRANCH   1  22
TORSDOF 4
ENDMDL