MODEL 5
REMARK VINA RESULT: -6.571279145      2.858      5.568
REMARK  3 active torsions:
REMARK  status: ('A' for Active; 'I' for Inactive)
REMARK    1  A    between atoms: C4_4  and  C5_5
REMARK    2  A    between atoms: C5_5  and  N1_6
REMARK    3  A    between atoms: C8_10  and  N2_11
ROOT
HETATM    1  N1  UNL     1      15.189 -31.169   3.206  1.00  0.00    -0.328 N
HETATM    2  C6  UNL     1      15.750 -30.651   2.155  1.00  0.00     0.027 A
HETATM    3  C7  UNL     1      15.629 -31.307   0.959  1.00  0.00     0.009 A
HETATM    4  S1  UNL     1      14.695 -32.668   1.406  1.00  0.00    -0.057 SA
HETATM    5  C8  UNL     1      14.523 -32.315   3.064  1.00  0.00     0.145 A
HETATM    6  C9  UNL     1      16.244 -30.783  -0.309  1.00  0.00     0.048 C
HETATM    7  C10 UNL     1      15.962 -29.308  -0.425  1.00  0.00     0.006 C
HETATM    8  C11 UNL     1      16.093 -28.571   0.860  1.00  0.00     0.006 C
HETATM    9  C12 UNL     1      16.558 -29.373   2.030  1.00  0.00     0.058 C
ENDROOT
BRANCH   1  10
HETATM   10  C5  UNL     1      15.242 -30.568   4.560  1.00  0.00     0.163 C
BRANCH  10  11
HETATM   11  C4  UNL     1      14.148 -29.534   4.739  1.00  0.00     0.144 C
HETATM   12  C3  UNL     1      14.804 -28.191   4.847  1.00  0.00     0.065 C
HETATM   13  C2  UNL     1      13.970 -27.182   5.592  1.00  0.00     0.122 C
HETATM   14  C1  UNL     1      14.854 -25.983   5.879  1.00  0.00     0.040 C
HETATM   15  O2  UNL     1      13.590 -27.791   6.803  1.00  0.00    -0.362 OA
HETATM   16  C13 UNL     1      12.744 -28.846   6.448  1.00  0.00     0.338 C
HETATM   17  O1  UNL     1      13.387 -29.877   5.819  1.00  0.00    -0.360 OA
ENDBRANCH  10  11
ENDBRANCH   1  10
BRANCH   5  18
HETATM   18  N2  UNL     1      13.879 -33.049   3.921  1.00  0.00    -0.379 N
ATOM     19  H22 UNL     1      14.000 -34.054   4.040  1.00  0.00     0.158 HD
ATOM     20  H21 UNL     1      13.169 -32.815   4.615  1.00  0.00     0.158 HD
ENDBRANCH   5  18
TORSDOF 3
ENDMDL