MODEL 1
REMARK VINA RESULT: -8.416622167      0.000      0.000
REMARK  3 active torsions:
REMARK  status: ('A' for Active; 'I' for Inactive)
REMARK    1  A    between atoms: O1_2  and  N1_3
REMARK    2  A    between atoms: C12_15  and  O2_16
REMARK    3  A    between atoms: C15_19  and  O3_20
ROOT
HETATM    1  N1  UNL     1      14.667 -31.282   5.190  1.00  0.00    -0.275 N
ATOM      2  H1  UNL     1      14.850 -31.580   6.148  1.00  0.00     0.193 HD
HETATM    3  C2  UNL     1      14.538 -30.029   4.977  1.00  0.00     0.020 C
HETATM    4  C3  UNL     1      14.638 -28.992   6.021  1.00  0.00     0.068 C
HETATM    5  C4  UNL     1      14.320 -27.678   5.356  1.00  0.00    -0.001 C
HETATM    6  C5  UNL     1      13.259 -26.900   6.098  1.00  0.00     0.013 C
HETATM    7  C6  UNL     1      12.063 -26.848   5.168  1.00  0.00     0.001 C
HETATM    8  C7  UNL     1      12.223 -28.179   4.436  1.00  0.00     0.007 C
HETATM    9  C8  UNL     1      13.698 -28.077   4.034  1.00  0.00     0.011 C
HETATM   10  C9  UNL     1      14.271 -29.400   3.661  1.00  0.00     0.007 C
HETATM   11  C10 UNL     1      13.307 -30.218   2.830  1.00  0.00     0.022 C
HETATM   12  C11 UNL     1      15.568 -29.172   2.909  1.00  0.00     0.080 C
HETATM   13  C12 UNL     1      15.889 -27.728   2.776  1.00  0.00     0.045 C
HETATM   14  C14 UNL     1      15.893 -26.784   3.688  1.00  0.00     0.037 C
HETATM   15  C15 UNL     1      15.576 -26.879   5.133  1.00  0.00     0.152 C
ENDROOT
BRANCH   1  16
HETATM   16  O1  UNL     1      14.578 -32.247   4.236  1.00  0.00    -0.285 OA
HETATM   17  C1  UNL     1      15.670 -33.027   3.796  1.00  0.00     0.237 C
ENDBRANCH   1  16
BRANCH  15  18
HETATM   18  O3  UNL     1      15.505 -25.632   5.721  1.00  0.00    -0.391 OA
ATOM     19  H3  UNL     1      16.274 -25.443   6.247  1.00  0.00     0.210 HD
ENDBRANCH  15  18
BRANCH  13  20
HETATM   20  O2  UNL     1      16.234 -27.333   1.490  1.00  0.00    -0.360 OA
HETATM   21  C13 UNL     1      17.576 -27.323   1.055  1.00  0.00     0.209 C
ENDBRANCH  13  20
TORSDOF 3
ENDMDL