MODEL 3
REMARK VINA RESULT: -7.601742244      2.109      2.500
REMARK  3 active torsions:
REMARK  status: ('A' for Active; 'I' for Inactive)
REMARK    1  A    between atoms: N3_11  and  C7_12
REMARK    2  A    between atoms: C7_12  and  C8_13
REMARK    3  A    between atoms: C13_19  and  O2_20
ROOT
HETATM    1  C1  UNL     1      14.410 -25.409   4.821  1.00  0.00     0.015 C
HETATM    2  C2  UNL     1      14.343 -26.655   5.646  1.00  0.00    -0.045 C
HETATM    3  C3  UNL     1      15.049 -26.318   6.970  1.00  0.00     0.015 C
HETATM    4  C4  UNL     1      12.967 -27.092   6.008  1.00  0.00     0.015 C
HETATM    5  C5  UNL     1      12.032 -27.280   4.833  1.00  0.00     0.061 C
HETATM    6  C6  UNL     1      12.416 -28.417   3.990  1.00  0.00     0.054 A
HETATM    7  N1  UNL     1      11.589 -29.381   3.619  1.00  0.00    -0.288 N
ATOM      8  H1  UNL     1      10.599 -29.441   3.863  1.00  0.00     0.188 HD
HETATM    9  N2  UNL     1      12.241 -30.233   2.896  1.00  0.00    -0.240 N
ATOM     10  H2  UNL     1      11.829 -31.071   2.486  1.00  0.00     0.208 HD
HETATM   11  N3  UNL     1      13.534 -29.876   2.753  1.00  0.00    -0.275 N
HETATM   12  C12 UNL     1      13.662 -28.748   3.426  1.00  0.00     0.082 A
HETATM   13  C13 UNL     1      14.869 -27.908   3.574  1.00  0.00     0.172 C
HETATM   14  C14 UNL     1      15.132 -27.811   5.068  1.00  0.00     0.047 C
ENDROOT
BRANCH  11  15
HETATM   15  C7  UNL     1      14.470 -30.693   2.022  1.00  0.00     0.182 C
BRANCH  15  16
HETATM   16  C8  UNL     1      14.836 -31.935   2.769  1.00  0.00     0.141 C
HETATM   17  C9  UNL     1      16.316 -32.257   2.521  1.00  0.00     0.036 C
HETATM   18  C10 UNL     1      16.584 -33.250   3.614  1.00  0.00     0.029 C
HETATM   19  C11 UNL     1      15.474 -32.962   4.592  1.00  0.00     0.168 C
HETATM   20  O1  UNL     1      14.771 -31.877   4.131  1.00  0.00    -0.384 OA
ENDBRANCH  15  16
ENDBRANCH  11  15
BRANCH  13  21
HETATM   21  O2  UNL     1      15.993 -28.303   2.938  1.00  0.00    -0.389 OA
ATOM     22  H2  UNL     1      16.509 -28.994   3.338  1.00  0.00     0.210 HD
ENDBRANCH  13  21
TORSDOF 3
ENDMDL