MODEL 4
REMARK VINA RESULT: -6.699258162      2.676      5.691
REMARK  2 active torsions:
REMARK  status: ('A' for Active; 'I' for Inactive)
REMARK    1  A    between atoms: C2_4  and  C3_5
REMARK    2  A    between atoms: C9_13  and  N3_14
ROOT
HETATM    1  C3  UNL     1      14.386 -28.938   6.037  1.00  0.00     0.042 C
HETATM    2  C4  UNL     1      14.201 -29.729   4.999  1.00  0.00     0.030 C
HETATM    3  C5  UNL     1      15.340 -30.459   4.425  1.00  0.00     0.088 C
HETATM    4  C6  UNL     1      14.926 -31.658   3.625  1.00  0.00     0.045 C
HETATM    5  C7  UNL     1      15.487 -31.560   2.227  1.00  0.00     0.039 C
HETATM    6  C8  UNL     1      15.549 -32.899   4.278  1.00  0.00     0.039 C
HETATM    7  N2  UNL     1      13.516 -31.875   3.573  1.00  0.00    -0.217 N
ATOM      8  H2  UNL     1      13.197 -32.824   3.378  1.00  0.00     0.178 HD
HETATM    9  C9  UNL     1      12.522 -30.887   3.768  1.00  0.00     0.677 C
HETATM   10  N4  UNL     1      12.872 -29.844   4.467  1.00  0.00    -0.196 N
ATOM     11  H4  UNL     1      12.195 -29.101   4.639  1.00  0.00     0.184 HD
ENDROOT
BRANCH   9  12
HETATM   12  N3  UNL     1      11.209 -30.997   3.245  1.00  0.00    -0.216 N
HETATM   13  C10 UNL     1      10.432 -32.151   3.528  1.00  0.00     0.151 C
HETATM   14  C11 UNL     1       9.859 -32.833   2.313  1.00  0.00     0.094 C
HETATM   15  S1  UNL     1       9.253 -31.679   1.073  1.00  0.00    -0.166 SA
HETATM   16  C12 UNL     1      10.472 -30.309   0.999  1.00  0.00     0.094 C
HETATM   17  C13 UNL     1      10.721 -29.906   2.433  1.00  0.00     0.151 C
ENDBRANCH   9  12
BRANCH   1  18
HETATM   18  C2  UNL     1      13.293 -28.189   6.648  1.00  0.00     0.084 C
HETATM   19  N1  UNL     1      13.448 -26.943   6.904  1.00  0.00    -0.403 N
HETATM   20  C1  UNL     1      14.675 -26.233   6.611  1.00  0.00     0.145 C
ATOM     21  H1  UNL     1      12.676 -26.431   7.331  1.00  0.00     0.158 HD
ENDBRANCH   1  18
TORSDOF 2
ENDMDL