MODEL 2
REMARK VINA RESULT: -8.697335724      2.281      3.314
REMARK  3 active torsions:
REMARK  status: ('A' for Active; 'I' for Inactive)
REMARK    1  A    between atoms: C2_2  and  N1_3
REMARK    2  A    between atoms: C4_9  and  C5_10
REMARK    3  A    between atoms: C10_15  and  O1_16
ROOT
HETATM    1  N1  UNL     1      15.670 -30.654   2.942  1.00  0.00    -0.267 N
HETATM    2  N2  UNL     1      15.964 -31.930   3.180  1.00  0.00    -0.292 N
ATOM      3  H2  UNL     1      16.459 -32.532   2.521  1.00  0.00     0.188 HD
HETATM    4  C3  UNL     1      15.539 -32.332   4.376  1.00  0.00     0.199 A
HETATM    5  N3  UNL     1      14.958 -31.237   4.891  1.00  0.00    -0.339 N
ATOM      6  H3  UNL     1      14.521 -31.190   5.812  1.00  0.00     0.168 HD
HETATM    7  C4  UNL     1      15.033 -30.193   4.012  1.00  0.00     0.109 A
ENDROOT
BRANCH   7   8
HETATM    8  C5  UNL     1      14.462 -28.870   4.271  1.00  0.00     0.023 C
HETATM    9  C6  UNL     1      13.341 -28.489   3.381  1.00  0.00     0.018 C
HETATM   10  C7  UNL     1      12.098 -28.310   4.201  1.00  0.00     0.006 C
HETATM   11  C8  UNL     1      12.736 -27.923   5.547  1.00  0.00    -0.011 C
HETATM   12  C9  UNL     1      13.401 -26.587   5.448  1.00  0.00     0.036 C
HETATM   13  C12 UNL     1      13.756 -28.992   5.644  1.00  0.00     0.022 C
HETATM   14  C10 UNL     1      14.901 -26.765   5.595  1.00  0.00     0.119 C
HETATM   15  C11 UNL     1      15.444 -27.775   4.587  1.00  0.00     0.049 C
BRANCH  14  16
HETATM   16  O1  UNL     1      15.448 -25.502   5.353  1.00  0.00    -0.396 OA
ATOM     17  H1  UNL     1      15.754 -25.529   4.453  1.00  0.00     0.210 HD
ENDBRANCH  14  16
ENDBRANCH   7   8
BRANCH   1  18
HETATM   18  C2  UNL     1      16.047 -30.025   1.712  1.00  0.00     0.075 C
HETATM   19  C1  UNL     1      16.910 -28.819   1.814  1.00  0.00     0.043 C
HETATM   20  C13 UNL     1      17.001 -31.048   1.005  1.00  0.00     0.061 C
HETATM   21  C14 UNL     1      16.524 -31.153  -0.407  1.00  0.00     0.170 C
HETATM   22  O2  UNL     1      15.867 -29.920  -0.542  1.00  0.00    -0.389 OA
HETATM   23  C15 UNL     1      15.040 -29.998   0.610  1.00  0.00     0.200 C
ENDBRANCH   1  18
TORSDOF 3
ENDMDL