MODEL 2
REMARK VINA RESULT: -7.773405555      1.705      2.272
REMARK  3 active torsions:
REMARK  status: ('A' for Active; 'I' for Inactive)
REMARK    1  A    between atoms: C3_5  and  N2_6
REMARK    2  A    between atoms: C7_10  and  C8_11
REMARK    3  A    between atoms: C8_11  and  O1_12
ROOT
HETATM    1  C1  UNL     1      18.138 -26.523   0.402  1.00  0.00     0.069 C
HETATM    2  C2  UNL     1      17.577 -27.754   0.981  1.00  0.00     0.032 A
HETATM    3  N1  UNL     1      16.714 -27.729   1.982  1.00  0.00    -0.195 N
ATOM      4  H1  UNL     1      16.442 -26.816   2.349  1.00  0.00     0.184 HD
HETATM    5  C3  UNL     1      16.170 -28.819   2.551  1.00  0.00     0.681 A
HETATM    6  N3  UNL     1      16.547 -30.004   2.045  1.00  0.00    -0.185 N
ATOM      7  H3  UNL     1      16.165 -30.863   2.440  1.00  0.00     0.185 HD
HETATM    8  C10 UNL     1      17.414 -30.075   1.037  1.00  0.00     0.094 A
HETATM    9  C11 UNL     1      17.985 -28.989   0.437  1.00  0.00    -0.001 A
HETATM   10  C12 UNL     1      18.905 -29.291  -0.675  1.00  0.00     0.054 C
HETATM   11  C13 UNL     1      19.585 -30.616  -0.440  1.00  0.00     0.085 C
HETATM   12  S1  UNL     1      18.105 -31.524   0.202  1.00  0.00    -0.111 SA
ENDROOT
BRANCH   5  13
HETATM   13  N2  UNL     1      15.251 -28.715   3.620  1.00  0.00    -0.217 N
HETATM   14  C4  UNL     1      14.696 -29.873   4.214  1.00  0.00     0.141 C
HETATM   15  C5  UNL     1      14.401 -29.791   5.663  1.00  0.00     0.021 C
HETATM   16  C6  UNL     1      14.292 -28.419   6.224  1.00  0.00     0.010 C
HETATM   17  C7  UNL     1      15.193 -27.412   5.599  1.00  0.00     0.028 C
HETATM   18  C9  UNL     1      14.889 -27.406   4.095  1.00  0.00     0.148 C
BRANCH  17  19
HETATM   19  C8  UNL     1      14.818 -26.029   6.103  1.00  0.00     0.170 C
BRANCH  19  20
HETATM   20  O1  UNL     1      15.525 -25.092   5.393  1.00  0.00    -0.400 OA
ATOM     21  H1  UNL     1      15.048 -24.271   5.409  1.00  0.00     0.209 HD
ENDBRANCH  19  20
ENDBRANCH  17  19
ENDBRANCH   5  13
TORSDOF 3
ENDMDL