MODEL 2
REMARK VINA RESULT: -6.499774869      2.143      3.915
REMARK  3 active torsions:
REMARK  status: ('A' for Active; 'I' for Inactive)
REMARK    1  A    between atoms: C2_2  and  N1_3
REMARK    2  A    between atoms: C4_6  and  N2_7
REMARK    3  A    between atoms: C5_10  and  O3_12
ROOT
HETATM    1  N1  UNL     1      12.541 -28.886   4.924  1.00  0.00    -0.393 N
ATOM      2  H1  UNL     1      11.639 -29.292   4.678  1.00  0.00     0.159 HD
HETATM    3  C3  UNL     1      13.385 -29.172   4.076  1.00  0.00     0.042 C
HETATM    4  C4  UNL     1      12.990 -30.012   2.901  1.00  0.00     0.237 C
HETATM    5  C5  UNL     1      13.580 -31.369   2.871  1.00  0.00     0.094 C
HETATM    6  C6  UNL     1      13.003 -32.081   1.657  1.00  0.00     0.049 C
HETATM    7  C7  UNL     1      15.078 -31.410   2.872  1.00  0.00     0.063 C
HETATM    8  C8  UNL     1      15.636 -32.142   4.093  1.00  0.00     0.019 C
HETATM    9  C9  UNL     1      15.783 -30.170   2.667  1.00  0.00    -0.014 C
HETATM   10  C10 UNL     1      16.843 -30.183   1.623  1.00  0.00     0.063 C
HETATM   11  N3  UNL     1      15.651 -29.049   3.237  1.00  0.00    -0.382 N
ATOM     12  H3  UNL     1      16.281 -28.318   2.905  1.00  0.00     0.160 HD
HETATM   13  C11 UNL     1      14.754 -28.652   4.275  1.00  0.00     0.063 C
HETATM   14  C12 UNL     1      14.648 -27.120   4.232  1.00  0.00     0.044 C
HETATM   15  C13 UNL     1      15.376 -29.012   5.582  1.00  0.00     0.044 C
ENDROOT
BRANCH   1  16
HETATM   16  C2  UNL     1      12.445 -28.183   6.102  1.00  0.00     0.115 C
HETATM   17  C1  UNL     1      11.667 -26.883   5.831  1.00  0.00     0.026 C
ENDBRANCH   1  16
BRANCH   4  18
HETATM   18  N2  UNL     1      11.557 -30.082   2.765  1.00  0.00    -0.142 N
HETATM   19  O1  UNL     1      10.948 -29.426   1.902  1.00  0.00    -0.536 OA
HETATM   20  O2  UNL     1      10.768 -30.890   3.577  1.00  0.00    -0.536 OA
ENDBRANCH   4  18
BRANCH   5  21
HETATM   21  O3  UNL     1      13.162 -32.170   3.950  1.00  0.00    -0.387 OA
ATOM     22  H3  UNL     1      12.365 -31.852   4.359  1.00  0.00     0.210 HD
ENDBRANCH   5  21
TORSDOF 3
ENDMDL