MODEL 1
REMARK VINA RESULT: -7.960527611      0.000      0.000
REMARK  3 active torsions:
REMARK  status: ('A' for Active; 'I' for Inactive)
REMARK    1  A    between atoms: C6_6  and  N1_7
REMARK    2  A    between atoms: C9_11  and  C10_12
REMARK    3  A    between atoms: N3_13  and  O1_15
ROOT
HETATM    1  N1  UNL     1      15.092 -28.500   1.921  1.00  0.00    -0.380 N
HETATM    2  C7  UNL     1      13.757 -28.753   2.307  1.00  0.00     0.143 C
HETATM    3  C8  UNL     1      13.523 -28.748   3.797  1.00  0.00     0.151 C
HETATM    4  N2  UNL     1      14.167 -27.611   4.427  1.00  0.00    -0.328 N
HETATM    5  C9  UNL     1      13.738 -26.832   5.446  1.00  0.00     0.069 A
HETATM    6  C11 UNL     1      14.754 -25.905   5.622  1.00  0.00     0.121 A
HETATM    7  N4  UNL     1      15.715 -26.179   4.712  1.00  0.00    -0.349 N
ATOM      8  H4  UNL     1      16.586 -25.659   4.605  1.00  0.00     0.167 HD
HETATM    9  C12 UNL     1      15.349 -27.250   3.961  1.00  0.00     0.123 A
HETATM   10  C13 UNL     1      15.989 -27.959   2.862  1.00  0.00     0.135 C
ENDROOT
BRANCH   1  11
HETATM   11  C6  UNL     1      15.661 -29.468   1.025  1.00  0.00     0.084 C
HETATM   12  C5  UNL     1      17.027 -29.845   1.578  1.00  0.00     0.026 C
HETATM   13  C4  UNL     1      17.465 -31.001   0.667  1.00  0.00     0.011 C
HETATM   14  C2  UNL     1      17.867 -30.360  -0.633  1.00  0.00    -0.048 C
HETATM   15  C1  UNL     1      19.288 -29.822  -0.430  1.00  0.00     0.015 C
HETATM   16  C3  UNL     1      18.006 -31.505  -1.639  1.00  0.00     0.015 C
HETATM   17  C15 UNL     1      16.975 -29.293  -1.125  1.00  0.00     0.011 C
HETATM   18  C14 UNL     1      15.736 -29.008  -0.395  1.00  0.00     0.026 C
ENDBRANCH   1  11
BRANCH   5  19
HETATM   19  C10 UNL     1      12.494 -26.957   6.177  1.00  0.00     0.144 C
HETATM   20  N3  UNL     1      12.212 -27.895   6.975  1.00  0.00    -0.278 N
ATOM     21  H3  UNL     1      11.293 -27.839   7.414  1.00  0.00     0.193 HD
BRANCH  20  22
HETATM   22  O1  UNL     1      12.959 -28.961   7.324  1.00  0.00    -0.290 OA
ATOM     23  H1  UNL     1      13.567 -29.462   6.793  1.00  0.00     0.244 HD
ENDBRANCH  20  22
ENDBRANCH   5  19
TORSDOF 3
ENDMDL