MODEL 1
REMARK VINA RESULT: -7.788802094      0.000      0.000
REMARK  4 active torsions:
REMARK  status: ('A' for Active; 'I' for Inactive)
REMARK    1  A    between atoms: C2_2  and  O1_5
REMARK    2  A    between atoms: O1_5  and  N1_6
REMARK    3  A    between atoms: C11_14  and  N2_15
REMARK    4  A    between atoms: N2_15  and  C12_18
ROOT
HETATM    1  C12 UNL     1      13.837 -31.935   0.737  1.00  0.00     0.356 C
HETATM    2  C13 UNL     1      12.894 -32.665   1.598  1.00  0.00     0.086 C
HETATM    3  N3  UNL     1      12.139 -33.234   2.263  1.00  0.00    -0.196 NA
ENDROOT
BRANCH   1   4
HETATM    4  N2  UNL     1      15.090 -31.692   1.416  1.00  0.00    -0.057 N
ATOM      5  H22 UNL     1      15.840 -32.239   0.993  1.00  0.00     0.278 HD
ATOM      6  H21 UNL     1      15.080 -32.106   2.347  1.00  0.00     0.278 HD
BRANCH   4   7
HETATM    7  C11 UNL     1      15.449 -30.315   1.484  1.00  0.00     0.218 C
HETATM    8  C10 UNL     1      16.964 -30.173   1.636  1.00  0.00     0.047 C
HETATM    9  C7  UNL     1      17.244 -28.736   1.267  1.00  0.00    -0.072 C
HETATM   10  C9  UNL     1      17.766 -30.576   0.447  1.00  0.00     0.015 C
HETATM   11  C6  UNL     1      16.515 -27.862   1.961  1.00  0.00     0.031 C
HETATM   12  C8  UNL     1      18.251 -29.133   0.263  1.00  0.00     0.035 C
HETATM   13  C5  UNL     1      15.551 -28.329   2.968  1.00  0.00     0.052 C
HETATM   14  N1  UNL     1      15.415 -27.640   4.027  1.00  0.00    -0.269 N
HETATM   15  C14 UNL     1      14.805 -29.580   2.661  1.00  0.00     0.175 C
ATOM     16  H1  UNL     1      16.000 -26.807   4.086  1.00  0.00     0.194 HD
HETATM   17  C15 UNL     1      14.786 -30.423   3.842  1.00  0.00     0.072 C
HETATM   18  N4  UNL     1      14.763 -31.106   4.788  1.00  0.00    -0.196 NA
BRANCH  14  19
HETATM   19  O1  UNL     1      14.609 -27.854   5.083  1.00  0.00    -0.270 OA
BRANCH  19  20
HETATM   20  C2  UNL     1      13.947 -26.712   5.645  1.00  0.00     0.078 C
HETATM   21  C1  UNL     1      14.301 -26.582   7.113  1.00  0.00     0.048 C
HETATM   22  C3  UNL     1      14.563 -25.509   4.935  1.00  0.00     0.048 C
HETATM   23  C4  UNL     1      12.457 -26.773   5.478  1.00  0.00     0.048 C
ENDBRANCH  19  20
ENDBRANCH  14  19
ENDBRANCH   4   7
ENDBRANCH   1   4
TORSDOF 4
ENDMDL