MODEL 2
REMARK VINA RESULT: -7.584770457      2.161      3.472
REMARK  3 active torsions:
REMARK  status: ('A' for Active; 'I' for Inactive)
REMARK    1  A    between atoms: C2_3  and  O1_4
REMARK    2  A    between atoms: N2_7  and  C4_8
REMARK    3  A    between atoms: C4_8  and  C5_9
ROOT
HETATM    1  C5  UNL     1      14.165 -29.077   4.677  1.00  0.00     0.066 C
HETATM    2  C6  UNL     1      14.180 -28.762   3.259  1.00  0.00     0.071 C
HETATM    3  N3  UNL     1      14.178 -28.478   2.113  1.00  0.00    -0.196 NA
HETATM    4  C7  UNL     1      12.686 -29.119   5.074  1.00  0.00     0.026 C
HETATM    5  C8  UNL     1      12.155 -27.743   4.735  1.00  0.00     0.002 C
HETATM    6  C9  UNL     1      12.734 -26.833   5.810  1.00  0.00     0.009 C
HETATM    7  C10 UNL     1      14.228 -26.797   5.776  1.00  0.00    -0.046 C
HETATM    8  C11 UNL     1      14.614 -25.705   4.782  1.00  0.00     0.015 C
HETATM    9  C12 UNL     1      14.696 -26.284   7.146  1.00  0.00     0.015 C
HETATM   10  C13 UNL     1      14.918 -28.045   5.461  1.00  0.00     0.035 C
ENDROOT
BRANCH   1  11
HETATM   11  C4  UNL     1      14.715 -30.460   4.895  1.00  0.00     0.158 C
BRANCH  11  12
HETATM   12  N2  UNL     1      14.715 -31.296   3.720  1.00  0.00    -0.304 N
HETATM   13  C3  UNL     1      15.818 -31.520   2.957  1.00  0.00     0.151 A
HETATM   14  C2  UNL     1      15.475 -32.339   1.909  1.00  0.00     0.161 A
HETATM   15  N1  UNL     1      14.173 -32.602   2.049  1.00  0.00    -0.283 N
HETATM   16  C1  UNL     1      13.396 -33.439   1.150  1.00  0.00     0.163 C
HETATM   17  C14 UNL     1      13.724 -31.973   3.140  1.00  0.00     0.330 A
HETATM   18  O2  UNL     1      12.511 -32.019   3.564  1.00  0.00    -0.246 OA
BRANCH  14  19
HETATM   19  O1  UNL     1      16.340 -32.801   0.896  1.00  0.00    -0.345 OA
ATOM     20  H1  UNL     1      17.133 -32.385   0.579  1.00  0.00     0.219 HD
ENDBRANCH  14  19
ENDBRANCH  11  12
ENDBRANCH   1  11
TORSDOF 3
ENDMDL