MODEL 1
REMARK VINA RESULT: -9.673327451      0.000      0.000
REMARK  19 active torsions:
REMARK  status: ('A' for Active; 'I' for Inactive)
REMARK    1  A    between atoms: C3_4  and  N2_5
REMARK    2  A    between atoms: C7_13  and  C8_14
REMARK    3  A    between atoms: C8_14  and  O1_15
REMARK    4  A    between atoms: C8_14  and  O2_17
REMARK    5  A    between atoms: C9_23  and  N6_24
REMARK    6  A    between atoms: N6_24  and  C10_26
REMARK    7  A    between atoms: C10_26  and  C11_27
REMARK    8  A    between atoms: C11_27  and  N7_28
REMARK    9  A    between atoms: N7_28  and  S1_30
REMARK   10  A    between atoms: S1_30  and  N8_33
REMARK   11  A    between atoms: N10_37  and  C13_38
REMARK   12  A    between atoms: C13_38  and  O5_39
REMARK   13  A    between atoms: O5_39  and  C14_40
REMARK   14  A    between atoms: C14_40  and  C15_41
REMARK   15  A    between atoms: C14_40  and  C16_44
REMARK   16  A    between atoms: C15_41  and  O6_42
REMARK   17  A    between atoms: C16_44  and  O7_45
REMARK   18  A    between atoms: N11_47  and  N12_48
REMARK   19  A    between atoms: C18_55  and  N14_56
ROOT
HETATM    1  N1  UNL     1       9.527 -11.431 -10.029  1.00  0.00    -0.191 NA
HETATM    2  C1  UNL     1       9.382 -12.302  -9.288  1.00  0.00     0.107 C
HETATM    3  C2  UNL     1       9.189 -13.377  -8.348  1.00  0.00     0.133 A
HETATM    4  C3  UNL     1       9.133 -14.686  -8.795  1.00  0.00     0.147 A
HETATM    5  N5  UNL     1       8.948 -15.652  -7.850  1.00  0.00    -0.175 N
ATOM      6  H5  UNL     1       8.902 -16.628  -8.143  1.00  0.00     0.186 HD
HETATM    7  C9  UNL     1       8.826 -15.355  -6.543  1.00  0.00     0.681 A
HETATM    8  N13 UNL     1       8.886 -14.083  -6.160  1.00  0.00    -0.176 N
ATOM      9  H13 UNL     1       8.792 -13.865  -5.168  1.00  0.00     0.186 HD
HETATM   10  C18 UNL     1       9.065 -13.077  -7.028  1.00  0.00     0.139 A
ENDROOT
BRANCH   4  11
HETATM   11  N2  UNL     1       9.261 -14.999 -10.166  1.00  0.00    -0.327 N
HETATM   12  C4  UNL     1      10.404 -15.171 -10.752  1.00  0.00     0.111 A
HETATM   13  C5  UNL     1      10.411 -15.474 -12.102  1.00  0.00     0.091 A
HETATM   14  N4  UNL     1      11.574 -15.065 -10.101  1.00  0.00    -0.328 N
HETATM   15  C6  UNL     1      11.622 -15.656 -12.725  1.00  0.00     0.108 A
HETATM   16 CL1  UNL     1      11.692 -16.046 -14.445  1.00  0.00    -0.064 Cl
HETATM   17  N3  UNL     1      12.769 -15.543 -12.041  1.00  0.00    -0.332 N
HETATM   18  C7  UNL     1      12.750 -15.245 -10.722  1.00  0.00     0.140 A
ATOM     19  H3  UNL     1      13.659 -15.681 -12.518  1.00  0.00     0.168 HD
ATOM     20  H4  UNL     1      11.568 -14.841  -9.106  1.00  0.00     0.169 HD
ATOM     21  H2  UNL     1       8.412 -15.095 -10.723  1.00  0.00     0.169 HD
BRANCH  18  22
HETATM   22  C8  UNL     1      14.054 -15.131 -10.016  1.00  0.00     0.323 C
BRANCH  22  23
HETATM   23  O1  UNL     1      14.554 -16.379  -9.673  1.00  0.00    -0.365 OA
ATOM     24  H1  UNL     1      15.497 -16.356  -9.564  1.00  0.00     0.213 HD
ENDBRANCH  22  23
BRANCH  22  25
HETATM   25  O2  UNL     1      13.922 -14.345  -8.878  1.00  0.00    -0.365 OA
ATOM     26  H2  UNL     1      14.405 -13.533  -8.978  1.00  0.00     0.213 HD
ENDBRANCH  22  25
ENDBRANCH  18  22
ENDBRANCH   4  11
BRANCH  10  27
HETATM   27  N14 UNL     1       9.117 -11.857  -6.602  1.00  0.00    -0.384 N
ATOM     28 2H14 UNL     1       8.324 -11.459  -6.100  1.00  0.00     0.157 HD
ATOM     29 1H14 UNL     1       9.938 -11.273  -6.754  1.00  0.00     0.157 HD
ENDBRANCH  10  27
BRANCH   7  30
HETATM   30  N6  UNL     1       8.653 -16.330  -5.717  1.00  0.00    -0.224 N
ATOM     31  H6  UNL     1       8.700 -17.280  -6.082  1.00  0.00     0.177 HD
BRANCH  30  32
HETATM   32  C10 UNL     1       8.402 -16.161  -4.318  1.00  0.00     0.158 C
BRANCH  32  33
HETATM   33  C11 UNL     1       6.989 -15.630  -4.169  1.00  0.00     0.154 C
BRANCH  33  34
HETATM   34  N7  UNL     1       6.124 -16.466  -4.970  1.00  0.00    -0.299 N
ATOM     35  H7  UNL     1       6.173 -17.485  -4.992  1.00  0.00     0.173 HD
BRANCH  34  36
HETATM   36  S1  UNL     1       4.997 -15.531  -5.883  1.00  0.00     0.343 S
HETATM   37  O3  UNL     1       4.382 -16.434  -6.918  1.00  0.00    -0.181 OA
HETATM   38  O4  UNL     1       5.642 -14.336  -6.505  1.00  0.00    -0.181 OA
BRANCH  36  39
HETATM   39  N8  UNL     1       3.721 -15.059  -4.813  1.00  0.00    -0.106 N
HETATM   40  N9  UNL     1       3.547 -15.700  -3.584  1.00  0.00    -0.273 N
HETATM   41  C12 UNL     1       2.616 -15.392  -2.746  1.00  0.00     0.223 A
ATOM     42  H9  UNL     1       4.191 -16.451  -3.336  1.00  0.00     0.189 HD
HETATM   43  N10 UNL     1       1.667 -14.357  -3.000  1.00  0.00    -0.238 N
HETATM   44  N11 UNL     1       1.766 -13.667  -4.198  1.00  0.00    -0.141 N
HETATM   45  C17 UNL     1       2.807 -14.015  -5.129  1.00  0.00     0.393 A
HETATM   46  O8  UNL     1       2.913 -13.401  -6.221  1.00  0.00    -0.240 OA
BRANCH  43  47
HETATM   47  C13 UNL     1       0.665 -14.098  -1.988  1.00  0.00     0.320 C
BRANCH  47  48
HETATM   48  O5  UNL     1       1.275 -13.379  -0.977  1.00  0.00    -0.361 OA
BRANCH  48  49
HETATM   49  C14 UNL     1       0.799 -13.637   0.280  1.00  0.00     0.170 C
BRANCH  49  50
HETATM   50  C15 UNL     1       1.973 -13.557   1.244  1.00  0.00     0.198 C
BRANCH  50  51
HETATM   51  O6  UNL     1       1.536 -13.418   2.560  1.00  0.00    -0.398 OA
ATOM     52  H6  UNL     1       1.756 -12.561   2.906  1.00  0.00     0.209 HD
ENDBRANCH  50  51
ENDBRANCH  49  50
BRANCH  49  53
HETATM   53  C16 UNL     1       0.199 -15.014   0.426  1.00  0.00     0.198 C
BRANCH  53  54
HETATM   54  O7  UNL     1      -0.518 -15.140   1.589  1.00  0.00    -0.398 OA
ATOM     55  H7  UNL     1      -1.389 -15.484   1.434  1.00  0.00     0.209 HD
ENDBRANCH  53  54
ENDBRANCH  49  53
ENDBRANCH  48  49
ENDBRANCH  47  48
ENDBRANCH  43  47
BRANCH  44  56
HETATM   56  N12 UNL     1       0.847 -12.653  -4.462  1.00  0.00    -0.319 N
ATOM     57 2H12 UNL     1       0.102 -12.764  -5.150  1.00  0.00     0.179 HD
ATOM     58 1H12 UNL     1       0.925 -11.776  -3.947  1.00  0.00     0.179 HD
ENDBRANCH  44  56
ENDBRANCH  36  39
ENDBRANCH  34  36
ENDBRANCH  33  34
ENDBRANCH  32  33
ENDBRANCH  30  32
ENDBRANCH   7  30
TORSDOF 19
ENDMDL