MODEL 3
REMARK VINA RESULT: -8.589539612      0.840      1.507
REMARK  18 active torsions:
REMARK  status: ('A' for Active; 'I' for Inactive)
REMARK    1  A    between atoms: N1_1  and  C1_4
REMARK    2  A    between atoms: N5_15  and  C5_16
REMARK    3  A    between atoms: C6_18  and  C7_19
REMARK    4  A    between atoms: C7_19  and  C8_20
REMARK    5  A    between atoms: C7_19  and  S1_39
REMARK    6  A    between atoms: N6_22  and  C10_23
REMARK    7  A    between atoms: C10_23  and  C11_24
REMARK    8  A    between atoms: C11_24  and  C12_25
REMARK    9  A    between atoms: C12_25  and  N7_26
REMARK   10  A    between atoms: C12_25  and  C13_30
REMARK   11  A    between atoms: C13_30  and  N8_31
REMARK   12  A    between atoms: S1_39  and  C14_42
REMARK   13  A    between atoms: C14_42  and  C15_43
REMARK   14  A    between atoms: C15_43  and  O4_44
REMARK   15  A    between atoms: C16_46  and  N11_47
REMARK   16  A    between atoms: C19_54  and  C20_55
REMARK   17  A    between atoms: C20_55  and  N13_56
REMARK   18  A    between atoms: C21_60  and  O6_61
ROOT
HETATM    1  C5  UNL     1       4.747 -15.103  -5.465  1.00  0.00     0.261 C
HETATM    2  O1  UNL     1       5.904 -14.764  -4.808  1.00  0.00    -0.354 OA
HETATM    3  C6  UNL     1       6.957 -15.516  -5.333  1.00  0.00     0.176 C
HETATM    4  C16 UNL     1       6.446 -16.320  -6.466  1.00  0.00     0.172 C
HETATM    5  C21 UNL     1       4.960 -16.469  -6.027  1.00  0.00     0.194 C
ENDROOT
BRANCH   3   6
HETATM    6  C7  UNL     1       8.044 -14.522  -5.617  1.00  0.00     0.192 C
BRANCH   6   7
HETATM    7  C8  UNL     1       8.617 -14.601  -6.976  1.00  0.00     0.065 A
HETATM    8  C9  UNL     1       8.414 -13.820  -8.095  1.00  0.00     0.139 A
HETATM    9  N6  UNL     1       9.174 -14.274  -9.088  1.00  0.00    -0.287 N
HETATM   10  N9  UNL     1       9.839 -15.311  -8.621  1.00  0.00    -0.241 N
HETATM   11  N10 UNL     1       9.514 -15.511  -7.367  1.00  0.00    -0.288 N
ATOM     12  H9  UNL     1      10.505 -15.871  -9.154  1.00  0.00     0.208 HD
ATOM     13  H10 UNL     1       9.889 -16.253  -6.776  1.00  0.00     0.188 HD
BRANCH   9  14
HETATM   14  C10 UNL     1       9.283 -13.752 -10.459  1.00  0.00     0.152 C
BRANCH  14  15
HETATM   15  C11 UNL     1      10.383 -14.479 -11.185  1.00  0.00     0.056 C
BRANCH  15  16
HETATM   16  C12 UNL     1       9.831 -15.554 -12.084  1.00  0.00     0.210 C
BRANCH  16  17
HETATM   17  N7  UNL     1       8.763 -14.964 -12.873  1.00  0.00    -0.073 N
ATOM     18  H73 UNL     1       7.997 -14.609 -12.301  1.00  0.00     0.274 HD
ATOM     19  H72 UNL     1       9.031 -14.078 -13.304  1.00  0.00     0.274 HD
ATOM     20  H71 UNL     1       8.461 -15.661 -13.555  1.00  0.00     0.274 HD
ENDBRANCH  16  17
BRANCH  16  21
HETATM   21  C13 UNL     1      10.888 -16.115 -13.014  1.00  0.00     0.262 C
BRANCH  21  22
HETATM   22  N8  UNL     1      10.436 -17.274 -13.724  1.00  0.00    -0.077 N
ATOM     23  H83 UNL     1      11.112 -18.035 -13.651  1.00  0.00     0.274 HD
ATOM     24  H82 UNL     1       9.646 -17.710 -13.249  1.00  0.00     0.274 HD
ATOM     25  H81 UNL     1      10.213 -17.074 -14.699  1.00  0.00     0.274 HD
ENDBRANCH  21  22
ENDBRANCH  16  21
ENDBRANCH  15  16
ENDBRANCH  14  15
ENDBRANCH   9  14
ENDBRANCH   6   7
BRANCH   6  26
HETATM   26  S1  UNL     1       9.266 -14.335  -4.384  1.00  0.00     0.158 S
HETATM   27  O2  UNL     1      10.611 -14.874  -4.745  1.00  0.00    -0.227 OA
HETATM   28  O3  UNL     1       9.481 -12.827  -4.223  1.00  0.00    -0.227 OA
BRANCH  26  29
HETATM   29  C14 UNL     1       8.701 -14.910  -2.822  1.00  0.00     0.167 C
BRANCH  29  30
HETATM   30  C15 UNL     1       8.807 -13.790  -1.788  1.00  0.00     0.179 C
BRANCH  30  31
HETATM   31  O4  UNL     1       7.642 -13.043  -1.851  1.00  0.00    -0.400 OA
ATOM     32  H4  UNL     1       7.297 -12.966  -0.969  1.00  0.00     0.209 HD
ENDBRANCH  30  31
ENDBRANCH  29  30
ENDBRANCH  26  29
ENDBRANCH   6  26
ENDBRANCH   3   6
BRANCH   4  33
HETATM   33  N11 UNL     1       6.913 -17.677  -6.492  1.00  0.00    -0.279 N
HETATM   34  N12 UNL     1       7.737 -18.109  -5.522  1.00  0.00    -0.261 N
HETATM   35  C17 UNL     1       8.043 -19.391  -5.737  1.00  0.00     0.300 A
ATOM     36  H12 UNL     1       8.077 -17.546  -4.742  1.00  0.00     0.190 HD
HETATM   37  O5  UNL     1       8.778 -20.168  -5.073  1.00  0.00    -0.263 OA
HETATM   38  C18 UNL     1       7.379 -19.753  -6.882  1.00  0.00     0.211 A
HETATM   39  F1  UNL     1       7.401 -20.972  -7.477  1.00  0.00    -0.198 F
HETATM   40  C19 UNL     1       6.662 -18.633  -7.346  1.00  0.00     0.099 A
BRANCH  40  41
HETATM   41  C20 UNL     1       5.856 -18.718  -8.550  1.00  0.00     0.291 C
BRANCH  41  42
HETATM   42  N13 UNL     1       4.682 -19.506  -8.541  1.00  0.00    -0.074 N
ATOM     43 3H13 UNL     1       4.052 -19.163  -9.265  1.00  0.00     0.274 HD
ATOM     44 2H13 UNL     1       4.908 -20.435  -8.896  1.00  0.00     0.274 HD
ATOM     45 1H13 UNL     1       4.157 -19.606  -7.672  1.00  0.00     0.274 HD
ENDBRANCH  41  42
ENDBRANCH  40  41
ENDBRANCH   4  33
BRANCH   1  46
HETATM   46  N5  UNL     1       3.665 -15.028  -4.522  1.00  0.00    -0.297 N
HETATM   47  C4  UNL     1       3.389 -15.840  -3.485  1.00  0.00     0.188 A
HETATM   48  N4  UNL     1       2.290 -15.452  -2.824  1.00  0.00    -0.346 N
HETATM   49  C3  UNL     1       1.857 -14.356  -3.466  1.00  0.00     0.123 A
ATOM     50  H4  UNL     1       1.871 -15.895  -2.007  1.00  0.00     0.167 HD
HETATM   51  C2  UNL     1       0.778 -13.519  -3.254  1.00  0.00     0.145 A
HETATM   52  C22 UNL     1       2.713 -14.090  -4.525  1.00  0.00     0.157 A
HETATM   53  N2  UNL     1       0.590 -12.472  -4.078  1.00  0.00    -0.175 N
HETATM   54  N3  UNL     1      -0.051 -13.722  -2.280  1.00  0.00    -0.383 N
HETATM   55  C1  UNL     1       1.438 -12.222  -5.113  1.00  0.00     0.679 A
ATOM     56  H2  UNL     1      -0.205 -11.852  -3.923  1.00  0.00     0.186 HD
HETATM   57  N14 UNL     1       2.489 -13.022  -5.336  1.00  0.00    -0.174 N
ATOM     58  H14 UNL     1       3.120 -12.830  -6.113  1.00  0.00     0.186 HD
ATOM     59  H32 UNL     1      -0.847 -13.104  -2.124  1.00  0.00     0.157 HD
ATOM     60  H31 UNL     1       0.090 -14.515  -1.654  1.00  0.00     0.157 HD
BRANCH  55  61
HETATM   61  N1  UNL     1       1.267 -11.218  -5.913  1.00  0.00    -0.234 N
ATOM     62  H12 UNL     1       1.034 -10.317  -5.497  1.00  0.00     0.174 HD
ATOM     63  H11 UNL     1       1.360 -11.311  -6.925  1.00  0.00     0.174 HD
ENDBRANCH  55  61
ENDBRANCH   1  46
BRANCH   5  64
HETATM   64  O6  UNL     1       4.152 -16.799  -7.075  1.00  0.00    -0.389 OA
ATOM     65  H6  UNL     1       4.285 -16.287  -7.864  1.00  0.00     0.210 HD
ENDBRANCH   5  64
TORSDOF 18
ENDMDL