MODEL 5
REMARK VINA RESULT: -7.544775407      1.307      1.455
REMARK  21 active torsions:
REMARK  status: ('A' for Active; 'I' for Inactive)
REMARK    1  A    between atoms: N1_1  and  C1_5
REMARK    2  A    between atoms: C1_5  and  C2_6
REMARK    3  A    between atoms: C3_8  and  O2_9
REMARK    4  A    between atoms: O2_9  and  C4_10
REMARK    5  A    between atoms: C5_12  and  O4_13
REMARK    6  A    between atoms: O4_13  and  C6_14
REMARK    7  A    between atoms: C7_16  and  C8_17
REMARK    8  A    between atoms: C8_17  and  O7_19
REMARK    9  A    between atoms: O7_19  and  C9_20
REMARK   10  A    between atoms: C9_20  and  C10_21
REMARK   11  A    between atoms: C10_21  and  C11_22
REMARK   12  A    between atoms: C11_22  and  C12_23
REMARK   13  A    between atoms: C13_25  and  O8_26
REMARK   14  A    between atoms: C14_28  and  O9_29
REMARK   15  A    between atoms: C15_31  and  N2_32
REMARK   16  A    between atoms: C16_36  and  N3_37
REMARK   17  A    between atoms: C18_42  and  N4_43
REMARK   18  A    between atoms: C19_47  and  O10_48
REMARK   19  A    between atoms: O10_48  and  C20_49
REMARK   20  A    between atoms: C23_55  and  N6_56
REMARK   21  A    between atoms: C24_61  and  O12_62
ROOT
HETATM    1  C4  UNL     1       5.429 -15.937  -4.891  1.00  0.00     0.296 C
HETATM    2  O3  UNL     1       6.656 -15.283  -4.747  1.00  0.00    -0.327 OA
HETATM    3  C5  UNL     1       7.528 -15.538  -5.841  1.00  0.00     0.296 C
HETATM    4  C16 UNL     1       7.293 -16.961  -6.215  1.00  0.00     0.240 C
HETATM    5  C17 UNL     1       5.996 -16.977  -7.029  1.00  0.00     0.075 C
HETATM    6  C18 UNL     1       4.989 -16.123  -6.303  1.00  0.00     0.240 C
ENDROOT
BRANCH   1   7
HETATM    7  O2  UNL     1       4.529 -15.150  -4.134  1.00  0.00    -0.324 OA
BRANCH   7   8
HETATM    8  C3  UNL     1       3.807 -15.926  -3.219  1.00  0.00     0.318 C
HETATM    9  O1  UNL     1       4.328 -15.762  -1.929  1.00  0.00    -0.344 OA
HETATM   10  C2  UNL     1       3.545 -14.935  -1.144  1.00  0.00     0.205 C
HETATM   11  C24 UNL     1       2.115 -15.391  -1.057  1.00  0.00     0.290 C
HETATM   12  O11 UNL     1       1.788 -16.265  -2.096  1.00  0.00    -0.324 OA
HETATM   13  C19 UNL     1       2.324 -15.718  -3.293  1.00  0.00     0.321 C
BRANCH  10  14
HETATM   14  C1  UNL     1       4.126 -14.926   0.247  1.00  0.00     0.266 C
BRANCH  14  15
HETATM   15  N1  UNL     1       4.939 -16.099   0.497  1.00  0.00    -0.077 N
ATOM     16  H13 UNL     1       4.417 -16.957   0.322  1.00  0.00     0.274 HD
ATOM     17  H12 UNL     1       5.664 -16.206  -0.212  1.00  0.00     0.274 HD
ATOM     18  H11 UNL     1       5.336 -16.090   1.436  1.00  0.00     0.274 HD
ENDBRANCH  14  15
ENDBRANCH  10  14
BRANCH  11  19
HETATM   19  O12 UNL     1       1.792 -15.972   0.164  1.00  0.00    -0.368 OA
ATOM     20  H12 UNL     1       0.980 -15.647   0.535  1.00  0.00     0.212 HD
ENDBRANCH  11  19
BRANCH  13  21
HETATM   21  O10 UNL     1       1.945 -14.379  -3.291  1.00  0.00    -0.322 OA
BRANCH  21  22
HETATM   22  C20 UNL     1       1.085 -14.098  -4.322  1.00  0.00     0.353 C
HETATM   23  N5  UNL     1       0.836 -15.196  -5.198  1.00  0.00    -0.047 N
HETATM   24  C21 UNL     1       0.204 -14.602  -6.359  1.00  0.00     0.237 C
ATOM     25  H52 UNL     1       1.664 -15.751  -5.415  1.00  0.00     0.280 HD
ATOM     26  H51 UNL     1       0.299 -15.952  -4.774  1.00  0.00     0.280 HD
HETATM   27  C22 UNL     1       0.581 -13.142  -6.386  1.00  0.00     0.065 C
HETATM   28  C23 UNL     1       1.630 -13.047  -5.270  1.00  0.00     0.241 C
BRANCH  28  29
HETATM   29  N6  UNL     1       2.903 -13.455  -5.788  1.00  0.00    -0.071 N
ATOM     30  H63 UNL     1       3.002 -14.470  -5.798  1.00  0.00     0.274 HD
ATOM     31  H62 UNL     1       2.978 -13.285  -6.790  1.00  0.00     0.274 HD
ATOM     32  H61 UNL     1       3.658 -13.005  -5.268  1.00  0.00     0.274 HD
ENDBRANCH  28  29
ENDBRANCH  21  22
ENDBRANCH  13  21
ENDBRANCH   7   8
ENDBRANCH   1   7
BRANCH   6  33
HETATM   33  N4  UNL     1       3.738 -16.846  -6.329  1.00  0.00    -0.070 N
ATOM     34  H43 UNL     1       3.874 -17.854  -6.257  1.00  0.00     0.274 HD
ATOM     35  H42 UNL     1       3.197 -16.710  -5.475  1.00  0.00     0.274 HD
ATOM     36  H41 UNL     1       3.211 -16.587  -7.163  1.00  0.00     0.274 HD
ENDBRANCH   6  33
BRANCH   3  37
HETATM   37  O4  UNL     1       7.173 -14.591  -6.787  1.00  0.00    -0.327 OA
BRANCH  37  38
HETATM   38  C6  UNL     1       8.257 -13.927  -7.322  1.00  0.00     0.297 C
HETATM   39  O5  UNL     1       8.768 -14.629  -8.440  1.00  0.00    -0.341 OA
HETATM   40  C7  UNL     1       9.933 -14.082  -8.905  1.00  0.00     0.255 C
HETATM   41  C13 UNL     1      10.346 -12.782  -8.311  1.00  0.00     0.188 C
HETATM   42  C14 UNL     1      10.311 -12.749  -6.825  1.00  0.00     0.185 C
HETATM   43  C15 UNL     1       9.373 -13.851  -6.326  1.00  0.00     0.269 C
BRANCH  40  44
HETATM   44  C8  UNL     1       9.960 -14.006 -10.395  1.00  0.00     0.290 C
HETATM   45  O6  UNL     1       8.854 -13.860 -10.978  1.00  0.00    -0.262 OA
BRANCH  44  46
HETATM   46  O7  UNL     1      11.082 -14.082 -11.169  1.00  0.00    -0.319 OA
BRANCH  46  47
HETATM   47  C9  UNL     1      11.987 -15.184 -11.127  1.00  0.00     0.178 C
BRANCH  47  48
HETATM   48  C10 UNL     1      11.946 -15.861 -12.470  1.00  0.00     0.028 C
BRANCH  48  49
HETATM   49  C11 UNL     1      10.709 -16.680 -12.671  1.00  0.00     0.017 C
BRANCH  49  50
HETATM   50  C12 UNL     1      10.141 -16.538 -14.066  1.00  0.00     0.115 C
HETATM   51 CL1  UNL     1      11.339 -15.722 -15.099  1.00  0.00    -0.130 Cl
ENDBRANCH  49  50
ENDBRANCH  48  49
ENDBRANCH  47  48
ENDBRANCH  46  47
ENDBRANCH  44  46
ENDBRANCH  40  44
BRANCH  41  52
HETATM   52  O8  UNL     1       9.739 -11.673  -8.910  1.00  0.00    -0.390 OA
ATOM     53  H8  UNL     1       9.490 -10.995  -8.292  1.00  0.00     0.210 HD
ENDBRANCH  41  52
BRANCH  42  54
HETATM   54  O9  UNL     1      11.559 -12.839  -6.221  1.00  0.00    -0.391 OA
ATOM     55  H9  UNL     1      12.051 -13.618  -6.451  1.00  0.00     0.210 HD
ENDBRANCH  42  54
BRANCH  43  56
HETATM   56  N2  UNL     1       8.933 -13.439  -5.013  1.00  0.00    -0.068 N
ATOM     57  H23 UNL     1       7.974 -13.741  -4.839  1.00  0.00     0.275 HD
ATOM     58  H22 UNL     1       9.410 -13.971  -4.286  1.00  0.00     0.275 HD
ATOM     59  H21 UNL     1       9.033 -12.436  -4.855  1.00  0.00     0.275 HD
ENDBRANCH  43  56
ENDBRANCH  37  38
ENDBRANCH   3  37
BRANCH   4  60
HETATM   60  N3  UNL     1       8.381 -17.608  -6.906  1.00  0.00    -0.070 N
ATOM     61  H33 UNL     1       8.944 -16.914  -7.399  1.00  0.00     0.274 HD
ATOM     62  H32 UNL     1       9.067 -17.952  -6.233  1.00  0.00     0.274 HD
ATOM     63  H31 UNL     1       8.111 -18.357  -7.543  1.00  0.00     0.274 HD
ENDBRANCH   4  60
TORSDOF 21
ENDMDL