MODEL 1
REMARK VINA RESULT: -7.934893027      0.000      0.000
REMARK  21 active torsions:
REMARK  status: ('A' for Active; 'I' for Inactive)
REMARK    1  A    between atoms: N1_1  and  C1_5
REMARK    2  A    between atoms: C1_5  and  C2_6
REMARK    3  A    between atoms: C2_6  and  O1_7
REMARK    4  A    between atoms: O1_7  and  C3_8
REMARK    5  A    between atoms: C4_9  and  C5_10
REMARK    6  A    between atoms: C5_10  and  N2_11
REMARK    7  A    between atoms: C6_16  and  O3_17
REMARK    8  A    between atoms: O3_17  and  C7_18
REMARK    9  A    between atoms: C8_19  and  N3_20
REMARK   10  A    between atoms: C12_28  and  O4_29
REMARK   11  A    between atoms: O4_29  and  C13_30
REMARK   12  A    between atoms: C15_33  and  O5_34
REMARK   13  A    between atoms: O5_34  and  C16_35
REMARK   14  A    between atoms: C17_37  and  C18_38
REMARK   15  A    between atoms: C18_38  and  O7_39
REMARK   16  A    between atoms: C19_41  and  O8_42
REMARK   17  A    between atoms: C20_44  and  O9_45
REMARK   18  A    between atoms: C21_47  and  N4_48
REMARK   19  A    between atoms: C23_53  and  N5_54
REMARK   20  A    between atoms: C24_58  and  N6_59
REMARK   21  A    between atoms: C25_63  and  O10_64
ROOT
HETATM    1  C7  UNL     1       8.634 -14.608  -4.941  1.00  0.00     0.185 C
HETATM    2  C8  UNL     1       9.826 -15.162  -4.201  1.00  0.00     0.215 C
HETATM    3  C9  UNL     1       9.833 -14.832  -2.740  1.00  0.00     0.037 C
HETATM    4  C10 UNL     1       8.618 -14.009  -2.349  1.00  0.00     0.021 C
HETATM    5  C11 UNL     1       7.431 -14.821  -2.741  1.00  0.00     0.090 C
HETATM    6  S1  UNL     1       7.477 -16.513  -2.176  1.00  0.00    -0.090 SA
HETATM    7  C12 UNL     1       7.334 -14.737  -4.276  1.00  0.00     0.171 C
ENDROOT
BRANCH   7   8
HETATM    8  O4  UNL     1       6.689 -15.887  -4.622  1.00  0.00    -0.340 OA
BRANCH   8   9
HETATM    9  C13 UNL     1       5.474 -15.867  -5.153  1.00  0.00     0.236 C
HETATM   10  F1  UNL     1       5.366 -14.847  -6.078  1.00  0.00    -0.209 F
HETATM   11  C14 UNL     1       4.283 -15.854  -4.263  1.00  0.00     0.110 C
HETATM   12  C15 UNL     1       3.245 -16.922  -4.643  1.00  0.00     0.160 C
HETATM   13  C21 UNL     1       2.935 -16.769  -6.093  1.00  0.00     0.214 C
HETATM   14  C22 UNL     1       4.156 -17.023  -6.946  1.00  0.00     0.074 C
HETATM   15  C23 UNL     1       5.342 -17.142  -6.013  1.00  0.00     0.252 C
BRANCH  12  16
HETATM   16  O5  UNL     1       2.078 -16.610  -3.916  1.00  0.00    -0.351 OA
BRANCH  16  17
HETATM   17  C16 UNL     1       2.327 -15.713  -2.901  1.00  0.00     0.292 C
HETATM   18  O6  UNL     1       2.277 -16.255  -1.628  1.00  0.00    -0.348 OA
HETATM   19  C17 UNL     1       1.895 -15.236  -0.767  1.00  0.00     0.179 C
HETATM   20  C19 UNL     1       1.097 -14.232  -1.535  1.00  0.00     0.182 C
HETATM   21  C20 UNL     1       1.387 -14.565  -2.957  1.00  0.00     0.204 C
BRANCH  19  22
HETATM   22  C18 UNL     1       3.089 -14.554  -0.133  1.00  0.00     0.198 C
BRANCH  22  23
HETATM   23  O7  UNL     1       2.717 -13.868   1.023  1.00  0.00    -0.398 OA
ATOM     24  H7  UNL     1       3.383 -13.950   1.696  1.00  0.00     0.209 HD
ENDBRANCH  22  23
ENDBRANCH  19  22
BRANCH  20  25
HETATM   25  O8  UNL     1       1.428 -12.919  -1.204  1.00  0.00    -0.390 OA
ATOM     26  H8  UNL     1       1.598 -12.381  -1.969  1.00  0.00     0.210 HD
ENDBRANCH  20  25
BRANCH  21  27
HETATM   27  O9  UNL     1       1.890 -13.453  -3.630  1.00  0.00    -0.388 OA
ATOM     28  H9  UNL     1       1.812 -13.506  -4.575  1.00  0.00     0.210 HD
ENDBRANCH  21  27
ENDBRANCH  16  17
ENDBRANCH  12  16
BRANCH  13  29
HETATM   29  N4  UNL     1       2.394 -15.440  -6.307  1.00  0.00    -0.072 N
ATOM     30  H43 UNL     1       2.743 -14.761  -5.631  1.00  0.00     0.274 HD
ATOM     31  H42 UNL     1       2.761 -14.999  -7.150  1.00  0.00     0.274 HD
ATOM     32  H41 UNL     1       1.376 -15.504  -6.309  1.00  0.00     0.274 HD
ENDBRANCH  13  29
BRANCH  15  33
HETATM   33  N5  UNL     1       6.567 -17.255  -6.779  1.00  0.00    -0.070 N
ATOM     34  H53 UNL     1       6.851 -18.220  -6.945  1.00  0.00     0.275 HD
ATOM     35  H52 UNL     1       6.458 -16.984  -7.756  1.00  0.00     0.275 HD
ATOM     36  H51 UNL     1       7.273 -16.708  -6.285  1.00  0.00     0.275 HD
ENDBRANCH  15  33
ENDBRANCH   8   9
ENDBRANCH   7   8
BRANCH   1  37
HETATM   37  O3  UNL     1       8.664 -15.113  -6.233  1.00  0.00    -0.349 OA
BRANCH  37  38
HETATM   38  C6  UNL     1       9.420 -14.339  -7.112  1.00  0.00     0.294 C
HETATM   39  O2  UNL     1       9.412 -15.063  -8.305  1.00  0.00    -0.349 OA
HETATM   40  C4  UNL     1       9.494 -14.292  -9.446  1.00  0.00     0.181 C
HETATM   41  C3  UNL     1      10.499 -13.211  -9.277  1.00  0.00     0.183 C
HETATM   42  C25 UNL     1       9.861 -12.231  -8.254  1.00  0.00     0.185 C
HETATM   43  C24 UNL     1       8.988 -12.933  -7.269  1.00  0.00     0.269 C
BRANCH  40  44
HETATM   44  C5  UNL     1       9.772 -15.236 -10.596  1.00  0.00     0.264 C
BRANCH  44  45
HETATM   45  N2  UNL     1       9.022 -14.835 -11.787  1.00  0.00    -0.077 N
ATOM     46  H23 UNL     1       9.197 -15.461 -12.573  1.00  0.00     0.274 HD
ATOM     47  H22 UNL     1       8.021 -15.000 -11.678  1.00  0.00     0.274 HD
ATOM     48  H21 UNL     1       9.221 -13.864 -12.027  1.00  0.00     0.274 HD
ENDBRANCH  44  45
ENDBRANCH  40  44
BRANCH  41  49
HETATM   49  O1  UNL     1      11.719 -13.627  -8.785  1.00  0.00    -0.379 OA
BRANCH  49  50
HETATM   50  C2  UNL     1      12.711 -13.844  -9.686  1.00  0.00     0.195 C
BRANCH  50  51
HETATM   51  C1  UNL     1      13.597 -15.000  -9.338  1.00  0.00     0.255 C
BRANCH  51  52
HETATM   52  N1  UNL     1      14.057 -14.787  -7.957  1.00  0.00    -0.077 N
ATOM     53  H13 UNL     1      14.194 -13.803  -7.728  1.00  0.00     0.274 HD
ATOM     54  H12 UNL     1      13.339 -14.985  -7.260  1.00  0.00     0.274 HD
ATOM     55  H11 UNL     1      14.901 -15.347  -7.835  1.00  0.00     0.274 HD
ENDBRANCH  51  52
ENDBRANCH  50  51
ENDBRANCH  49  50
ENDBRANCH  41  49
BRANCH  42  56
HETATM   56  O10 UNL     1      10.957 -11.602  -7.631  1.00  0.00    -0.391 OA
ATOM     57  H10 UNL     1      10.569 -11.041  -6.970  1.00  0.00     0.210 HD
ENDBRANCH  42  56
BRANCH  43  58
HETATM   58  N6  UNL     1       7.580 -12.771  -7.536  1.00  0.00    -0.068 N
ATOM     59  H63 UNL     1       7.034 -13.421  -6.972  1.00  0.00     0.275 HD
ATOM     60  H62 UNL     1       7.245 -11.886  -7.156  1.00  0.00     0.275 HD
ATOM     61  H61 UNL     1       7.328 -12.855  -8.521  1.00  0.00     0.275 HD
ENDBRANCH  43  58
ENDBRANCH  37  38
ENDBRANCH   1  37
BRANCH   2  62
HETATM   62  N3  UNL     1       9.906 -16.587  -4.363  1.00  0.00    -0.072 N
ATOM     63  H33 UNL     1       9.451 -16.896  -5.222  1.00  0.00     0.274 HD
ATOM     64  H32 UNL     1      10.856 -16.891  -4.576  1.00  0.00     0.274 HD
ATOM     65  H31 UNL     1       9.531 -17.063  -3.544  1.00  0.00     0.274 HD
ENDBRANCH   2  62
TORSDOF 21
ENDMDL