MODEL 4
REMARK VINA RESULT: -8.185857475      2.568      3.544
REMARK  21 active torsions:
REMARK  status: ('A' for Active; 'I' for Inactive)
REMARK    1  A    between atoms: C2_2  and  O1_3
REMARK    2  A    between atoms: O1_3  and  C3_4
REMARK    3  A    between atoms: C6_9  and  O2_10
REMARK    4  A    between atoms: O2_10  and  C7_11
REMARK    5  A    between atoms: C9_13  and  O3_14
REMARK    6  A    between atoms: O3_14  and  C10_15
REMARK    7  A    between atoms: C11_17  and  C12_18
REMARK    8  A    between atoms: C12_18  and  N1_19
REMARK    9  A    between atoms: C13_23  and  O5_24
REMARK   10  A    between atoms: O5_24  and  C14_25
REMARK   11  A    between atoms: C15_26  and  O6_27
REMARK   12  A    between atoms: C16_29  and  O7_30
REMARK   13  A    between atoms: C17_32  and  N2_33
REMARK   14  A    between atoms: C18_37  and  O8_38
REMARK   15  A    between atoms: C19_40  and  O9_41
REMARK   16  A    between atoms: C20_43  and  C21_44
REMARK   17  A    between atoms: C21_44  and  N3_45
REMARK   18  A    between atoms: C22_50  and  N4_51
REMARK   19  A    between atoms: C24_56  and  N5_57
REMARK   20  A    between atoms: C25_62  and  C26_63
REMARK   21  A    between atoms: C26_63  and  O12_64
ROOT
HETATM    1  C10 UNL     1       6.103 -17.470  -2.785  1.00  0.00     0.414 C
HETATM    2  O4  UNL     1       5.654 -16.160  -2.678  1.00  0.00    -0.329 OA
HETATM    3  C11 UNL     1       4.340 -16.044  -2.305  1.00  0.00     0.183 C
HETATM    4  C13 UNL     1       4.125 -16.775  -0.965  1.00  0.00     0.183 C
HETATM    5  C20 UNL     1       5.334 -17.577  -0.581  1.00  0.00     0.183 C
HETATM    6  O10 UNL     1       5.792 -18.244  -1.712  1.00  0.00    -0.329 OA
ENDROOT
BRANCH   1   7
HETATM    7  O3  UNL     1       7.496 -17.437  -2.945  1.00  0.00    -0.331 OA
BRANCH   7   8
HETATM    8  C9  UNL     1       7.921 -17.635  -4.247  1.00  0.00     0.160 C
HETATM    9  C8  UNL     1       7.931 -16.365  -5.066  1.00  0.00     0.068 C
HETATM   10  C7  UNL     1       8.221 -16.626  -6.512  1.00  0.00     0.157 C
HETATM   11  C24 UNL     1       7.358 -17.742  -7.072  1.00  0.00     0.214 C
HETATM   12  C23 UNL     1       7.436 -18.977  -6.232  1.00  0.00     0.070 C
HETATM   13  C22 UNL     1       6.970 -18.649  -4.840  1.00  0.00     0.214 C
BRANCH  10  14
HETATM   14  O2  UNL     1       8.197 -15.481  -7.285  1.00  0.00    -0.348 OA
BRANCH  14  15
HETATM   15  C6  UNL     1       9.393 -15.289  -7.971  1.00  0.00     0.333 C
HETATM   16  C5  UNL     1      10.072 -14.080  -7.441  1.00  0.00     0.294 C
HETATM   17  C4  UNL     1      10.886 -13.334  -8.435  1.00  0.00     0.119 C
HETATM   18  F1  UNL     1      10.845 -14.426  -6.334  1.00  0.00    -0.201 F
HETATM   19  F2  UNL     1       9.115 -13.188  -6.918  1.00  0.00    -0.201 F
HETATM   20  C3  UNL     1      11.329 -14.339  -9.496  1.00  0.00     0.158 C
HETATM   21  C25 UNL     1      10.114 -14.898 -10.146  1.00  0.00     0.177 C
HETATM   22  O11 UNL     1       9.118 -15.291  -9.306  1.00  0.00    -0.345 OA
BRANCH  20  23
HETATM   23  O1  UNL     1      12.117 -15.311  -8.938  1.00  0.00    -0.383 OA
BRANCH  23  24
HETATM   24  C2  UNL     1      13.413 -14.912  -8.648  1.00  0.00     0.163 C
HETATM   25  C1  UNL     1      14.383 -15.791  -9.368  1.00  0.00     0.033 C
ENDBRANCH  23  24
ENDBRANCH  20  23
BRANCH  21  26
HETATM   26  C26 UNL     1       9.579 -13.889 -11.139  1.00  0.00     0.198 C
BRANCH  26  27
HETATM   27  O12 UNL     1       8.766 -14.575 -12.058  1.00  0.00    -0.398 OA
ATOM     28  H12 UNL     1       9.000 -14.282 -12.931  1.00  0.00     0.209 HD
ENDBRANCH  26  27
ENDBRANCH  21  26
ENDBRANCH  14  15
ENDBRANCH  10  14
BRANCH  11  29
HETATM   29  N5  UNL     1       5.999 -17.286  -7.140  1.00  0.00    -0.072 N
ATOM     30  H53 UNL     1       5.466 -17.757  -7.872  1.00  0.00     0.274 HD
ATOM     31  H52 UNL     1       5.444 -17.593  -6.341  1.00  0.00     0.274 HD
ATOM     32  H51 UNL     1       5.996 -16.271  -7.249  1.00  0.00     0.274 HD
ENDBRANCH  11  29
BRANCH  13  33
HETATM   33  N4  UNL     1       7.090 -19.864  -4.035  1.00  0.00    -0.072 N
ATOM     34  H43 UNL     1       6.713 -19.760  -3.093  1.00  0.00     0.274 HD
ATOM     35  H42 UNL     1       6.469 -20.613  -4.340  1.00  0.00     0.274 HD
ATOM     36  H41 UNL     1       8.075 -20.128  -4.047  1.00  0.00     0.274 HD
ENDBRANCH  13  33
ENDBRANCH   7   8
ENDBRANCH   1   7
BRANCH   3  37
HETATM   37  C12 UNL     1       3.491 -16.651  -3.398  1.00  0.00     0.264 C
BRANCH  37  38
HETATM   38  N1  UNL     1       2.300 -15.883  -3.704  1.00  0.00    -0.077 N
ATOM     39  H13 UNL     1       2.019 -15.321  -2.901  1.00  0.00     0.274 HD
ATOM     40  H12 UNL     1       2.512 -15.138  -4.368  1.00  0.00     0.274 HD
ATOM     41  H11 UNL     1       1.521 -16.451  -4.036  1.00  0.00     0.274 HD
ENDBRANCH  37  38
ENDBRANCH   3  37
BRANCH   5  42
HETATM   42  C21 UNL     1       6.411 -17.024   0.205  1.00  0.00     0.264 C
BRANCH  42  43
HETATM   43  N3  UNL     1       6.533 -15.647   0.487  1.00  0.00    -0.077 N
ATOM     44  H33 UNL     1       6.528 -15.152  -0.405  1.00  0.00     0.274 HD
ATOM     45  H32 UNL     1       5.655 -15.344   0.909  1.00  0.00     0.274 HD
ATOM     46  H31 UNL     1       7.291 -15.257   1.047  1.00  0.00     0.274 HD
ENDBRANCH  42  43
ENDBRANCH   5  42
BRANCH   4  47
HETATM   47  O5  UNL     1       3.380 -16.225  -0.116  1.00  0.00    -0.370 OA
BRANCH  47  48
HETATM   48  C14 UNL     1       2.643 -15.600   0.649  1.00  0.00     0.184 C
HETATM   49  C15 UNL     1       1.249 -16.283   0.712  1.00  0.00     0.180 C
HETATM   50  C16 UNL     1       0.141 -15.317   0.993  1.00  0.00     0.182 C
HETATM   51  C17 UNL     1      -0.012 -14.262  -0.057  1.00  0.00     0.245 C
HETATM   52  C18 UNL     1       1.309 -13.953  -0.733  1.00  0.00     0.182 C
HETATM   53  C19 UNL     1       2.443 -14.130   0.228  1.00  0.00     0.180 C
BRANCH  49  54
HETATM   54  O6  UNL     1       1.219 -17.216   1.765  1.00  0.00    -0.390 OA
ATOM     55  H6  UNL     1       0.379 -17.177   2.208  1.00  0.00     0.210 HD
ENDBRANCH  49  54
BRANCH  50  56
HETATM   56  O7  UNL     1       0.159 -14.837   2.298  1.00  0.00    -0.391 OA
ATOM     57  H7  UNL     1       0.916 -14.295   2.482  1.00  0.00     0.210 HD
ENDBRANCH  50  56
BRANCH  51  58
HETATM   58  N2  UNL     1      -0.893 -14.747  -1.115  1.00  0.00    -0.070 N
ATOM     59  H23 UNL     1      -0.396 -14.895  -1.993  1.00  0.00     0.274 HD
ATOM     60  H22 UNL     1      -1.195 -15.709  -0.954  1.00  0.00     0.274 HD
ATOM     61  H21 UNL     1      -1.683 -14.110  -1.223  1.00  0.00     0.274 HD
ENDBRANCH  51  58
BRANCH  52  62
HETATM   62  O8  UNL     1       1.321 -12.624  -1.140  1.00  0.00    -0.391 OA
ATOM     63  H8  UNL     1       0.643 -12.487  -1.791  1.00  0.00     0.210 HD
ENDBRANCH  52  62
BRANCH  53  64
HETATM   64  O9  UNL     1       2.364 -13.276   1.323  1.00  0.00    -0.390 OA
ATOM     65  H9  UNL     1       2.839 -12.466   1.181  1.00  0.00     0.210 HD
ENDBRANCH  53  64
ENDBRANCH  47  48
ENDBRANCH   4  47
TORSDOF 21
ENDMDL