MODEL 1
REMARK VINA RESULT: -9.322272633      0.000      0.000
REMARK  17 active torsions:
REMARK  status: ('A' for Active; 'I' for Inactive)
REMARK    1  A    between atoms: N2_3  and  S1_5
REMARK    2  A    between atoms: S1_5  and  N3_7
REMARK    3  A    between atoms: S1_5  and  N13_49
REMARK    4  A    between atoms: N3_7  and  C2_9
REMARK    5  A    between atoms: C2_9  and  C3_10
REMARK    6  A    between atoms: C3_10  and  O2_11
REMARK    7  A    between atoms: O2_11  and  C4_12
REMARK    8  A    between atoms: C6_14  and  C7_15
REMARK    9  A    between atoms: C7_15  and  O3_16
REMARK   10  A    between atoms: C8_18  and  N4_19
REMARK       I    between atoms: N4_19  and  C9_21
REMARK   11  A    between atoms: C9_21  and  C10_23
REMARK   12  A    between atoms: N5_25  and  C12_26
REMARK   13  A    between atoms: C14_31  and  N8_32
REMARK   14  A    between atoms: C15_37  and  N10_38
REMARK   15  A    between atoms: C16_44  and  C17_45
REMARK   16  A    between atoms: C17_45  and  O5_46
REMARK   17  A    between atoms: N13_49  and  N14_51
ROOT
HETATM    1  N1  UNL     1      10.270 -12.064 -10.389  1.00  0.00    -0.171 NA
HETATM    2  C1  UNL     1      11.091 -12.726 -10.870  1.00  0.00     0.192 C
HETATM    3  N2  UNL     1      12.090 -13.511 -11.436  1.00  0.00    -0.220 N
ATOM      4  H2  UNL     1      12.582 -13.192 -12.272  1.00  0.00     0.191 HD
ENDROOT
BRANCH   3   5
HETATM    5  S1  UNL     1      12.456 -14.892 -10.780  1.00  0.00     0.221 S
HETATM    6  O1  UNL     1      13.968 -14.961 -10.723  1.00  0.00    -0.204 OA
BRANCH   5   7
HETATM    7  N3  UNL     1      11.780 -15.051  -9.220  1.00  0.00    -0.316 N
ATOM      8  H3  UNL     1      10.850 -15.429  -9.043  1.00  0.00     0.172 HD
BRANCH   7   9
HETATM    9  C2  UNL     1      12.673 -14.589  -8.174  1.00  0.00     0.158 C
BRANCH   9  10
HETATM   10  C3  UNL     1      11.896 -13.734  -7.195  1.00  0.00     0.191 C
BRANCH  10  11
HETATM   11  O2  UNL     1      10.536 -13.789  -7.350  1.00  0.00    -0.360 OA
BRANCH  11  12
HETATM   12  C4  UNL     1       9.852 -14.572  -6.459  1.00  0.00     0.260 C
HETATM   13  C5  UNL     1       8.650 -13.826  -5.952  1.00  0.00     0.069 C
HETATM   14  C6  UNL     1       7.465 -13.914  -6.856  1.00  0.00     0.039 C
HETATM   15  C8  UNL     1       6.995 -15.378  -6.843  1.00  0.00     0.122 C
HETATM   16  C16 UNL     1       8.199 -16.200  -6.497  1.00  0.00     0.171 C
HETATM   17  O6  UNL     1       9.359 -15.724  -7.109  1.00  0.00    -0.352 OA
BRANCH  14  18
HETATM   18  C7  UNL     1       7.760 -13.472  -8.269  1.00  0.00     0.171 C
BRANCH  18  19
HETATM   19  O3  UNL     1       8.154 -12.138  -8.289  1.00  0.00    -0.400 OA
ATOM     20  H3  UNL     1       9.097 -12.071  -8.386  1.00  0.00     0.209 HD
ENDBRANCH  18  19
ENDBRANCH  14  18
BRANCH  15  21
HETATM   21  N4  UNL     1       6.059 -15.465  -5.726  1.00  0.00    -0.348 N
HETATM   22  C9  UNL     1       4.855 -16.184  -5.928  1.00  0.00     0.271 C
HETATM   23  O4  UNL     1       4.591 -16.727  -7.021  1.00  0.00    -0.266 OA
ATOM     24  H4  UNL     1       6.266 -15.024  -4.831  1.00  0.00     0.163 HD
BRANCH  22  25
HETATM   25  C10 UNL     1       3.922 -16.272  -4.812  1.00  0.00     0.131 A
HETATM   26  C11 UNL     1       3.234 -15.218  -4.260  1.00  0.00     0.151 A
HETATM   27  N5  UNL     1       2.467 -15.672  -3.250  1.00  0.00    -0.242 N
HETATM   28  N11 UNL     1       2.672 -16.978  -3.175  1.00  0.00    -0.015 NA
HETATM   29  N12 UNL     1       3.550 -17.356  -4.112  1.00  0.00    -0.277 N
ATOM     30  H12 UNL     1       3.881 -18.308  -4.269  1.00  0.00     0.184 HD
BRANCH  27  31
HETATM   31  C12 UNL     1       1.601 -14.902  -2.422  1.00  0.00     0.139 A
HETATM   32  C13 UNL     1       2.014 -14.440  -1.183  1.00  0.00     0.164 A
HETATM   33  N6  UNL     1       3.325 -14.734  -0.718  1.00  0.00    -0.080 NA
HETATM   34  N7  UNL     1       1.163 -13.725  -0.449  1.00  0.00    -0.177 N
HETATM   35  C14 UNL     1      -0.091 -13.437  -0.884  1.00  0.00     0.678 A
ATOM     36  H7  UNL     1       1.462 -13.384   0.464  1.00  0.00     0.185 HD
HETATM   37  N9  UNL     1      -0.528 -13.872  -2.091  1.00  0.00    -0.175 N
HETATM   38  C15 UNL     1       0.319 -14.594  -2.839  1.00  0.00     0.146 A
ATOM     39  H9  UNL     1      -1.470 -13.659  -2.419  1.00  0.00     0.186 HD
BRANCH  35  40
HETATM   40  N8  UNL     1      -0.880 -12.747  -0.155  1.00  0.00    -0.234 N
ATOM     41  H82 UNL     1      -1.041 -13.039   0.810  1.00  0.00     0.174 HD
ATOM     42  H81 UNL     1      -1.339 -11.920  -0.536  1.00  0.00     0.174 HD
ENDBRANCH  35  40
BRANCH  38  43
HETATM   43  N10 UNL     1      -0.074 -15.017  -3.986  1.00  0.00    -0.383 N
ATOM     44 2H10 UNL     1       0.584 -15.006  -4.765  1.00  0.00     0.157 HD
ATOM     45 1H10 UNL     1      -1.034 -15.350  -4.081  1.00  0.00     0.157 HD
ENDBRANCH  38  43
ENDBRANCH  27  31
ENDBRANCH  22  25
ENDBRANCH  15  21
BRANCH  16  46
HETATM   46  C17 UNL     1       7.991 -17.609  -7.048  1.00  0.00     0.198 C
BRANCH  46  47
HETATM   47  O5  UNL     1       8.724 -18.537  -6.328  1.00  0.00    -0.398 OA
ATOM     48  H5  UNL     1       9.614 -18.597  -6.658  1.00  0.00     0.209 HD
ENDBRANCH  46  47
ENDBRANCH  16  46
ENDBRANCH  11  12
ENDBRANCH  10  11
ENDBRANCH   9  10
ENDBRANCH   7   9
ENDBRANCH   5   7
BRANCH   5  49
HETATM   49  N13 UNL     1      11.937 -16.207 -11.750  1.00  0.00    -0.218 N
ATOM     50  H13 UNL     1      12.328 -17.137 -11.602  1.00  0.00     0.200 HD
BRANCH  49  51
HETATM   51  N14 UNL     1      10.986 -16.003 -12.734  1.00  0.00    -0.235 N
HETATM   52  C18 UNL     1       9.711 -15.693 -12.533  1.00  0.00     0.224 A
HETATM   53  N15 UNL     1       9.155 -15.591 -13.770  1.00  0.00    -0.293 N
HETATM   54  N16 UNL     1      10.045 -15.828 -14.699  1.00  0.00    -0.293 N
ATOM     55  H15 UNL     1       8.178 -15.362 -13.949  1.00  0.00     0.187 HD
HETATM   56  C19 UNL     1      11.209 -16.090 -14.063  1.00  0.00     0.224 A
ATOM     57  H16 UNL     1       9.892 -15.818 -15.707  1.00  0.00     0.187 HD
ENDBRANCH  49  51
ENDBRANCH   5  49
ENDBRANCH   3   5
TORSDOF 17
ENDMDL