MODEL 3
REMARK VINA RESULT: -8.011110022      3.151      4.850
REMARK  21 active torsions:
REMARK  status: ('A' for Active; 'I' for Inactive)
REMARK    1  A    between atoms: C1_4  and  O1_6
REMARK    2  A    between atoms: O1_6  and  C2_7
REMARK    3  A    between atoms: C2_7  and  C3_8
REMARK    4  A    between atoms: N6_18  and  C7_19
REMARK    5  A    between atoms: C7_19  and  O2_20
REMARK    6  A    between atoms: O2_20  and  C8_21
REMARK    7  A    between atoms: C8_21  and  N7_22
REMARK    8  A    between atoms: C8_21  and  C9_25
REMARK       I    between atoms: C9_25  and  N8_27
REMARK    9  A    between atoms: N8_27  and  N9_29
REMARK   10  A    between atoms: C10_32  and  N10_33
REMARK   11  A    between atoms: N12_39  and  C12_40
REMARK   12  A    between atoms: C12_40  and  N13_41
REMARK   13  A    between atoms: N15_45  and  C14_46
REMARK   14  A    between atoms: C15_48  and  C16_49
REMARK   15  A    between atoms: C16_49  and  O4_50
REMARK   16  A    between atoms: C16_49  and  N16_52
REMARK   17  A    between atoms: N16_52  and  C17_54
REMARK   18  A    between atoms: C17_54  and  C18_55
REMARK   19  A    between atoms: C17_54  and  C19_58
REMARK   20  A    between atoms: C19_58  and  N17_59
REMARK   21  A    between atoms: C19_58  and  O7_63
ROOT
HETATM    1  C3  UNL     1       5.275 -17.270  -6.686  1.00  0.00     0.112 A
HETATM    2  N3  UNL     1       6.457 -16.721  -7.005  1.00  0.00    -0.339 N
ATOM      3  H3  UNL     1       6.894 -16.807  -7.922  1.00  0.00     0.167 HD
HETATM    4  C4  UNL     1       6.995 -16.049  -5.986  1.00  0.00     0.109 A
HETATM    5  C5  UNL     1       8.158 -15.336  -5.793  1.00  0.00     0.117 A
HETATM    6  C6  UNL     1       8.430 -14.754  -4.575  1.00  0.00     0.124 A
HETATM    7  N4  UNL     1       9.628 -14.146  -4.730  1.00  0.00    -0.280 N
ATOM      8  H4  UNL     1      10.128 -13.618  -4.015  1.00  0.00     0.188 HD
HETATM    9  N5  UNL     1      10.040 -14.358  -5.970  1.00  0.00    -0.237 N
ATOM     10  H5  UNL     1      10.918 -14.008  -6.354  1.00  0.00     0.208 HD
HETATM   11  N6  UNL     1       9.168 -15.081  -6.647  1.00  0.00    -0.249 N
HETATM   12  C10 UNL     1       7.519 -14.901  -3.563  1.00  0.00     0.131 A
HETATM   13  N11 UNL     1       6.398 -15.601  -3.788  1.00  0.00    -0.325 N
ATOM     14  H11 UNL     1       5.740 -15.692  -3.013  1.00  0.00     0.169 HD
HETATM   15  C11 UNL     1       6.069 -16.191  -4.944  1.00  0.00     0.141 A
HETATM   16  N12 UNL     1       5.052 -16.926  -5.398  1.00  0.00    -0.300 N
ENDROOT
BRANCH  16  17
HETATM   17  C12 UNL     1       3.852 -17.338  -4.687  1.00  0.00     0.284 C
BRANCH  17  18
HETATM   18  N13 UNL     1       2.833 -16.309  -4.737  1.00  0.00    -0.253 N
HETATM   19  N14 UNL     1       2.140 -16.068  -5.883  1.00  0.00    -0.290 N
HETATM   20  C13 UNL     1       1.335 -15.042  -5.716  1.00  0.00     0.203 A
ATOM     21  H14 UNL     1       2.232 -16.605  -6.745  1.00  0.00     0.188 HD
HETATM   22  N15 UNL     1       1.512 -14.608  -4.424  1.00  0.00    -0.310 N
HETATM   23  C15 UNL     1       2.431 -15.397  -3.837  1.00  0.00     0.179 A
BRANCH  22  24
HETATM   24  C14 UNL     1       0.793 -13.472  -3.865  1.00  0.00     0.246 C
HETATM   25 CL1  UNL     1       0.931 -12.092  -4.986  1.00  0.00    -0.108 Cl
ENDBRANCH  22  24
BRANCH  23  26
HETATM   26  C16 UNL     1       2.839 -15.404  -2.447  1.00  0.00     0.184 C
BRANCH  26  27
HETATM   27  O4  UNL     1       4.093 -15.188  -2.159  1.00  0.00    -0.344 OA
ATOM     28  H4  UNL     1       4.304 -14.560  -1.478  1.00  0.00     0.219 HD
ENDBRANCH  26  27
BRANCH  26  29
HETATM   29  N16 UNL     1       2.043 -15.616  -1.317  1.00  0.00    -0.350 N
ATOM     30  H16 UNL     1       1.732 -16.556  -1.074  1.00  0.00     0.162 HD
BRANCH  29  31
HETATM   31  C17 UNL     1       1.657 -14.462  -0.477  1.00  0.00     0.241 C
BRANCH  31  32
HETATM   32  C18 UNL     1       0.178 -14.346  -0.546  1.00  0.00     0.201 C
HETATM   33  O5  UNL     1      -0.529 -15.195  -1.140  1.00  0.00    -0.646 OA
HETATM   34  O6  UNL     1      -0.438 -13.269   0.061  1.00  0.00    -0.646 OA
ENDBRANCH  31  32
BRANCH  31  35
HETATM   35  C19 UNL     1       2.164 -14.665   0.938  1.00  0.00     0.349 C
BRANCH  35  36
HETATM   36  N17 UNL     1       1.152 -15.390   1.666  1.00  0.00    -0.051 N
ATOM     37 3H17 UNL     1       0.326 -15.592   1.102  1.00  0.00     0.277 HD
ATOM     38 2H17 UNL     1       1.420 -16.355   1.863  1.00  0.00     0.277 HD
ATOM     39 1H17 UNL     1       0.936 -14.859   2.509  1.00  0.00     0.277 HD
ENDBRANCH  35  36
BRANCH  35  40
HETATM   40  O7  UNL     1       2.422 -13.408   1.472  1.00  0.00    -0.368 OA
ATOM     41  H7  UNL     1       2.973 -13.532   2.236  1.00  0.00     0.212 HD
ENDBRANCH  35  40
ENDBRANCH  31  35
ENDBRANCH  29  31
ENDBRANCH  26  29
ENDBRANCH  23  26
ENDBRANCH  17  18
ENDBRANCH  16  17
BRANCH   1  42
HETATM   42  C2  UNL     1       4.410 -18.103  -7.583  1.00  0.00     0.255 C
BRANCH  42  43
HETATM   43  O1  UNL     1       5.062 -19.374  -7.799  1.00  0.00    -0.317 OA
BRANCH  43  44
HETATM   44  C1  UNL     1       5.395 -19.840  -9.046  1.00  0.00     0.225 C
HETATM   45  N1  UNL     1       4.899 -19.201 -10.052  1.00  0.00    -0.368 N
ATOM     46  H12 UNL     1       5.146 -19.548 -10.979  1.00  0.00     0.159 HD
ATOM     47  H11 UNL     1       4.297 -18.399  -9.867  1.00  0.00     0.159 HD
HETATM   48  N2  UNL     1       6.240 -20.966  -9.305  1.00  0.00    -0.057 NA
ENDBRANCH  43  44
ENDBRANCH  42  43
ENDBRANCH   1  42
BRANCH  12  49
HETATM   49  N10 UNL     1       7.757 -14.369  -2.423  1.00  0.00    -0.383 N
ATOM     50 2H10 UNL     1       8.608 -14.582  -1.904  1.00  0.00     0.157 HD
ATOM     51 1H10 UNL     1       7.080 -13.718  -2.025  1.00  0.00     0.157 HD
ENDBRANCH  12  49
BRANCH  11  52
HETATM   52  C7  UNL     1       9.220 -15.531  -8.020  1.00  0.00     0.328 C
BRANCH  52  53
HETATM   53  O2  UNL     1      10.539 -15.323  -8.493  1.00  0.00    -0.310 OA
BRANCH  53  54
HETATM   54  C8  UNL     1      10.809 -14.609  -9.649  1.00  0.00     0.208 C
BRANCH  54  55
HETATM   55  N7  UNL     1      11.400 -13.472  -9.476  1.00  0.00    -0.375 N
ATOM     56  H72 UNL     1      11.028 -12.771  -8.834  1.00  0.00     0.158 HD
ATOM     57  H71 UNL     1      12.251 -13.333 -10.021  1.00  0.00     0.158 HD
ENDBRANCH  54  55
BRANCH  54  58
HETATM   58  C9  UNL     1      10.458 -15.093 -10.986  1.00  0.00     0.310 C
HETATM   59  O3  UNL     1      11.259 -15.856 -11.609  1.00  0.00    -0.262 OA
HETATM   60  N8  UNL     1       9.223 -14.690 -11.543  1.00  0.00    -0.269 N
ATOM     61  H8  UNL     1       8.603 -14.077 -11.014  1.00  0.00     0.189 HD
BRANCH  60  62
HETATM   62  N9  UNL     1       8.842 -15.135 -12.835  1.00  0.00    -0.342 N
ATOM     63  H92 UNL     1       9.432 -15.813 -13.316  1.00  0.00     0.176 HD
ATOM     64  H91 UNL     1       7.991 -14.779 -13.271  1.00  0.00     0.176 HD
ENDBRANCH  60  62
ENDBRANCH  54  58
ENDBRANCH  53  54
ENDBRANCH  52  53
ENDBRANCH  11  52
TORSDOF 21
ENDMDL