MODEL 3
REMARK VINA RESULT: -9.369714896      2.159      3.822
REMARK  21 active torsions:
REMARK  status: ('A' for Active; 'I' for Inactive)
REMARK    1  A    between atoms: C2_2  and  O2_4
REMARK    2  A    between atoms: O2_4  and  N1_5
REMARK    3  A    between atoms: N1_5  and  C3_7
REMARK    4  A    between atoms: C3_7  and  N2_8
REMARK    5  A    between atoms: C3_7  and  C10_30
REMARK    6  A    between atoms: N2_8  and  C4_10
REMARK    7  A    between atoms: C4_10  and  C5_11
REMARK    8  A    between atoms: C6_14  and  N4_15
REMARK    9  A    between atoms: C7_20  and  N6_21
REMARK   10  A    between atoms: C8_24  and  C9_25
REMARK   11  A    between atoms: C9_25  and  O3_26
REMARK   12  A    between atoms: C9_25  and  O4_28
REMARK   13  A    between atoms: N7_34  and  C12_35
REMARK   14  A    between atoms: C12_35  and  C13_36
REMARK   15  A    between atoms: C13_36  and  O7_37
REMARK   16  A    between atoms: O7_37  and  C14_38
REMARK   17  A    between atoms: C14_38  and  C15_40
REMARK   18  A    between atoms: C17_44  and  S1_45
REMARK   19  A    between atoms: S1_45  and  N9_46
REMARK   20  A    between atoms: S1_45  and  N10_50
REMARK       I    between atoms: N10_50  and  C18_52
REMARK   21  A    between atoms: N12_55  and  N13_56
ROOT
HETATM    1  C10 UNL     1       9.610 -13.722  -5.116  1.00  0.00     0.293 C
HETATM    2  O5  UNL     1      10.179 -12.449  -4.845  1.00  0.00    -0.336 OA
HETATM    3  C11 UNL     1      10.233 -12.403  -3.474  1.00  0.00     0.365 C
HETATM    4  O6  UNL     1       9.106 -13.088  -3.019  1.00  0.00    -0.275 OA
HETATM    5  N7  UNL     1       8.701 -13.869  -4.019  1.00  0.00    -0.156 NA
ENDROOT
BRANCH   1   6
HETATM    6  C3  UNL     1       8.823 -13.596  -6.394  1.00  0.00     0.144 C
BRANCH   6   7
HETATM    7  N1  UNL     1       7.670 -13.050  -6.337  1.00  0.00    -0.242 N
ATOM      8  H1  UNL     1       7.530 -12.156  -5.866  1.00  0.00     0.196 HD
BRANCH   7   9
HETATM    9  O2  UNL     1       6.612 -13.721  -6.942  1.00  0.00    -0.199 OA
BRANCH   9  10
HETATM   10  C2  UNL     1       5.785 -14.461  -6.117  1.00  0.00     0.277 C
HETATM   11  C1  UNL     1       5.606 -15.931  -6.293  1.00  0.00     0.128 C
HETATM   12  O1  UNL     1       5.142 -13.925  -5.174  1.00  0.00    -0.264 OA
ENDBRANCH   9  10
ENDBRANCH   7   9
ENDBRANCH   6   7
BRANCH   6  13
HETATM   13  N2  UNL     1       9.354 -14.057  -7.613  1.00  0.00    -0.369 N
ATOM     14  H2  UNL     1       9.614 -15.039  -7.702  1.00  0.00     0.161 HD
BRANCH  13  15
HETATM   15  C4  UNL     1       9.543 -13.163  -8.758  1.00  0.00     0.179 C
BRANCH  15  16
HETATM   16  C5  UNL     1      10.030 -13.912  -9.940  1.00  0.00     0.059 A
HETATM   17  N3  UNL     1       9.154 -14.183 -10.929  1.00  0.00    -0.193 N
HETATM   18  C6  UNL     1       9.557 -14.831 -12.021  1.00  0.00     0.677 A
ATOM     19  H3  UNL     1       8.181 -13.891 -10.841  1.00  0.00     0.184 HD
HETATM   20  N5  UNL     1      10.841 -15.231 -12.162  1.00  0.00    -0.177 N
HETATM   21  C7  UNL     1      11.728 -14.978 -11.199  1.00  0.00     0.128 A
ATOM     22  H5  UNL     1      11.130 -15.727 -13.005  1.00  0.00     0.186 HD
HETATM   23  C8  UNL     1      11.343 -14.295 -10.031  1.00  0.00     0.065 A
BRANCH  18  24
HETATM   24  N4  UNL     1       8.753 -15.113 -13.013  1.00  0.00    -0.234 N
ATOM     25  H42 UNL     1       8.292 -16.021 -12.973  1.00  0.00     0.174 HD
ATOM     26  H41 UNL     1       8.593 -14.472 -13.790  1.00  0.00     0.174 HD
ENDBRANCH  18  24
BRANCH  21  27
HETATM   27  N6  UNL     1      12.965 -15.339 -11.288  1.00  0.00    -0.384 N
ATOM     28  H62 UNL     1      13.150 -16.289 -11.611  1.00  0.00     0.157 HD
ATOM     29  H61 UNL     1      13.734 -14.714 -11.048  1.00  0.00     0.157 HD
ENDBRANCH  21  27
BRANCH  23  30
HETATM   30  C9  UNL     1      12.372 -14.053  -8.979  1.00  0.00     0.294 C
BRANCH  30  31
HETATM   31  O3  UNL     1      12.718 -15.348  -8.514  1.00  0.00    -0.367 OA
ATOM     32  H3  UNL     1      13.668 -15.355  -8.514  1.00  0.00     0.213 HD
ENDBRANCH  30  31
BRANCH  30  33
HETATM   33  O4  UNL     1      13.539 -13.492  -9.429  1.00  0.00    -0.367 OA
ATOM     34  H4  UNL     1      13.758 -12.655  -9.037  1.00  0.00     0.213 HD
ENDBRANCH  30  33
ENDBRANCH  23  30
ENDBRANCH  15  16
ENDBRANCH  13  15
ENDBRANCH   6  13
ENDBRANCH   1   6
BRANCH   5  35
HETATM   35  C12 UNL     1       8.408 -15.221  -3.633  1.00  0.00     0.151 C
BRANCH  35  36
HETATM   36  C13 UNL     1       7.250 -15.194  -2.643  1.00  0.00     0.196 C
BRANCH  36  37
HETATM   37  O7  UNL     1       6.352 -16.213  -2.917  1.00  0.00    -0.315 OA
BRANCH  37  38
HETATM   38  C14 UNL     1       5.281 -16.624  -2.147  1.00  0.00     0.313 C
HETATM   39  O8  UNL     1       5.490 -17.581  -1.335  1.00  0.00    -0.257 OA
BRANCH  38  40
HETATM   40  C15 UNL     1       3.974 -15.998  -2.247  1.00  0.00     0.148 A
HETATM   41  C16 UNL     1       3.123 -16.073  -3.290  1.00  0.00     0.128 A
HETATM   42  N8  UNL     1       2.027 -15.300  -2.984  1.00  0.00    -0.339 N
HETATM   43  C17 UNL     1       2.213 -14.775  -1.794  1.00  0.00     0.223 A
ATOM     44  H8  UNL     1       1.211 -15.159  -3.579  1.00  0.00     0.167 HD
HETATM   45  N12 UNL     1       3.378 -15.179  -1.323  1.00  0.00    -0.229 N
BRANCH  43  46
HETATM   46  S1  UNL     1       1.014 -13.434  -0.858  1.00  0.00     0.175 S
HETATM   47  O9  UNL     1      -0.400 -15.122  -1.263  1.00  0.00    -0.220 OA
BRANCH  46  48
HETATM   48  N9  UNL     1      -0.308 -12.822  -2.081  1.00  0.00    -0.338 N
ATOM     49  H92 UNL     1      -1.244 -13.217  -2.169  1.00  0.00     0.167 HD
ATOM     50  H91 UNL     1       0.073 -12.046  -2.623  1.00  0.00     0.167 HD
ENDBRANCH  46  48
BRANCH  46  51
HETATM   51  N10 UNL     1       0.414 -14.100   0.825  1.00  0.00    -0.249 N
HETATM   52  C18 UNL     1       1.237 -13.909   1.947  1.00  0.00     0.341 C
HETATM   53  N11 UNL     1       0.890 -14.350   3.242  1.00  0.00    -0.039 NA
HETATM   54  O10 UNL     1       2.345 -13.318   1.836  1.00  0.00    -0.250 OA
ATOM     55  H10 UNL     1      -0.481 -14.582   0.908  1.00  0.00     0.181 HD
ENDBRANCH  46  51
ENDBRANCH  43  46
BRANCH  45  56
HETATM   56  N13 UNL     1       3.981 -14.868  -0.098  1.00  0.00    -0.336 N
ATOM     57 2H13 UNL     1       4.743 -14.217   0.090  1.00  0.00     0.177 HD
ATOM     58 1H13 UNL     1       3.690 -15.301   0.778  1.00  0.00     0.177 HD
ENDBRANCH  45  56
ENDBRANCH  38  40
ENDBRANCH  37  38
ENDBRANCH  36  37
ENDBRANCH  35  36
ENDBRANCH   5  35
TORSDOF 21
ENDMDL