MODEL 2
REMARK VINA RESULT: -7.563747673      2.508      8.746
REMARK  20 active torsions:
REMARK  status: ('A' for Active; 'I' for Inactive)
REMARK    1  A    between atoms: C2_2  and  O1_3
REMARK    2  A    between atoms: O1_3  and  N1_4
REMARK    3  A    between atoms: N1_4  and  C3_5
REMARK    4  A    between atoms: N1_4  and  C4_7
REMARK    5  A    between atoms: C4_7  and  C5_8
REMARK    6  A    between atoms: C6_12  and  O3_13
REMARK    7  A    between atoms: O3_13  and  C7_14
REMARK    8  A    between atoms: C8_16  and  O5_17
REMARK    9  A    between atoms: O5_17  and  C9_18
REMARK   10  A    between atoms: C10_19  and  N3_20
REMARK   11  A    between atoms: C13_26  and  C14_27
REMARK   12  A    between atoms: C14_27  and  O6_28
REMARK   13  A    between atoms: O6_28  and  C15_29
REMARK   14  A    between atoms: C17_32  and  N4_33
REMARK   15  A    between atoms: C19_38  and  N5_39
REMARK   16  A    between atoms: C20_43  and  O8_44
REMARK   17  A    between atoms: C21_46  and  N6_47
REMARK   18  A    between atoms: C23_52  and  N7_53
REMARK   19  A    between atoms: C24_57  and  N8_58
REMARK   20  A    between atoms: C26_64  and  O9_65
ROOT
HETATM    1  C7  UNL     1       6.705 -16.586  -3.554  1.00  0.00     0.296 C
HETATM    2  O4  UNL     1       5.424 -16.122  -3.500  1.00  0.00    -0.327 OA
HETATM    3  C8  UNL     1       5.051 -15.466  -4.675  1.00  0.00     0.294 C
HETATM    4  C21 UNL     1       6.304 -14.798  -5.217  1.00  0.00     0.240 C
HETATM    5  C22 UNL     1       7.132 -15.941  -5.840  1.00  0.00     0.075 C
HETATM    6  C23 UNL     1       6.883 -17.182  -4.959  1.00  0.00     0.240 C
ENDROOT
BRANCH   3   7
HETATM    7  O5  UNL     1       3.996 -14.623  -4.447  1.00  0.00    -0.349 OA
BRANCH   7   8
HETATM    8  C9  UNL     1       2.720 -15.228  -4.614  1.00  0.00     0.184 C
HETATM    9  C10 UNL     1       2.024 -14.557  -5.720  1.00  0.00     0.215 C
HETATM   10  C11 UNL     1       0.548 -14.643  -5.780  1.00  0.00     0.036 C
HETATM   11  C12 UNL     1      -0.127 -15.082  -4.509  1.00  0.00     0.011 C
HETATM   12  C13 UNL     1       0.632 -14.548  -3.353  1.00  0.00     0.041 C
HETATM   13  C20 UNL     1       1.993 -15.222  -3.308  1.00  0.00     0.155 C
BRANCH   9  14
HETATM   14  N3  UNL     1       2.404 -13.132  -5.672  1.00  0.00    -0.072 N
ATOM     15  H33 UNL     1       2.831 -12.862  -4.787  1.00  0.00     0.274 HD
ATOM     16  H32 UNL     1       3.196 -12.909  -6.275  1.00  0.00     0.274 HD
ATOM     17  H31 UNL     1       1.568 -12.590  -5.894  1.00  0.00     0.274 HD
ENDBRANCH   9  14
BRANCH  12  18
HETATM   18  C14 UNL     1      -0.055 -14.499  -2.035  1.00  0.00     0.178 C
BRANCH  18  19
HETATM   19  O6  UNL     1       0.311 -15.333  -1.079  1.00  0.00    -0.359 OA
BRANCH  19  20
HETATM   20  C15 UNL     1       0.538 -15.067   0.204  1.00  0.00     0.289 C
HETATM   21  O7  UNL     1       1.500 -13.999   0.315  1.00  0.00    -0.357 OA
HETATM   22  C16 UNL     1       1.390 -13.463   1.596  1.00  0.00     0.203 C
HETATM   23  C17 UNL     1       1.783 -14.465   2.653  1.00  0.00     0.209 C
HETATM   24  C18 UNL     1       2.023 -15.830   2.097  1.00  0.00     0.072 C
HETATM   25  C19 UNL     1       1.192 -16.206   0.922  1.00  0.00     0.240 C
BRANCH  23  26
HETATM   26  N4  UNL     1       0.867 -14.441   3.785  1.00  0.00    -0.073 N
ATOM     27  H43 UNL     1      -0.009 -14.915   3.565  1.00  0.00     0.274 HD
ATOM     28  H42 UNL     1       1.192 -15.046   4.539  1.00  0.00     0.274 HD
ATOM     29  H41 UNL     1       0.703 -13.490   4.117  1.00  0.00     0.274 HD
ENDBRANCH  23  26
BRANCH  25  30
HETATM   30  N5  UNL     1       2.049 -16.882  -0.069  1.00  0.00    -0.070 N
ATOM     31  H53 UNL     1       1.718 -16.779  -1.028  1.00  0.00     0.274 HD
ATOM     32  H52 UNL     1       2.953 -16.428  -0.199  1.00  0.00     0.274 HD
ATOM     33  H51 UNL     1       2.123 -17.854   0.232  1.00  0.00     0.274 HD
ENDBRANCH  25  30
ENDBRANCH  19  20
ENDBRANCH  18  19
ENDBRANCH  12  18
BRANCH  13  34
HETATM   34  O8  UNL     1       2.725 -14.678  -2.267  1.00  0.00    -0.392 OA
ATOM     35  H8  UNL     1       3.478 -15.200  -2.015  1.00  0.00     0.210 HD
ENDBRANCH  13  34
ENDBRANCH   7   8
ENDBRANCH   3   7
BRANCH   4  36
HETATM   36  N6  UNL     1       6.048 -13.850  -6.270  1.00  0.00    -0.070 N
ATOM     37  H63 UNL     1       6.618 -14.061  -7.090  1.00  0.00     0.274 HD
ATOM     38  H62 UNL     1       5.119 -13.995  -6.666  1.00  0.00     0.274 HD
ATOM     39  H61 UNL     1       6.171 -12.878  -5.987  1.00  0.00     0.274 HD
ENDBRANCH   4  36
BRANCH   1  40
HETATM   40  O3  UNL     1       7.104 -17.426  -2.531  1.00  0.00    -0.324 OA
BRANCH  40  41
HETATM   41  C6  UNL     1       7.812 -16.744  -1.553  1.00  0.00     0.357 C
HETATM   42  N2  UNL     1       7.452 -15.306  -1.455  1.00  0.00    -0.038 N
HETATM   43  C5  UNL     1       8.701 -14.714  -0.916  1.00  0.00     0.240 C
ATOM     44  H22 UNL     1       6.610 -15.108  -0.914  1.00  0.00     0.281 HD
ATOM     45  H21 UNL     1       7.112 -14.885  -2.319  1.00  0.00     0.281 HD
HETATM   46  C26 UNL     1       8.659 -15.060   0.578  1.00  0.00     0.186 C
HETATM   47  C25 UNL     1       7.864 -16.279   0.886  1.00  0.00     0.235 C
HETATM   48  C24 UNL     1       7.735 -17.310  -0.205  1.00  0.00     0.275 C
HETATM   49  F1  UNL     1       6.614 -15.908   1.366  1.00  0.00    -0.244 F
BRANCH  43  50
HETATM   50  C4  UNL     1       8.818 -13.251  -1.130  1.00  0.00     0.194 C
BRANCH  50  51
HETATM   51  N1  UNL     1       9.638 -13.031  -2.362  1.00  0.00    -0.232 N
BRANCH  51  52
HETATM   52  O1  UNL     1       9.677 -13.616  -3.424  1.00  0.00    -0.276 OA
BRANCH  52  53
HETATM   53  C2  UNL     1       9.795 -14.195  -4.521  1.00  0.00     0.197 C
HETATM   54  C1  UNL     1       9.807 -13.309  -5.787  1.00  0.00     0.036 C
ENDBRANCH  52  53
ENDBRANCH  51  52
BRANCH  51  55
HETATM   55  C3  UNL     1      10.538 -11.857  -2.125  1.00  0.00     0.376 C
HETATM   56  O2  UNL     1      11.260 -11.432  -3.025  1.00  0.00    -0.281 OA
ENDBRANCH  51  55
ENDBRANCH  50  51
ENDBRANCH  43  50
BRANCH  46  57
HETATM   57  O9  UNL     1       8.002 -13.998   1.255  1.00  0.00    -0.390 OA
ATOM     58  H9  UNL     1       7.075 -14.049   1.052  1.00  0.00     0.210 HD
ENDBRANCH  46  57
BRANCH  48  59
HETATM   59  N8  UNL     1       6.460 -18.037   0.012  1.00  0.00    -0.068 N
ATOM     60  H83 UNL     1       6.188 -18.027   0.995  1.00  0.00     0.275 HD
ATOM     61  H82 UNL     1       5.669 -17.524  -0.376  1.00  0.00     0.275 HD
ATOM     62  H81 UNL     1       6.502 -18.989  -0.352  1.00  0.00     0.275 HD
ENDBRANCH  48  59
ENDBRANCH  40  41
ENDBRANCH   1  40
BRANCH   6  63
HETATM   63  N7  UNL     1       7.973 -18.093  -5.058  1.00  0.00    -0.070 N
ATOM     64  H73 UNL     1       8.674 -17.896  -4.343  1.00  0.00     0.274 HD
ATOM     65  H72 UNL     1       7.689 -19.028  -4.765  1.00  0.00     0.274 HD
ATOM     66  H71 UNL     1       8.400 -18.120  -5.984  1.00  0.00     0.274 HD
ENDBRANCH   6  63
TORSDOF 20
ENDMDL