MODEL 3
REMARK VINA RESULT: -8.940392680      4.575      9.700
REMARK  15 active torsions:
REMARK  status: ('A' for Active; 'I' for Inactive)
REMARK    1  A    between atoms: S1_2  and  N1_5
REMARK    2  A    between atoms: N1_5  and  C2_7
REMARK    3  A    between atoms: C2_7  and  C3_8
REMARK    4  A    between atoms: C3_8  and  N2_9
REMARK       I    between atoms: N2_9  and  C4_11
REMARK    5  A    between atoms: C4_11  and  C5_13
REMARK    6  A    between atoms: C6_16  and  S2_17
REMARK    7  A    between atoms: S2_17  and  C7_20
REMARK    8  A    between atoms: N6_25  and  C8_26
REMARK    9  A    between atoms: C10_31  and  O6_32
REMARK   10  A    between atoms: C11_34  and  O7_35
REMARK   11  A    between atoms: C12_37  and  O8_38
REMARK   12  A    between atoms: C14_43  and  N8_44
REMARK   13  A    between atoms: N8_44  and  C15_46
REMARK   14  A    between atoms: C15_46  and  C16_47
REMARK   15  A    between atoms: C17_52  and  N11_53
ROOT
HETATM    1  C5  UNL     1       8.194 -13.637  -7.141  1.00  0.00     0.136 A
HETATM    2  N3  UNL     1       6.939 -13.814  -6.846  1.00  0.00    -0.334 N
ATOM      3  H3  UNL     1       6.224 -13.550  -7.524  1.00  0.00     0.167 HD
HETATM    4  C6  UNL     1       6.577 -14.325  -5.696  1.00  0.00     0.180 A
HETATM    5  S3  UNL     1       8.085 -14.587  -4.946  1.00  0.00    -0.040 SA
HETATM    6  C14 UNL     1       9.124 -13.999  -6.215  1.00  0.00     0.105 A
ENDROOT
BRANCH   4   7
HETATM    7  S2  UNL     1       4.742 -14.700  -4.961  1.00  0.00     0.250 S
HETATM    8  O4  UNL     1       4.311 -15.197  -3.603  1.00  0.00    -0.214 OA
HETATM    9  O5  UNL     1       3.532 -13.888  -6.450  1.00  0.00    -0.214 OA
BRANCH   7  10
HETATM   10  C7  UNL     1       4.407 -16.362  -5.917  1.00  0.00     0.209 A
HETATM   11  N4  UNL     1       3.487 -16.596  -6.846  1.00  0.00    -0.271 N
HETATM   12  N5  UNL     1       3.577 -17.798  -7.292  1.00  0.00    -0.235 N
ATOM     13  H4  UNL     1       2.801 -15.912  -7.164  1.00  0.00     0.189 HD
HETATM   14  N6  UNL     1       4.530 -18.441  -6.713  1.00  0.00    -0.215 N
ATOM     15  H5  UNL     1       2.971 -18.192  -8.011  1.00  0.00     0.208 HD
HETATM   16  C13 UNL     1       5.081 -17.602  -5.848  1.00  0.00     0.248 A
HETATM   17  F1  UNL     1       6.131 -17.803  -4.985  1.00  0.00    -0.181 F
BRANCH  14  18
HETATM   18  C8  UNL     1       4.941 -19.807  -6.941  1.00  0.00     0.341 C
HETATM   19  N7  UNL     1       3.972 -20.348  -7.881  1.00  0.00    -0.047 N
HETATM   20  C9  UNL     1       4.030 -21.771  -7.966  1.00  0.00     0.269 C
ATOM     21  H72 UNL     1       3.028 -20.032  -7.658  1.00  0.00     0.279 HD
ATOM     22  H71 UNL     1       4.074 -19.920  -8.802  1.00  0.00     0.279 HD
HETATM   23  C10 UNL     1       5.466 -22.248  -7.906  1.00  0.00     0.175 C
HETATM   24  C11 UNL     1       6.396 -21.171  -8.389  1.00  0.00     0.181 C
HETATM   25  C12 UNL     1       6.340 -19.963  -7.442  1.00  0.00     0.201 C
BRANCH  23  26
HETATM   26  O6  UNL     1       5.764 -22.540  -6.588  1.00  0.00    -0.391 OA
ATOM     27  H6  UNL     1       6.495 -23.147  -6.580  1.00  0.00     0.210 HD
ENDBRANCH  23  26
BRANCH  24  28
HETATM   28  O7  UNL     1       6.105 -20.775  -9.695  1.00  0.00    -0.390 OA
ATOM     29  H7  UNL     1       6.891 -20.660 -10.216  1.00  0.00     0.210 HD
ENDBRANCH  24  28
BRANCH  25  30
HETATM   30  O8  UNL     1       7.253 -20.276  -6.417  1.00  0.00    -0.389 OA
ATOM     31  H8  UNL     1       7.992 -19.679  -6.388  1.00  0.00     0.210 HD
ENDBRANCH  25  30
ENDBRANCH  14  18
ENDBRANCH   7  10
ENDBRANCH   4   7
BRANCH   1  32
HETATM   32  C4  UNL     1       8.564 -13.052  -8.469  1.00  0.00     0.271 C
HETATM   33  N2  UNL     1       8.839 -13.919  -9.548  1.00  0.00    -0.354 N
ATOM     34  H2  UNL     1       8.787 -14.929  -9.410  1.00  0.00     0.162 HD
HETATM   35  O3  UNL     1       8.635 -11.833  -8.651  1.00  0.00    -0.266 OA
BRANCH  33  36
HETATM   36  C3  UNL     1       9.191 -13.397 -10.838  1.00  0.00     0.143 C
BRANCH  36  37
HETATM   37  C2  UNL     1      10.305 -14.154 -11.505  1.00  0.00     0.151 C
BRANCH  37  38
HETATM   38  N1  UNL     1       9.753 -15.015 -12.556  1.00  0.00    -0.318 N
ATOM     39  H1  UNL     1       8.782 -15.035 -12.868  1.00  0.00     0.172 HD
BRANCH  38  40
HETATM   40  S1  UNL     1      11.047 -15.998 -13.179  1.00  0.00     0.222 S
HETATM   41  C1  UNL     1      11.276 -15.683 -14.892  1.00  0.00     0.185 C
HETATM   42  O1  UNL     1      12.293 -15.627 -12.411  1.00  0.00    -0.206 OA
HETATM   43  O2  UNL     1      10.750 -17.442 -12.896  1.00  0.00    -0.206 OA
ENDBRANCH  38  40
ENDBRANCH  37  38
ENDBRANCH  36  37
ENDBRANCH  33  36
ENDBRANCH   1  32
BRANCH   6  44
HETATM   44  N8  UNL     1      10.543 -13.938  -6.209  1.00  0.00    -0.375 N
ATOM     45  H8  UNL     1      11.065 -14.334  -5.426  1.00  0.00     0.160 HD
BRANCH  44  46
HETATM   46  C15 UNL     1      11.260 -13.310  -7.319  1.00  0.00     0.198 C
BRANCH  46  47
HETATM   47  C16 UNL     1      12.081 -14.282  -8.059  1.00  0.00     0.130 A
HETATM   48  N9  UNL     1      11.605 -15.302  -8.785  1.00  0.00    -0.273 N
HETATM   49  N10 UNL     1      12.615 -15.977  -9.308  1.00  0.00    -0.131 N
ATOM     50  H9  UNL     1      10.618 -15.524  -8.913  1.00  0.00     0.189 HD
HETATM   51  C17 UNL     1      13.746 -15.391  -8.919  1.00  0.00     0.691 A
ATOM     52  H10 UNL     1      12.541 -16.800  -9.905  1.00  0.00     0.205 HD
HETATM   53  N12 UNL     1      13.408 -14.329  -8.136  1.00  0.00    -0.177 N
ATOM     54  H12 UNL     1      14.057 -13.684  -7.687  1.00  0.00     0.185 HD
BRANCH  51  55
HETATM   55  N11 UNL     1      14.928 -15.772  -9.235  1.00  0.00    -0.233 N
ATOM     56 2H11 UNL     1      15.320 -16.708  -9.135  1.00  0.00     0.174 HD
ATOM     57 1H11 UNL     1      15.654 -15.179  -9.638  1.00  0.00     0.174 HD
ENDBRANCH  51  55
ENDBRANCH  46  47
ENDBRANCH  44  46
ENDBRANCH   6  44
TORSDOF 15
ENDMDL