MODEL 4
REMARK VINA RESULT: -6.737654003      0.409      1.227
REMARK  6 active torsions:
REMARK  status: ('A' for Active; 'I' for Inactive)
REMARK    1  A    between atoms: C4_5  and  N2_6
REMARK    2  A    between atoms: N2_6  and  C5_9
REMARK    3  A    between atoms: C5_9  and  C6_10
REMARK    4  A    between atoms: C6_10  and  C7_11
REMARK    5  A    between atoms: C7_11  and  C8_12
REMARK    6  A    between atoms: C8_12  and  C9_13
ROOT
HETATM    1  N2  UNL     1      -0.188   1.217   5.880  1.00  0.00    -0.071 N
ATOM      2  H21 UNL     1       0.238   2.003   5.391  1.00  0.00     0.277 HD
ATOM      3  H22 UNL     1       0.614   0.920   6.434  1.00  0.00     0.277 HD
ENDROOT
BRANCH   1   4
HETATM    4  C4  UNL     1      -0.596   0.204   4.976  1.00  0.00     0.189 C
HETATM    5  C3  UNL     1      -0.864   0.754   3.576  1.00  0.00     0.063 C
HETATM    6  C2  UNL     1      -1.661  -0.318   2.866  1.00  0.00     0.274 C
HETATM    7  N1  UNL     1      -1.082  -1.632   3.070  1.00  0.00     0.084 N
HETATM    8  C1  UNL     1      -1.276  -2.524   1.947  1.00  0.00     0.309 C
HETATM    9  C16 UNL     1       0.279  -1.522   3.480  1.00  0.00     0.274 C
HETATM   10  C15 UNL     1       0.275  -0.996   4.931  1.00  0.00     0.063 C
ENDBRANCH   1   4
BRANCH   1  11
HETATM   11  C5  UNL     1      -1.273   1.646   6.718  1.00  0.00     0.232 C
BRANCH  11  12
HETATM   12  C6  UNL     1      -0.788   2.232   8.002  1.00  0.00     0.027 C
BRANCH  12  13
HETATM   13  C7  UNL     1       0.629   1.762   8.362  1.00  0.00     0.002 C
BRANCH  13  14
HETATM   14  C8  UNL     1       0.541   1.344   9.806  1.00  0.00     0.005 C
BRANCH  14  15
HETATM   15  C9  UNL     1       0.495  -0.163   9.950  1.00  0.00    -0.014 C
HETATM   16  C10 UNL     1      -0.900  -0.667  10.213  1.00  0.00     0.004 C
HETATM   17  C11 UNL     1      -0.816  -2.150  10.419  1.00  0.00     0.000 C
HETATM   18  C12 UNL     1      -0.222  -2.901   9.273  1.00  0.00     0.000 C
HETATM   19  C13 UNL     1       0.640  -2.149   8.363  1.00  0.00     0.000 C
HETATM   20  C14 UNL     1       0.965  -0.754   8.668  1.00  0.00     0.004 C
ENDBRANCH  14  15
ENDBRANCH  13  14
ENDBRANCH  12  13
ENDBRANCH  11  12
ENDBRANCH   1  11
TORSDOF 6
ENDMDL