MODEL 2
REMARK VINA RESULT: -6.953578067      1.259      2.158
REMARK  6 active torsions:
REMARK  status: ('A' for Active; 'I' for Inactive)
REMARK    1  A    between atoms: C2_3  and  C3_4
REMARK    2  A    between atoms: C3_4  and  C4_5
REMARK    3  A    between atoms: C4_5  and  C5_6
REMARK    4  A    between atoms: C5_6  and  C6_7
REMARK    5  A    between atoms: C8_9  and  N2_10
REMARK    6  A    between atoms: N2_10  and  C9_13
ROOT
HETATM    1  N1  UNL     1       4.476   0.851   1.133  1.00  0.00    -0.197 NA
HETATM    2  C1  UNL     1       3.698   1.346   1.834  1.00  0.00     0.059 C
HETATM    3  C2  UNL     1       2.733   1.985   2.730  1.00  0.00     0.124 C
ENDROOT
BRANCH   3   4
HETATM    4  C3  UNL     1       1.376   2.111   2.111  1.00  0.00     0.014 C
BRANCH   4   5
HETATM    5  C4  UNL     1       0.238   1.993   3.097  1.00  0.00     0.001 C
BRANCH   5   6
HETATM    6  C5  UNL     1      -0.341   0.589   2.896  1.00  0.00     0.005 C
BRANCH   6   7
HETATM    7  C6  UNL     1      -0.447  -0.148   4.187  1.00  0.00    -0.011 C
HETATM    8  C7  UNL     1       0.737  -1.037   4.561  1.00  0.00     0.037 C
HETATM    9  C8  UNL     1       0.604  -0.498   5.986  1.00  0.00     0.187 C
HETATM   10  C16 UNL     1      -0.080   0.729   5.369  1.00  0.00     0.037 C
BRANCH   9  11
HETATM   11  N2  UNL     1      -0.264  -1.259   6.827  1.00  0.00    -0.066 N
ATOM     12  H22 UNL     1      -1.194  -0.842   6.869  1.00  0.00     0.278 HD
ATOM     13  H21 UNL     1      -0.504  -2.151   6.398  1.00  0.00     0.278 HD
BRANCH  11  14
HETATM   14  C9  UNL     1       0.273  -1.444   8.130  1.00  0.00     0.190 C
HETATM   15  C10 UNL     1       1.049  -0.227   8.628  1.00  0.00     0.038 C
HETATM   16  C11 UNL     1       0.107   0.571   9.495  1.00  0.00    -0.012 C
HETATM   17  C12 UNL     1       0.144  -0.030  10.890  1.00  0.00     0.005 C
HETATM   18  C15 UNL     1      -1.252  -0.003   9.063  1.00  0.00     0.011 C
HETATM   19  C13 UNL     1      -0.164  -1.491  10.522  1.00  0.00     0.007 C
HETATM   20  C14 UNL     1      -0.827  -1.477   9.191  1.00  0.00     0.017 C
ENDBRANCH  11  14
ENDBRANCH   9  11
ENDBRANCH   6   7
ENDBRANCH   5   6
ENDBRANCH   4   5
ENDBRANCH   3   4
TORSDOF 6
ENDMDL