MODEL 3
REMARK VINA RESULT: -6.889826873      1.112      1.437
REMARK  7 active torsions:
REMARK  status: ('A' for Active; 'I' for Inactive)
REMARK    1  A    between atoms: O1_1  and  C1_3
REMARK    2  A    between atoms: N1_7  and  C5_8
REMARK    3  A    between atoms: C5_8  and  C6_9
REMARK    4  A    between atoms: C6_9  and  C7_10
REMARK    5  A    between atoms: C7_10  and  C8_11
REMARK    6  A    between atoms: C8_11  and  C9_12
REMARK    7  A    between atoms: C9_12  and  C10_13
ROOT
HETATM    1  C6  UNL     1       1.560  -1.542   8.078  1.00  0.00     0.020 C
ENDROOT
BRANCH   1   2
HETATM    2  C5  UNL     1       1.661  -0.055   8.036  1.00  0.00     0.122 C
BRANCH   2   3
HETATM    3  N1  UNL     1       0.582   0.676   8.581  1.00  0.00    -0.391 N
HETATM    4  C4  UNL     1      -0.417  -0.130   9.224  1.00  0.00     0.122 C
HETATM    5  C3  UNL     1      -1.684  -0.300   8.467  1.00  0.00     0.023 C
HETATM    6  C2  UNL     1      -2.209   1.017   7.967  1.00  0.00     0.039 C
HETATM    7  C1  UNL     1      -1.117   1.598   7.059  1.00  0.00     0.156 C
HETATM    8  C16 UNL     1       0.108   1.812   7.907  1.00  0.00     0.089 C
BRANCH   7   9
HETATM    9  O1  UNL     1      -1.579   2.851   6.661  1.00  0.00    -0.390 OA
ATOM     10  H1  UNL     1      -2.001   2.719   5.821  1.00  0.00     0.210 HD
ENDBRANCH   7   9
ENDBRANCH   2   3
ENDBRANCH   1   2
BRANCH   1  11
HETATM   11  C7  UNL     1       1.597  -2.185   6.725  1.00  0.00     0.002 C
BRANCH  11  12
HETATM   12  C8  UNL     1       0.858  -1.404   5.682  1.00  0.00     0.000 C
BRANCH  12  13
HETATM   13  C9  UNL     1       1.168  -1.820   4.268  1.00  0.00     0.004 C
BRANCH  13  14
HETATM   14  C10 UNL     1       1.022  -0.610   3.357  1.00  0.00    -0.014 C
HETATM   15  C11 UNL     1      -0.121  -0.794   2.389  1.00  0.00     0.004 C
HETATM   16  C12 UNL     1      -1.445  -0.341   3.010  1.00  0.00     0.000 C
HETATM   17  C13 UNL     1      -1.432   1.107   3.373  1.00  0.00     0.000 C
HETATM   18  C14 UNL     1      -0.022   1.655   3.425  1.00  0.00     0.000 C
HETATM   19  C15 UNL     1       0.837   0.642   4.178  1.00  0.00     0.004 C
ENDBRANCH  13  14
ENDBRANCH  12  13
ENDBRANCH  11  12
ENDBRANCH   1  11
TORSDOF 7
ENDMDL