MODEL 5
REMARK VINA RESULT: -6.179651362      1.055      1.616
REMARK  6 active torsions:
REMARK  status: ('A' for Active; 'I' for Inactive)
REMARK    1  A    between atoms: C2_2  and  C3_3
REMARK    2  A    between atoms: C3_3  and  C4_4
REMARK    3  A    between atoms: C3_3  and  N1_6
REMARK    4  A    between atoms: N1_6  and  C5_7
REMARK    5  A    between atoms: N1_6  and  C9_11
REMARK    6  A    between atoms: C5_7  and  C6_8
ROOT
HETATM    1  N1  UNL     1       0.415  -0.330   4.568  1.00  0.00    -0.383 N
ENDROOT
BRANCH   1   2
HETATM    2  C3  UNL     1       0.627   1.004   4.184  1.00  0.00     0.093 C
BRANCH   2   3
HETATM    3  C2  UNL     1      -0.621   1.705   3.714  1.00  0.00     0.021 C
HETATM    4  C1  UNL     1      -1.462   2.382   4.724  1.00  0.00     0.007 C
ENDBRANCH   2   3
BRANCH   2   5
HETATM    5  C4  UNL     1       1.753   1.363   3.310  1.00  0.00     0.111 C
HETATM    6  S1  UNL     1       1.383   2.617   2.068  1.00  0.00    -0.096 SA
ENDBRANCH   2   5
ENDBRANCH   1   2
BRANCH   1   7
HETATM    7  C5  UNL     1       0.279  -1.380   3.672  1.00  0.00     0.064 C
BRANCH   7   8
HETATM    8  C6  UNL     1      -0.867  -1.403   2.715  1.00  0.00     0.024 A
HETATM    9  C7  UNL     1      -1.286  -2.849   2.371  1.00  0.00     0.010 A
HETATM   10  C8  UNL     1      -2.221  -1.881   2.961  1.00  0.00     0.010 A
ENDBRANCH   7   8
ENDBRANCH   1   7
BRANCH   1  11
HETATM   11  C9  UNL     1       0.306  -0.661   5.925  1.00  0.00     0.084 C
HETATM   12  C10 UNL     1      -1.100  -0.820   6.450  1.00  0.00     0.025 C
HETATM   13  C11 UNL     1      -1.057  -0.536   7.960  1.00  0.00     0.002 C
HETATM   14  C12 UNL     1      -0.784  -1.843   8.647  1.00  0.00     0.000 C
HETATM   15  C13 UNL     1       0.667  -2.068   8.870  1.00  0.00     0.000 C
HETATM   16  C14 UNL     1       1.596  -1.569   7.826  1.00  0.00     0.002 C
HETATM   17  C15 UNL     1       1.160  -1.835   6.399  1.00  0.00     0.025 C
ENDBRANCH   1  11
TORSDOF 6
ENDMDL