MODEL 3
REMARK VINA RESULT: -6.604889400      1.746      3.216
REMARK  6 active torsions:
REMARK  status: ('A' for Active; 'I' for Inactive)
REMARK    1  A    between atoms: S1_2  and  C2_3
REMARK    2  A    between atoms: C2_3  and  C3_4
REMARK    3  A    between atoms: C3_4  and  C4_5
REMARK    4  A    between atoms: C4_5  and  C5_6
REMARK    5  A    between atoms: C5_6  and  N1_7
REMARK    6  A    between atoms: N1_7  and  C6_9
ROOT
HETATM    1  C6  UNL     1       0.626  -0.188   7.399  1.00  0.00     0.026 C
HETATM    2  C7  UNL     1      -0.273  -1.241   8.038  1.00  0.00     0.035 C
HETATM    3  C8  UNL     1      -1.246  -0.599   9.017  1.00  0.00    -0.012 C
HETATM    4  C9  UNL     1      -0.455   0.064  10.108  1.00  0.00     0.009 C
HETATM    5  C10 UNL     1       0.453   1.102   9.478  1.00  0.00    -0.012 C
HETATM    6  C11 UNL     1      -0.415   2.148   8.837  1.00  0.00     0.009 C
HETATM    7  C12 UNL     1      -1.209   1.495   7.723  1.00  0.00    -0.012 C
HETATM    8  C13 UNL     1      -2.087   0.384   8.234  1.00  0.00     0.009 C
HETATM    9  C14 UNL     1      -0.229   0.910   6.752  1.00  0.00     0.035 C
HETATM   10  C15 UNL     1       1.413   0.458   8.499  1.00  0.00     0.035 C
ENDROOT
BRANCH   1  11
HETATM   11  N1  UNL     1       1.374  -0.793   6.377  1.00  0.00    -0.412 N
ATOM     12  H1  UNL     1       1.838  -0.220   5.673  1.00  0.00     0.154 HD
BRANCH  11  13
HETATM   13  C5  UNL     1       1.479  -2.200   6.330  1.00  0.00     0.114 C
BRANCH  13  14
HETATM   14  C4  UNL     1       1.502  -2.633   4.889  1.00  0.00     0.020 C
BRANCH  14  15
HETATM   15  C3  UNL     1       1.178  -1.550   3.921  1.00  0.00     0.012 C
BRANCH  15  16
HETATM   16  C2  UNL     1      -0.147  -1.800   3.235  1.00  0.00     0.073 C
BRANCH  16  17
HETATM   17  S1  UNL     1      -1.119  -0.249   3.156  1.00  0.00    -0.173 SA
HETATM   18  C1  UNL     1       0.041   1.142   3.024  1.00  0.00     0.089 C
ENDBRANCH  16  17
ENDBRANCH  15  16
ENDBRANCH  14  15
ENDBRANCH  13  14
ENDBRANCH  11  13
ENDBRANCH   1  11
TORSDOF 6
ENDMDL