MODEL 1
REMARK VINA RESULT: -6.930554253      0.000      0.000
REMARK  6 active torsions:
REMARK  status: ('A' for Active; 'I' for Inactive)
REMARK    1  A    between atoms: C6_7  and  C7_8
REMARK    2  A    between atoms: C7_8  and  C8_9
REMARK    3  A    between atoms: C8_9  and  C9_10
REMARK    4  A    between atoms: C9_10  and  C10_11
REMARK    5  A    between atoms: C10_11  and  N2_12
REMARK    6  A    between atoms: N2_12  and  C11_15
ROOT
HETATM    1  C9  UNL     1       1.538  -1.754   7.611  1.00  0.00     0.027 C
ENDROOT
BRANCH   1   2
HETATM    2  C8  UNL     1       0.262  -1.827   8.396  1.00  0.00     0.004 C
BRANCH   2   3
HETATM    3  C7  UNL     1       0.428  -1.125   9.701  1.00  0.00     0.025 C
BRANCH   3   4
HETATM    4  C6  UNL     1      -0.496   0.101   9.795  1.00  0.00     0.083 C
HETATM    5  N1  UNL     1      -0.721   0.733   8.563  1.00  0.00    -0.393 N
HETATM    6  C1  UNL     1      -2.040   0.557   8.011  1.00  0.00     0.149 C
HETATM    7  C2  UNL     1      -0.093   1.949   8.279  1.00  0.00     0.058 C
HETATM    8  C3  UNL     1       0.193   2.843   9.447  1.00  0.00     0.044 C
HETATM    9  C4  UNL     1       0.959   1.997  10.462  1.00  0.00     0.007 C
HETATM   10  C5  UNL     1      -0.013   0.936  10.927  1.00  0.00     0.025 C
ENDBRANCH   3   4
ENDBRANCH   2   3
ENDBRANCH   1   2
BRANCH   1  11
HETATM   11  C10 UNL     1       1.323  -1.834   6.104  1.00  0.00     0.232 C
BRANCH  11  12
HETATM   12  N2  UNL     1       0.632  -0.628   5.710  1.00  0.00    -0.071 N
ATOM     13  H22 UNL     1       0.192  -0.183   6.516  1.00  0.00     0.277 HD
ATOM     14  H21 UNL     1       1.295   0.103   5.456  1.00  0.00     0.277 HD
BRANCH  12  15
HETATM   15  C11 UNL     1      -0.317  -0.837   4.666  1.00  0.00     0.185 C
HETATM   16  C12 UNL     1       0.229  -1.663   3.540  1.00  0.00     0.033 C
HETATM   17  C13 UNL     1      -0.896  -2.048   2.596  1.00  0.00     0.002 C
HETATM   18  C14 UNL     1      -2.017  -1.052   2.747  1.00  0.00     0.000 C
HETATM   19  C15 UNL     1      -1.491   0.346   2.875  1.00  0.00     0.002 C
HETATM   20  C16 UNL     1      -0.760   0.535   4.172  1.00  0.00     0.033 C
ENDBRANCH  12  15
ENDBRANCH  11  12
ENDBRANCH   1  11
TORSDOF 6
ENDMDL