MODEL 5
REMARK VINA RESULT: -6.721628057      2.088      3.657
REMARK  6 active torsions:
REMARK  status: ('A' for Active; 'I' for Inactive)
REMARK    1  A    between atoms: C5_5  and  C6_6
REMARK    2  A    between atoms: C6_6  and  C7_7
REMARK    3  A    between atoms: C7_7  and  N1_8
REMARK    4  A    between atoms: N1_8  and  C8_10
REMARK    5  A    between atoms: C8_10  and  C9_11
REMARK    6  A    between atoms: C9_11  and  C10_12
ROOT
HETATM    1  N1  UNL     1       2.055  -2.866   6.026  1.00  0.00    -0.421 N
ATOM      2  H1  UNL     1       2.885  -3.383   6.321  1.00  0.00     0.153 HD
ENDROOT
BRANCH   1   3
HETATM    3  C7  UNL     1       1.160  -2.264   6.951  1.00  0.00     0.114 C
BRANCH   3   4
HETATM    4  C6  UNL     1       1.681  -1.231   7.855  1.00  0.00     0.024 C
BRANCH   4   5
HETATM    5  C5  UNL     1       0.835  -0.080   8.227  1.00  0.00    -0.013 C
HETATM    6  C4  UNL     1       0.912   0.360   9.668  1.00  0.00     0.005 C
HETATM    7  C3  UNL     1       1.152   1.873   9.780  1.00  0.00     0.000 C
HETATM    8  C2  UNL     1      -0.033   2.687   9.406  1.00  0.00     0.000 C
HETATM    9  C1  UNL     1      -0.699   2.276   8.128  1.00  0.00     0.000 C
HETATM   10  C16 UNL     1      -1.401   0.969   8.241  1.00  0.00     0.000 C
HETATM   11  C15 UNL     1      -0.609  -0.217   7.794  1.00  0.00     0.005 C
ENDBRANCH   4   5
ENDBRANCH   3   4
ENDBRANCH   1   3
BRANCH   1  12
HETATM   12  C8  UNL     1       1.704  -2.692   4.649  1.00  0.00     0.114 C
BRANCH  12  13
HETATM   13  C9  UNL     1       0.586  -1.680   4.511  1.00  0.00     0.024 C
BRANCH  13  14
HETATM   14  C10 UNL     1       1.009  -0.504   3.653  1.00  0.00    -0.009 C
HETATM   15  C11 UNL     1       0.179  -0.548   2.390  1.00  0.00     0.031 C
HETATM   16  C12 UNL     1      -1.218  -0.075   2.655  1.00  0.00     0.168 C
HETATM   17  O1  UNL     1      -1.255   1.177   3.251  1.00  0.00    -0.391 OA
HETATM   18  C13 UNL     1      -0.707   1.080   4.523  1.00  0.00     0.168 C
HETATM   19  C14 UNL     1       0.781   0.825   4.327  1.00  0.00     0.031 C
ENDBRANCH  13  14
ENDBRANCH  12  13
ENDBRANCH   1  12
TORSDOF 6
ENDMDL