MODEL 4
REMARK VINA RESULT: -6.663103056      1.235      1.741
REMARK  7 active torsions:
REMARK  status: ('A' for Active; 'I' for Inactive)
REMARK    1  A    between atoms: O1_1  and  C1_3
REMARK    2  A    between atoms: C1_3  and  N1_4
REMARK    3  A    between atoms: N1_4  and  C2_5
REMARK    4  A    between atoms: N1_4  and  C10_13
REMARK    5  A    between atoms: C2_5  and  C3_6
REMARK    6  A    between atoms: C3_6  and  C4_7
REMARK    7  A    between atoms: C10_13  and  C11_14
ROOT
HETATM    1  N1  UNL     1       1.109  -1.562   5.596  1.00  0.00    -0.351 N
ENDROOT
BRANCH   1   2
HETATM    2  C1  UNL     1       1.637  -2.593   4.812  1.00  0.00     0.224 C
BRANCH   2   3
HETATM    3  O1  UNL     1       2.135  -3.621   5.651  1.00  0.00    -0.356 OA
ATOM      4  H1  UNL     1       1.524  -4.348   5.663  1.00  0.00     0.218 HD
ENDBRANCH   2   3
ENDBRANCH   1   2
BRANCH   1   5
HETATM    5  C2  UNL     1       1.235  -1.764   7.029  1.00  0.00     0.129 C
BRANCH   5   6
HETATM    6  C3  UNL     1       1.347  -0.421   7.689  1.00  0.00     0.025 C
BRANCH   6   7
HETATM    7  C4  UNL     1       0.480  -0.241   8.900  1.00  0.00    -0.013 C
HETATM    8  C5  UNL     1      -0.896  -0.799   8.772  1.00  0.00     0.005 C
HETATM    9  C6  UNL     1      -1.941   0.239   8.464  1.00  0.00     0.000 C
HETATM   10  C7  UNL     1      -1.471   1.302   7.521  1.00  0.00     0.000 C
HETATM   11  C8  UNL     1      -0.222   1.944   8.026  1.00  0.00     0.000 C
HETATM   12  C9  UNL     1       0.378   1.237   9.209  1.00  0.00     0.005 C
ENDBRANCH   6   7
ENDBRANCH   5   6
ENDBRANCH   1   5
BRANCH   1  13
HETATM   13  C10 UNL     1      -0.095  -0.921   5.238  1.00  0.00     0.069 C
BRANCH  13  14
HETATM   14  C11 UNL     1      -0.187  -0.055   4.061  1.00  0.00     0.024 C
HETATM   15  C12 UNL     1       1.067   0.835   4.062  1.00  0.00     0.010 C
HETATM   16  C13 UNL     1       0.889   1.975   3.085  1.00  0.00     0.001 C
HETATM   17  C14 UNL     1       0.540   1.460   1.702  1.00  0.00     0.000 C
HETATM   18  C15 UNL     1       0.417  -0.020   1.633  1.00  0.00     0.001 C
HETATM   19  C16 UNL     1      -0.443  -0.630   2.732  1.00  0.00     0.010 C
ENDBRANCH  13  14
ENDBRANCH   1  13
TORSDOF 7
ENDMDL