MODEL 4
REMARK VINA RESULT: -6.818464641      2.571      3.965
REMARK  7 active torsions:
REMARK  status: ('A' for Active; 'I' for Inactive)
REMARK    1  A    between atoms: N1_7  and  C7_8
REMARK    2  A    between atoms: C7_8  and  C8_9
REMARK    3  A    between atoms: C8_9  and  C9_10
REMARK    4  A    between atoms: C9_10  and  C10_11
REMARK    5  A    between atoms: C10_11  and  C11_12
REMARK    6  A    between atoms: C14_15  and  C15_16
REMARK    7  A    between atoms: C15_16  and  N2_17
ROOT
HETATM    1  C10 UNL     1      -1.239   1.998   5.196  1.00  0.00     0.005 C
ENDROOT
BRANCH   1   2
HETATM    2  C9  UNL     1      -1.245   1.229   6.489  1.00  0.00     0.002 C
BRANCH   2   3
HETATM    3  C8  UNL     1      -0.453   1.948   7.570  1.00  0.00     0.020 C
BRANCH   3   4
HETATM    4  C7  UNL     1       0.711   1.115   8.000  1.00  0.00     0.122 C
BRANCH   4   5
HETATM    5  N1  UNL     1       0.336  -0.033   8.781  1.00  0.00    -0.385 N
HETATM    6  C2  UNL     1       0.618  -1.375   8.397  1.00  0.00    -0.003 C
HETATM    7  C1  UNL     1       1.661  -1.565   7.590  1.00  0.00     0.038 C
HETATM    8  C3  UNL     1      -0.203  -2.526   8.866  1.00  0.00     0.056 C
HETATM    9  C4  UNL     1      -0.710  -2.319  10.271  1.00  0.00     0.007 C
HETATM   10  C5  UNL     1      -0.066  -1.092  10.880  1.00  0.00     0.020 C
HETATM   11  C6  UNL     1      -0.372   0.143  10.036  1.00  0.00     0.122 C
ENDBRANCH   4   5
ENDBRANCH   3   4
ENDBRANCH   2   3
ENDBRANCH   1   2
BRANCH   1  12
HETATM   12  C11 UNL     1      -0.948   1.032   4.067  1.00  0.00    -0.014 C
HETATM   13  C12 UNL     1      -0.483  -0.288   4.608  1.00  0.00     0.005 C
HETATM   14  C13 UNL     1       0.821  -0.585   3.850  1.00  0.00     0.007 C
HETATM   15  C14 UNL     1       1.362   0.795   3.568  1.00  0.00     0.011 C
HETATM   16  C16 UNL     1       0.140   1.590   3.209  1.00  0.00     0.011 C
BRANCH  15  17
HETATM   17  C15 UNL     1       2.255   0.795   2.339  1.00  0.00     0.234 C
BRANCH  17  18
HETATM   18  N2  UNL     1       3.193   1.891   2.484  1.00  0.00    -0.079 N
ATOM     19  H23 UNL     1       2.740   2.775   2.715  1.00  0.00     0.274 HD
ATOM     20  H22 UNL     1       3.768   1.814   3.323  1.00  0.00     0.274 HD
ATOM     21  H21 UNL     1       3.743   1.938   1.626  1.00  0.00     0.274 HD
ENDBRANCH  17  18
ENDBRANCH  15  17
ENDBRANCH   1  12
TORSDOF 7
ENDMDL