MODEL 4
REMARK VINA RESULT: -8.560908776      0.601      1.065
REMARK  6 active torsions:
REMARK  status: ('A' for Active; 'I' for Inactive)
REMARK    1  A    between atoms: C3_3  and  C4_4
REMARK    2  A    between atoms: C5_8  and  C6_9
REMARK    3  A    between atoms: C8_13  and  N3_14
REMARK    4  A    between atoms: C9_19  and  N5_20
REMARK    5  A    between atoms: N8_29  and  C12_31
REMARK    6  A    between atoms: C12_31  and  C13_32
ROOT
HETATM    1  C1  UNL     1     -14.260  -6.640 -10.904  1.00  0.00     0.012 C
HETATM    2  C2  UNL     1     -14.487  -7.600 -10.202  1.00  0.00    -0.110 C
HETATM    3  C3  UNL     1     -14.771  -8.750  -9.345  1.00  0.00     0.171 C
ENDROOT
BRANCH   3   4
HETATM    4  C4  UNL     1     -16.013  -8.528  -8.557  1.00  0.00     0.115 A
HETATM    5  N1  UNL     1     -16.435  -7.346  -8.052  1.00  0.00    -0.246 N
HETATM    6  O1  UNL     1     -17.557  -7.542  -7.425  1.00  0.00    -0.216 OA
ATOM      7  H1  UNL     1     -15.954  -6.452  -8.148  1.00  0.00     0.196 HD
HETATM    8  C5  UNL     1     -17.921  -8.796  -7.476  1.00  0.00     0.202 A
HETATM    9  N9  UNL     1     -16.956  -9.414  -8.184  1.00  0.00    -0.321 N
ATOM     10  H9  UNL     1     -16.941 -10.410  -8.406  1.00  0.00     0.169 HD
BRANCH   8  11
HETATM   11  C6  UNL     1     -19.107  -9.430  -6.904  1.00  0.00     0.131 A
HETATM   12  N2  UNL     1     -19.038 -10.223  -5.821  1.00  0.00    -0.344 N
HETATM   13  C7  UNL     1     -20.118 -10.814  -5.282  1.00  0.00     0.122 A
ATOM     14  H2  UNL     1     -18.128 -10.384  -5.390  1.00  0.00     0.166 HD
HETATM   15  C8  UNL     1     -20.057 -11.625  -4.175  1.00  0.00     0.145 A
HETATM   16  C10 UNL     1     -21.361 -10.614  -5.845  1.00  0.00     0.153 A
HETATM   17  N4  UNL     1     -21.152 -12.202  -3.658  1.00  0.00    -0.175 N
HETATM   18  C9  UNL     1     -22.354 -11.993  -4.224  1.00  0.00     0.679 A
ATOM     19  H4  UNL     1     -21.073 -12.800  -2.836  1.00  0.00     0.186 HD
HETATM   20  N6  UNL     1     -22.429 -11.203  -5.305  1.00  0.00    -0.174 N
ATOM     21  H6  UNL     1     -23.342 -11.046  -5.731  1.00  0.00     0.186 HD
HETATM   22  N7  UNL     1     -21.455  -9.811  -6.946  1.00  0.00    -0.324 N
HETATM   23  C11 UNL     1     -20.347  -9.230  -7.468  1.00  0.00     0.134 A
ATOM     24  H7  UNL     1     -22.365  -9.649  -7.378  1.00  0.00     0.169 HD
HETATM   25  N8  UNL     1     -20.492  -8.476  -8.516  1.00  0.00    -0.368 N
ATOM     26  H8  UNL     1     -19.669  -8.030  -8.922  1.00  0.00     0.161 HD
BRANCH  15  27
HETATM   27  N3  UNL     1     -18.923 -11.845  -3.611  1.00  0.00    -0.383 N
ATOM     28  H32 UNL     1     -18.646 -11.256  -2.826  1.00  0.00     0.157 HD
ATOM     29  H31 UNL     1     -18.327 -12.598  -3.955  1.00  0.00     0.157 HD
ENDBRANCH  15  27
BRANCH  18  30
HETATM   30  N5  UNL     1     -23.434 -12.517  -3.773  1.00  0.00    -0.234 N
ATOM     31  H52 UNL     1     -23.952 -12.017  -3.051  1.00  0.00     0.174 HD
ATOM     32  H51 UNL     1     -23.794 -13.411  -4.106  1.00  0.00     0.174 HD
ENDBRANCH  18  30
BRANCH  25  33
HETATM   33  C12 UNL     1     -21.779  -8.250  -9.125  1.00  0.00     0.190 C
BRANCH  33  34
HETATM   34  C13 UNL     1     -21.686  -8.395 -10.588  1.00  0.00     0.250 C
HETATM   35  O2  UNL     1     -22.011  -9.414 -11.169  1.00  0.00    -0.305 OA
ENDBRANCH  33  34
ENDBRANCH  25  33
ENDBRANCH   8  11
ENDBRANCH   3   4
TORSDOF 6
ENDMDL