MODEL 2
REMARK VINA RESULT: -7.974430122      1.599      3.259
REMARK  7 active torsions:
REMARK  status: ('A' for Active; 'I' for Inactive)
REMARK    1  A    between atoms: N1_1  and  C1_4
REMARK    2  A    between atoms: C3_8  and  N3_9
REMARK    3  A    between atoms: N3_9  and  C4_11
REMARK    4  A    between atoms: C4_11  and  C5_12
REMARK    5  A    between atoms: C5_12  and  C6_13
REMARK    6  A    between atoms: C6_13  and  N4_14
REMARK    7  A    between atoms: N8_28  and  N9_29
ROOT
HETATM    1  C1  UNL     1     -21.846  -9.947  -7.072  1.00  0.00     0.699 A
HETATM    2  N2  UNL     1     -22.580 -10.641  -6.154  1.00  0.00    -0.183 N
ATOM      3  H2  UNL     1     -23.594 -10.749  -6.175  1.00  0.00     0.184 HD
HETATM    4  C2  UNL     1     -21.763 -11.161  -5.215  1.00  0.00     0.139 A
HETATM    5  C3  UNL     1     -21.995 -11.927  -4.096  1.00  0.00     0.133 A
HETATM    6  N6  UNL     1     -20.879 -12.267  -3.375  1.00  0.00    -0.337 N
ATOM      7  H6  UNL     1     -20.988 -12.834  -2.534  1.00  0.00     0.168 HD
HETATM    8  C12 UNL     1     -19.655 -11.881  -3.740  1.00  0.00     0.183 A
HETATM    9  N7  UNL     1     -19.446 -11.134  -4.834  1.00  0.00    -0.335 N
ATOM     10  H7  UNL     1     -18.500 -10.851  -5.090  1.00  0.00     0.168 HD
HETATM   11  C13 UNL     1     -20.502 -10.758  -5.597  1.00  0.00     0.177 A
HETATM   12  N8  UNL     1     -20.558 -10.018  -6.731  1.00  0.00    -0.074 N
ENDROOT
BRANCH   5  13
HETATM   13  N3  UNL     1     -23.112 -12.310  -3.718  1.00  0.00    -0.374 N
ATOM     14  H3  UNL     1     -23.043 -13.072  -3.042  1.00  0.00     0.161 HD
BRANCH  13  15
HETATM   15  C4  UNL     1     -24.439 -11.967  -3.979  1.00  0.00     0.123 C
BRANCH  15  16
HETATM   16  C5  UNL     1     -24.974 -11.008  -2.883  1.00  0.00     0.050 C
BRANCH  16  17
HETATM   17  C6  UNL     1     -25.885 -11.824  -2.044  1.00  0.00     0.274 C
BRANCH  17  18
HETATM   18  N4  UNL     1     -27.279 -11.655  -2.239  1.00  0.00     0.090 N
HETATM   19  C7  UNL     1     -27.864 -12.801  -2.910  1.00  0.00     0.274 C
HETATM   20  C8  UNL     1     -29.356 -12.762  -2.647  1.00  0.00     0.049 C
HETATM   21  C9  UNL     1     -30.070 -12.037  -3.748  1.00  0.00     0.115 C
HETATM   22  N5  UNL     1     -29.969 -10.621  -3.681  1.00  0.00    -0.419 N
HETATM   23  C10 UNL     1     -29.107 -10.076  -2.689  1.00  0.00     0.144 C
ATOM     24  H5  UNL     1     -30.493 -10.021  -4.319  1.00  0.00     0.153 HD
HETATM   25  C11 UNL     1     -27.648 -10.423  -2.847  1.00  0.00     0.291 C
ENDBRANCH  17  18
ENDBRANCH  16  17
ENDBRANCH  15  16
ENDBRANCH  13  15
ENDBRANCH   5  13
BRANCH   1  26
HETATM   26  N1  UNL     1     -22.338  -9.319  -8.114  1.00  0.00    -0.233 N
ATOM     27  H12 UNL     1     -22.954  -9.718  -8.823  1.00  0.00     0.174 HD
ATOM     28  H11 UNL     1     -22.165  -8.341  -8.346  1.00  0.00     0.174 HD
ENDBRANCH   1  26
BRANCH  12  29
HETATM   29  N9  UNL     1     -19.487  -9.442  -7.409  1.00  0.00    -0.322 N
ATOM     30  H92 UNL     1     -19.113  -9.721  -8.316  1.00  0.00     0.178 HD
ATOM     31  H91 UNL     1     -18.920  -8.655  -7.092  1.00  0.00     0.178 HD
ENDBRANCH  12  29
TORSDOF 7
ENDMDL