MODEL 1
REMARK VINA RESULT: -8.627662165      0.000      0.000
REMARK  7 active torsions:
REMARK  status: ('A' for Active; 'I' for Inactive)
REMARK    1  A    between atoms: C2_3  and  C3_4
REMARK    2  A    between atoms: C3_4  and  C4_5
REMARK    3  A    between atoms: C4_5  and  N2_6
REMARK    4  A    between atoms: N3_9  and  C7_10
REMARK    5  A    between atoms: C9_16  and  N6_17
REMARK    6  A    between atoms: N6_17  and  N7_19
REMARK    7  A    between atoms: C11_27  and  N10_28
ROOT
HETATM    1  N1  UNL     1     -29.128  -9.049  -2.436  1.00  0.00    -0.197 NA
HETATM    2  C1  UNL     1     -29.417 -10.079  -2.900  1.00  0.00     0.062 C
HETATM    3  C2  UNL     1     -29.767 -11.341  -3.521  1.00  0.00     0.152 C
ENDROOT
BRANCH   3   4
HETATM    4  C3  UNL     1     -29.137 -12.512  -2.917  1.00  0.00    -0.001 C
BRANCH   4   5
HETATM    5  C4  UNL     1     -27.710 -12.787  -2.919  1.00  0.00     0.056 C
BRANCH   5   6
HETATM    6  N2  UNL     1     -26.742 -11.789  -3.260  1.00  0.00    -0.290 NA
HETATM    7  C5  UNL     1     -26.314 -12.103  -4.658  1.00  0.00     0.114 C
HETATM    8  C6  UNL     1     -25.380 -11.007  -5.110  1.00  0.00     0.139 C
HETATM    9  N3  UNL     1     -24.129 -11.294  -4.381  1.00  0.00    -0.362 N
HETATM   10  C12 UNL     1     -24.287 -12.268  -3.329  1.00  0.00     0.139 C
HETATM   11  C13 UNL     1     -25.509 -12.008  -2.494  1.00  0.00     0.114 C
BRANCH   9  12
HETATM   12  C7  UNL     1     -22.970 -10.619  -4.746  1.00  0.00     0.149 A
HETATM   13  N4  UNL     1     -22.411 -10.788  -5.985  1.00  0.00    -0.322 N
HETATM   14  C8  UNL     1     -21.345 -10.108  -6.392  1.00  0.00     0.167 A
ATOM     15  H4  UNL     1     -22.831 -11.464  -6.623  1.00  0.00     0.169 HD
HETATM   16  N5  UNL     1     -20.616 -10.075  -7.541  1.00  0.00    -0.171 N
HETATM   17  C10 UNL     1     -20.764  -9.194  -5.543  1.00  0.00     0.167 A
HETATM   18  C9  UNL     1     -19.622  -9.185  -7.429  1.00  0.00     0.699 A
ATOM     19  H5  UNL     1     -20.801 -10.645  -8.367  1.00  0.00     0.186 HD
HETATM   20  N8  UNL     1     -19.725  -8.657  -6.205  1.00  0.00    -0.171 N
ATOM     21  H8  UNL     1     -19.102  -7.944  -5.826  1.00  0.00     0.186 HD
HETATM   22  N9  UNL     1     -21.287  -9.004  -4.313  1.00  0.00    -0.322 N
HETATM   23  C11 UNL     1     -22.380  -9.707  -3.908  1.00  0.00     0.145 A
ATOM     24  H9  UNL     1     -20.858  -8.328  -3.682  1.00  0.00     0.169 HD
BRANCH  18  25
HETATM   25  N6  UNL     1     -18.729  -8.892  -8.343  1.00  0.00    -0.138 N
ATOM     26  H6  UNL     1     -18.979  -8.376  -9.186  1.00  0.00     0.205 HD
BRANCH  25  27
HETATM   27  N7  UNL     1     -17.430  -9.314  -8.109  1.00  0.00    -0.331 N
ATOM     28  H72 UNL     1     -16.915  -8.982  -7.294  1.00  0.00     0.177 HD
ATOM     29  H71 UNL     1     -17.026  -9.962  -8.786  1.00  0.00     0.177 HD
ENDBRANCH  25  27
ENDBRANCH  18  25
BRANCH  23  30
HETATM   30  N10 UNL     1     -22.815  -9.502  -2.729  1.00  0.00    -0.382 N
ATOM     31 2H10 UNL     1     -23.554 -10.114  -2.380  1.00  0.00     0.157 HD
ATOM     32 1H10 UNL     1     -22.457  -8.743  -2.148  1.00  0.00     0.157 HD
ENDBRANCH  23  30
ENDBRANCH   9  12
ENDBRANCH   5   6
ENDBRANCH   4   5
ENDBRANCH   3   4
TORSDOF 7
ENDMDL