MODEL 2
REMARK VINA RESULT: -8.023974680      3.395      5.828
REMARK  7 active torsions:
REMARK  status: ('A' for Active; 'I' for Inactive)
REMARK    1  A    between atoms: C2_2  and  O1_3
REMARK    2  A    between atoms: C2_2  and  C3_5
REMARK    3  A    between atoms: C3_5  and  C5_7
REMARK    4  A    between atoms: C3_5  and  C9_19
REMARK    5  A    between atoms: C8_13  and  N2_14
REMARK    6  A    between atoms: C10_24  and  S1_25
REMARK    7  A    between atoms: S1_25  and  N6_26
ROOT
HETATM    1  C3  UNL     1     -25.859 -11.233  -3.235  1.00  0.00     0.091 C
HETATM    2  C4  UNL     1     -26.109 -11.481  -4.718  1.00  0.00     0.034 C
ENDROOT
BRANCH   1   3
HETATM    3  C2  UNL     1     -26.031 -12.508  -2.448  1.00  0.00     0.136 C
HETATM    4  C1  UNL     1     -26.017 -12.310  -0.975  1.00  0.00     0.041 C
BRANCH   3   5
HETATM    5  O1  UNL     1     -27.200 -13.151  -2.811  1.00  0.00    -0.394 OA
ATOM      6  H1  UNL     1     -27.079 -14.090  -2.736  1.00  0.00     0.210 HD
ENDBRANCH   3   5
ENDBRANCH   1   3
BRANCH   1   7
HETATM    7  C5  UNL     1     -24.507 -10.650  -3.083  1.00  0.00     0.051 A
HETATM    8  C6  UNL     1     -23.486 -10.979  -3.961  1.00  0.00     0.101 A
HETATM    9  C7  UNL     1     -22.211 -10.448  -3.848  1.00  0.00     0.261 A
HETATM   10  O2  UNL     1     -21.330 -10.792  -4.683  1.00  0.00    -0.268 OA
HETATM   11  N1  UNL     1     -21.972  -9.592  -2.854  1.00  0.00    -0.156 N
HETATM   12  C8  UNL     1     -22.933  -9.246  -1.981  1.00  0.00     0.679 A
ATOM     13  H1  UNL     1     -21.040  -9.190  -2.755  1.00  0.00     0.187 HD
HETATM   14  N3  UNL     1     -24.177  -9.780  -2.112  1.00  0.00    -0.194 N
ATOM     15  H3  UNL     1     -24.895  -9.507  -1.441  1.00  0.00     0.184 HD
BRANCH  12  16
HETATM   16  N2  UNL     1     -22.724  -8.420  -1.009  1.00  0.00    -0.234 N
ATOM     17  H22 UNL     1     -22.324  -7.509  -1.231  1.00  0.00     0.174 HD
ATOM     18  H21 UNL     1     -22.943  -8.648  -0.039  1.00  0.00     0.174 HD
ENDBRANCH  12  16
ENDBRANCH   1   7
BRANCH   1  19
HETATM   19  C9  UNL     1     -26.837 -10.183  -2.827  1.00  0.00     0.158 A
HETATM   20  N4  UNL     1     -28.189 -10.285  -2.825  1.00  0.00    -0.280 N
HETATM   21  N5  UNL     1     -28.697  -9.144  -2.397  1.00  0.00    -0.267 N
ATOM     22  H4  UNL     1     -28.724 -11.106  -3.106  1.00  0.00     0.189 HD
HETATM   23  C10 UNL     1     -27.689  -8.320  -2.129  1.00  0.00     0.283 A
ATOM     24  H5  UNL     1     -29.690  -8.931  -2.291  1.00  0.00     0.190 HD
HETATM   25  O5  UNL     1     -26.589  -8.973  -2.397  1.00  0.00    -0.266 OA
BRANCH  23  26
HETATM   26  S1  UNL     1     -27.779  -6.655  -1.526  1.00  0.00     0.297 S
HETATM   27  O3  UNL     1     -29.008  -6.495  -0.656  1.00  0.00    -0.197 OA
HETATM   28  O4  UNL     1     -26.592  -6.419  -0.634  1.00  0.00    -0.197 OA
BRANCH  26  29
HETATM   29  N6  UNL     1     -27.787  -5.593  -2.867  1.00  0.00    -0.321 N
ATOM     30  H62 UNL     1     -27.276  -4.711  -2.919  1.00  0.00     0.169 HD
ATOM     31  H61 UNL     1     -28.384  -5.992  -3.591  1.00  0.00     0.169 HD
ENDBRANCH  26  29
ENDBRANCH  23  26
ENDBRANCH   1  19
TORSDOF 7
ENDMDL