MODEL 2
REMARK VINA RESULT: -7.354288466      3.764      6.282
REMARK  8 active torsions:
REMARK  status: ('A' for Active; 'I' for Inactive)
REMARK    1  A    between atoms: C2_3  and  C3_4
REMARK    2  A    between atoms: C3_4  and  C4_5
REMARK    3  A    between atoms: C4_5  and  C5_6
REMARK    4  A    between atoms: C5_6  and  N2_7
REMARK    5  A    between atoms: C9_19  and  N5_20
REMARK    6  A    between atoms: N7_26  and  C11_27
REMARK    7  A    between atoms: C11_27  and  C12_28
REMARK    8  A    between atoms: C13_29  and  N8_30
ROOT
HETATM    1  C1  UNL     1     -22.148  -9.102  -7.322  1.00  0.00     0.159 C
HETATM    2  N1  UNL     1     -23.316  -8.842  -6.490  1.00  0.00    -0.325 N
HETATM    3  C2  UNL     1     -24.212  -7.845  -6.596  1.00  0.00     0.085 A
HETATM    4  N3  UNL     1     -25.135  -7.986  -5.616  1.00  0.00    -0.342 N
ATOM      5  H3  UNL     1     -25.930  -7.365  -5.464  1.00  0.00     0.167 HD
HETATM    6  C6  UNL     1     -24.844  -9.062  -4.876  1.00  0.00     0.098 A
HETATM    7  C7  UNL     1     -25.215  -9.846  -3.801  1.00  0.00     0.108 A
HETATM    8  C8  UNL     1     -26.251  -9.805  -2.885  1.00  0.00     0.276 A
HETATM    9  O1  UNL     1     -27.072  -8.843  -3.028  1.00  0.00    -0.267 OA
HETATM   10  N4  UNL     1     -26.391 -10.717  -1.903  1.00  0.00    -0.155 N
ATOM     11  H4  UNL     1     -27.163 -10.665  -1.239  1.00  0.00     0.187 HD
HETATM   12  C9  UNL     1     -25.474 -11.698  -1.832  1.00  0.00     0.680 A
HETATM   13  N6  UNL     1     -24.453 -11.770  -2.704  1.00  0.00    -0.175 N
ATOM     14  H6  UNL     1     -23.778 -12.530  -2.617  1.00  0.00     0.186 HD
HETATM   15  C10 UNL     1     -24.298 -10.858  -3.698  1.00  0.00     0.144 A
HETATM   16  N7  UNL     1     -23.410 -10.681  -4.683  1.00  0.00    -0.304 N
HETATM   17  C14 UNL     1     -23.692  -9.601  -5.434  1.00  0.00     0.141 A
ENDROOT
BRANCH   3  18
HETATM   18  C3  UNL     1     -24.218  -6.765  -7.601  1.00  0.00     0.078 C
BRANCH  18  19
HETATM   19  C4  UNL     1     -25.492  -5.931  -7.526  1.00  0.00     0.034 C
BRANCH  19  20
HETATM   20  C5  UNL     1     -25.276  -4.658  -6.736  1.00  0.00     0.230 C
BRANCH  20  21
HETATM   21  N2  UNL     1     -26.181  -4.699  -5.607  1.00  0.00    -0.079 N
ATOM     22  H23 UNL     1     -27.156  -4.553  -5.870  1.00  0.00     0.274 HD
ATOM     23  H22 UNL     1     -26.290  -5.635  -5.215  1.00  0.00     0.274 HD
ATOM     24  H21 UNL     1     -25.844  -4.017  -4.928  1.00  0.00     0.274 HD
ENDBRANCH  20  21
ENDBRANCH  19  20
ENDBRANCH  18  19
ENDBRANCH   3  18
BRANCH  16  25
HETATM   25  C11 UNL     1     -22.275 -11.549  -4.918  1.00  0.00     0.227 C
BRANCH  25  26
HETATM   26  C12 UNL     1     -21.321 -11.411  -3.822  1.00  0.00    -0.064 C
HETATM   27  C13 UNL     1     -20.535 -11.287  -2.894  1.00  0.00     0.005 C
BRANCH  27  28
HETATM   28  N8  UNL     1     -19.642 -11.170  -1.838  1.00  0.00    -0.359 N
ATOM     29  H82 UNL     1     -20.139 -11.898  -2.352  1.00  0.00     0.166 HD
ATOM     30  H81 UNL     1     -18.985 -11.067  -1.063  1.00  0.00     0.166 HD
ENDBRANCH  27  28
ENDBRANCH  25  26
ENDBRANCH  16  25
BRANCH  12  31
HETATM   31  N5  UNL     1     -25.635 -12.564  -0.872  1.00  0.00    -0.234 N
ATOM     32  H52 UNL     1     -26.221 -13.392  -0.976  1.00  0.00     0.174 HD
ATOM     33  H51 UNL     1     -25.140 -12.367  -0.003  1.00  0.00     0.174 HD
ENDBRANCH  12  31
TORSDOF 8
ENDMDL