MODEL 5
REMARK VINA RESULT: -6.503407246      3.047      7.139
REMARK  4 active torsions:
REMARK  status: ('A' for Active; 'I' for Inactive)
REMARK    1  A    between atoms: C2_2  and  N1_3
REMARK    2  A    between atoms: N1_3  and  N2_5
REMARK    3  A    between atoms: C3_7  and  C4_8
REMARK    4  A    between atoms: C5_9  and  N3_10
ROOT
HETATM    1  C4  UNL     1     -18.540  -8.648  -8.378  1.00  0.00     0.081 C
HETATM    2  C5  UNL     1     -19.596  -8.642  -9.246  1.00  0.00     0.116 C
HETATM    3  C10 UNL     1     -20.947  -8.633  -8.825  1.00  0.00     0.275 C
HETATM    4  O1  UNL     1     -21.723  -8.218  -9.712  1.00  0.00    -0.266 OA
HETATM    5  N5  UNL     1     -21.504  -8.990  -7.658  1.00  0.00    -0.298 N
ATOM      6  H5  UNL     1     -22.492  -9.243  -7.676  1.00  0.00     0.171 HD
HETATM    7  C11 UNL     1     -20.879  -9.044  -6.461  1.00  0.00     0.181 C
HETATM    8  S1  UNL     1     -21.756  -9.708  -5.259  1.00  0.00    -0.040 SA
HETATM    9  N6  UNL     1     -19.628  -8.622  -6.135  1.00  0.00    -0.299 N
ATOM     10  H6  UNL     1     -19.464  -8.401  -5.152  1.00  0.00     0.171 HD
HETATM   11  C12 UNL     1     -18.586  -8.465  -6.965  1.00  0.00     0.261 C
HETATM   12  O2  UNL     1     -17.494  -8.104  -6.435  1.00  0.00    -0.267 OA
ENDROOT
BRANCH   1  13
HETATM   13  C3  UNL     1     -17.212  -8.855  -8.886  1.00  0.00     0.126 C
HETATM   14  N2  UNL     1     -16.485  -9.878  -8.886  1.00  0.00    -0.315 N
ATOM     15  H2  UNL     1     -16.868 -10.723  -8.463  1.00  0.00     0.185 HD
BRANCH  14  16
HETATM   16  N1  UNL     1     -15.202  -9.952  -9.415  1.00  0.00    -0.337 N
ATOM     17  H1  UNL     1     -15.025 -10.580 -10.199  1.00  0.00     0.180 HD
BRANCH  16  18
HETATM   18  C2  UNL     1     -14.115  -9.168  -8.889  1.00  0.00     0.135 C
HETATM   19  C1  UNL     1     -13.037 -10.034  -8.252  1.00  0.00     0.028 C
ENDBRANCH  16  18
ENDBRANCH  14  16
ENDBRANCH   1  13
BRANCH   2  20
HETATM   20  N3  UNL     1     -19.460  -8.651 -10.641  1.00  0.00    -0.372 N
HETATM   21  C6  UNL     1     -19.518  -9.819 -11.470  1.00  0.00     0.142 C
HETATM   22  C7  UNL     1     -18.413  -9.705 -12.512  1.00  0.00     0.133 C
HETATM   23  N4  UNL     1     -18.798  -8.671 -13.423  1.00  0.00    -0.418 N
HETATM   24  C8  UNL     1     -19.240  -7.467 -12.809  1.00  0.00     0.133 C
ATOM     25  H4  UNL     1     -18.757  -8.788 -14.435  1.00  0.00     0.153 HD
HETATM   26  C9  UNL     1     -19.132  -7.394 -11.327  1.00  0.00     0.142 C
ENDBRANCH   2  20
TORSDOF 4
ENDMDL