MODEL 3
REMARK VINA RESULT: -8.584228148      2.418      3.384
REMARK  6 active torsions:
REMARK  status: ('A' for Active; 'I' for Inactive)
REMARK    1  A    between atoms: C3_3  and  C4_4
REMARK    2  A    between atoms: C4_4  and  C5_5
REMARK    3  A    between atoms: C5_5  and  C6_6
REMARK    4  A    between atoms: C6_6  and  N1_7
REMARK    5  A    between atoms: C9_17  and  N5_18
REMARK    6  A    between atoms: C11_26  and  N8_27
ROOT
HETATM    1  N1  UNL     1     -21.833  -9.845  -6.317  1.00  0.00    -0.260 N
HETATM    2  N2  UNL     1     -21.153 -10.776  -6.914  1.00  0.00    -0.238 N
ATOM      3  H2  UNL     1     -21.139 -10.911  -7.926  1.00  0.00     0.208 HD
HETATM    4  N3  UNL     1     -20.483 -11.526  -6.064  1.00  0.00    -0.278 N
ATOM      5  H3  UNL     1     -19.881 -12.317  -6.294  1.00  0.00     0.189 HD
HETATM    6  C7  UNL     1     -20.748 -11.047  -4.830  1.00  0.00     0.164 A
HETATM    7  C8  UNL     1     -20.372 -11.376  -3.547  1.00  0.00     0.291 A
HETATM    8  O1  UNL     1     -19.602 -12.328  -3.338  1.00  0.00    -0.265 OA
HETATM    9  N4  UNL     1     -20.836 -10.665  -2.484  1.00  0.00    -0.154 N
ATOM     10  H4  UNL     1     -20.562 -10.904  -1.531  1.00  0.00     0.187 HD
HETATM   11  C9  UNL     1     -21.666  -9.640  -2.728  1.00  0.00     0.680 A
HETATM   12  N6  UNL     1     -22.073  -9.264  -3.949  1.00  0.00    -0.173 N
ATOM     13  H6  UNL     1     -22.707  -8.477  -4.083  1.00  0.00     0.186 HD
HETATM   14  C10 UNL     1     -21.601  -9.985  -5.002  1.00  0.00     0.172 A
ENDROOT
BRANCH   1  15
HETATM   15  C6  UNL     1     -22.705  -8.810  -6.930  1.00  0.00     0.153 C
BRANCH  15  16
HETATM   16  C5  UNL     1     -23.897  -8.726  -6.064  1.00  0.00     0.028 C
BRANCH  16  17
HETATM   17  C4  UNL     1     -24.790  -9.893  -5.931  1.00  0.00     0.060 C
BRANCH  17  18
HETATM   18  C3  UNL     1     -25.368 -10.175  -4.629  1.00  0.00     0.038 A
HETATM   19  C2  UNL     1     -25.890 -11.374  -4.230  1.00  0.00     0.030 A
HETATM   20  C1  UNL     1     -25.832 -12.599  -5.101  1.00  0.00     0.056 C
HETATM   21  C12 UNL     1     -26.457 -11.470  -2.957  1.00  0.00     0.267 A
HETATM   22  N9  UNL     1     -26.514 -10.441  -2.104  1.00  0.00    -0.156 N
HETATM   23  O2  UNL     1     -26.940 -12.597  -2.602  1.00  0.00    -0.267 OA
HETATM   24  C11 UNL     1     -25.995  -9.273  -2.518  1.00  0.00     0.679 A
ATOM     25  H9  UNL     1     -26.935 -10.538  -1.180  1.00  0.00     0.187 HD
HETATM   26  N7  UNL     1     -25.442  -9.145  -3.736  1.00  0.00    -0.195 N
ATOM     27  H7  UNL     1     -25.060  -8.238  -4.005  1.00  0.00     0.184 HD
BRANCH  24  28
HETATM   28  N8  UNL     1     -26.051  -8.271  -1.689  1.00  0.00    -0.234 N
ATOM     29  H82 UNL     1     -26.967  -7.852  -1.526  1.00  0.00     0.174 HD
ATOM     30  H81 UNL     1     -25.215  -7.920  -1.222  1.00  0.00     0.174 HD
ENDBRANCH  24  28
ENDBRANCH  17  18
ENDBRANCH  16  17
ENDBRANCH  15  16
ENDBRANCH   1  15
BRANCH  11  31
HETATM   31  N5  UNL     1     -22.102  -8.972  -1.727  1.00  0.00    -0.234 N
ATOM     32  H52 UNL     1     -21.599  -8.123  -1.470  1.00  0.00     0.174 HD
ATOM     33  H51 UNL     1     -22.928  -9.324  -1.242  1.00  0.00     0.174 HD
ENDBRANCH  11  31
TORSDOF 6
ENDMDL