MODEL 4
REMARK VINA RESULT: -7.980698027      3.216      7.491
REMARK  5 active torsions:
REMARK  status: ('A' for Active; 'I' for Inactive)
REMARK    1  A    between atoms: N1_1  and  C1_4
REMARK    2  A    between atoms: N3_8  and  C3_10
REMARK    3  A    between atoms: C3_10  and  C4_11
REMARK    4  A    between atoms: C4_11  and  C5_12
REMARK    5  A    between atoms: C5_12  and  C6_13
ROOT
HETATM    1  C1  UNL     1     -22.117 -10.178  -6.642  1.00  0.00     0.131 A
HETATM    2  N2  UNL     1     -22.689 -10.785  -5.612  1.00  0.00    -0.321 N
ATOM      3  H2  UNL     1     -23.697 -10.927  -5.686  1.00  0.00     0.169 HD
HETATM    4  C2  UNL     1     -22.126 -11.233  -4.494  1.00  0.00     0.148 A
HETATM    5  N3  UNL     1     -22.748 -11.809  -3.551  1.00  0.00    -0.370 N
ATOM      6  H3  UNL     1     -22.220 -12.116  -2.733  1.00  0.00     0.161 HD
HETATM    7  S1  UNL     1     -20.413 -10.944  -4.464  1.00  0.00    -0.034 SA
HETATM    8  C9  UNL     1     -19.822 -10.159  -5.851  1.00  0.00     0.109 A
HETATM    9  N7  UNL     1     -18.641  -9.713  -6.335  1.00  0.00    -0.345 N
ATOM     10  H7  UNL     1     -17.744  -9.789  -5.855  1.00  0.00     0.167 HD
HETATM   11  C10 UNL     1     -18.827  -9.153  -7.546  1.00  0.00     0.182 A
HETATM   12  N8  UNL     1     -20.138  -9.243  -7.833  1.00  0.00    -0.347 N
ATOM     13  H8  UNL     1     -20.582  -8.902  -8.686  1.00  0.00     0.167 HD
HETATM   14  C11 UNL     1     -20.783  -9.868  -6.793  1.00  0.00     0.111 A
ENDROOT
BRANCH   5  15
HETATM   15  C3  UNL     1     -24.158 -12.045  -3.586  1.00  0.00     0.122 C
BRANCH  15  16
HETATM   16  C4  UNL     1     -24.979 -10.936  -3.072  1.00  0.00     0.026 C
BRANCH  16  17
HETATM   17  C5  UNL     1     -25.992 -11.352  -2.061  1.00  0.00     0.066 C
BRANCH  17  18
HETATM   18  C6  UNL     1     -27.364 -11.563  -2.562  1.00  0.00     0.094 A
HETATM   19  N4  UNL     1     -27.754 -12.855  -2.839  1.00  0.00    -0.295 N
HETATM   20  N5  UNL     1     -28.941 -13.102  -3.329  1.00  0.00    -0.251 N
ATOM     21  H4  UNL     1     -27.111 -13.626  -2.660  1.00  0.00     0.187 HD
HETATM   22  C7  UNL     1     -29.828 -12.123  -3.582  1.00  0.00     0.341 A
ATOM     23  H5  UNL     1     -29.202 -14.068  -3.525  1.00  0.00     0.191 HD
HETATM   24  O1  UNL     1     -30.952 -12.398  -4.049  1.00  0.00    -0.245 OA
HETATM   25  N6  UNL     1     -29.510 -10.843  -3.333  1.00  0.00    -0.273 N
HETATM   26  C8  UNL     1     -28.275 -10.595  -2.824  1.00  0.00     0.273 A
ATOM     27  H6  UNL     1     -30.169 -10.087  -3.519  1.00  0.00     0.173 HD
HETATM   28  O2  UNL     1     -28.008  -9.381  -2.593  1.00  0.00    -0.266 OA
ENDBRANCH  17  18
ENDBRANCH  16  17
ENDBRANCH  15  16
ENDBRANCH   5  15
BRANCH   1  29
HETATM   29  N1  UNL     1     -22.892  -9.824  -7.645  1.00  0.00    -0.383 N
ATOM     30  H12 UNL     1     -22.957 -10.502  -8.404  1.00  0.00     0.157 HD
ATOM     31  H11 UNL     1     -23.357  -8.919  -7.583  1.00  0.00     0.157 HD
ENDBRANCH   1  29
TORSDOF 5
ENDMDL