MODEL 3
REMARK VINA RESULT: -8.510797870      0.930      1.302
REMARK  5 active torsions:
REMARK  status: ('A' for Active; 'I' for Inactive)
REMARK    1  A    between atoms: N1_1  and  C1_4
REMARK    2  A    between atoms: N3_8  and  N4_10
REMARK    3  A    between atoms: C3_12  and  C4_13
REMARK    4  A    between atoms: C5_14  and  C6_15
REMARK    5  A    between atoms: C6_15  and  N5_16
ROOT
HETATM    1  C1  UNL     1     -23.033 -11.564  -4.773  1.00  0.00     0.679 A
HETATM    2  N2  UNL     1     -22.274 -11.082  -5.703  1.00  0.00    -0.173 N
ATOM      3  H2  UNL     1     -22.919 -10.775  -6.431  1.00  0.00     0.186 HD
HETATM    4  C2  UNL     1     -21.124 -10.803  -6.155  1.00  0.00     0.166 A
HETATM    5  N3  UNL     1     -20.046 -10.539  -6.572  1.00  0.00    -0.283 N
ATOM      6  H3  UNL     1     -19.966 -10.812  -7.551  1.00  0.00     0.188 HD
HETATM    7  C11 UNL     1     -20.394 -11.422  -4.747  1.00  0.00     0.124 A
HETATM    8  N7  UNL     1     -19.105 -11.515  -4.583  1.00  0.00    -0.346 N
ATOM      9  H7  UNL     1     -18.388 -11.193  -5.233  1.00  0.00     0.167 HD
HETATM   10  C12 UNL     1     -18.890 -12.135  -3.357  1.00  0.00     0.182 A
HETATM   11  N8  UNL     1     -20.125 -12.385  -2.851  1.00  0.00    -0.336 N
ATOM     12  H8  UNL     1     -20.328 -12.834  -1.959  1.00  0.00     0.168 HD
HETATM   13  C13 UNL     1     -21.053 -11.926  -3.756  1.00  0.00     0.152 A
HETATM   14  N9  UNL     1     -22.375 -12.042  -3.665  1.00  0.00    -0.174 N
ATOM     15  H9  UNL     1     -22.850 -12.444  -2.857  1.00  0.00     0.186 HD
ENDROOT
BRANCH   5  16
HETATM   16  N4  UNL     1     -18.888  -9.985  -6.139  1.00  0.00    -0.310 N
HETATM   17  C3  UNL     1     -18.374  -8.972  -6.806  1.00  0.00     0.107 C
ATOM     18  H4  UNL     1     -18.421 -10.347  -5.308  1.00  0.00     0.186 HD
BRANCH  17  19
HETATM   19  C4  UNL     1     -19.029  -8.489  -7.966  1.00  0.00     0.016 C
HETATM   20  C5  UNL     1     -18.381  -8.029  -9.005  1.00  0.00     0.004 C
BRANCH  20  21
HETATM   21  C6  UNL     1     -16.899  -7.970  -9.011  1.00  0.00     0.300 C
BRANCH  21  22
HETATM   22  N5  UNL     1     -16.503  -8.977 -10.035  1.00  0.00     0.095 N
HETATM   23  C7  UNL     1     -15.591  -8.404 -10.990  1.00  0.00     0.300 C
HETATM   24  C8  UNL     1     -14.389  -9.355 -11.211  1.00  0.00     0.262 C
HETATM   25  N6  UNL     1     -13.582  -9.175 -10.001  1.00  0.00    -0.072 N
HETATM   26  C9  UNL     1     -14.371  -9.639  -8.877  1.00  0.00     0.262 C
ATOM     27  H62 UNL     1     -12.670  -9.627 -10.061  1.00  0.00     0.277 HD
ATOM     28  H61 UNL     1     -13.249  -8.218  -9.885  1.00  0.00     0.277 HD
HETATM   29  C10 UNL     1     -15.785 -10.030  -9.275  1.00  0.00     0.300 C
ENDBRANCH  21  22
ENDBRANCH  20  21
ENDBRANCH  17  19
ENDBRANCH   5  16
BRANCH   1  30
HETATM   30  N1  UNL     1     -24.318 -11.557  -4.840  1.00  0.00    -0.234 N
ATOM     31  H12 UNL     1     -24.842 -12.394  -5.094  1.00  0.00     0.174 HD
ATOM     32  H11 UNL     1     -24.885 -10.742  -4.608  1.00  0.00     0.174 HD
ENDBRANCH   1  30
TORSDOF 5
ENDMDL