MODEL 5
REMARK VINA RESULT: -7.489437695      2.962      8.055
REMARK  5 active torsions:
REMARK  status: ('A' for Active; 'I' for Inactive)
REMARK    1  A    between atoms: C3_3  and  O1_4
REMARK    2  A    between atoms: O1_4  and  C4_5
REMARK    3  A    between atoms: C4_5  and  C5_6
REMARK    4  A    between atoms: N3_17  and  C10_18
REMARK    5  A    between atoms: C12_24  and  N6_25
ROOT
HETATM    1  C1  UNL     1     -25.402 -12.289  -1.701  1.00  0.00     0.015 C
HETATM    2  C2  UNL     1     -25.595 -11.274  -2.340  1.00  0.00    -0.079 C
HETATM    3  C3  UNL     1     -25.820 -10.012  -3.109  1.00  0.00     0.126 C
HETATM    4  C8  UNL     1     -24.995  -8.984  -2.393  1.00  0.00     0.071 C
HETATM    5  C9  UNL     1     -23.540  -9.483  -2.302  1.00  0.00     0.128 C
HETATM    6  N3  UNL     1     -23.079  -9.770  -3.621  1.00  0.00    -0.365 N
HETATM    7  C14 UNL     1     -24.030  -9.376  -4.699  1.00  0.00     0.128 C
HETATM    8  C15 UNL     1     -25.259 -10.284  -4.525  1.00  0.00     0.071 C
ENDROOT
BRANCH   3   9
HETATM    9  O1  UNL     1     -27.122  -9.747  -3.295  1.00  0.00    -0.364 OA
BRANCH   9  10
HETATM   10  C4  UNL     1     -28.124 -10.393  -2.694  1.00  0.00     0.232 C
BRANCH  10  11
HETATM   11  C5  UNL     1     -28.747 -11.430  -3.665  1.00  0.00     0.406 C
HETATM   12  N1  UNL     1     -30.146 -11.071  -3.886  1.00  0.00    -0.042 N
HETATM   13  C6  UNL     1     -30.795 -12.369  -4.062  1.00  0.00     0.262 C
ATOM     14  H12 UNL     1     -30.554 -10.487  -3.157  1.00  0.00     0.279 HD
ATOM     15  H11 UNL     1     -30.301 -10.411  -4.648  1.00  0.00     0.279 HD
HETATM   16  C7  UNL     1     -30.127 -13.144  -2.920  1.00  0.00     0.262 C
HETATM   17  N2  UNL     1     -28.762 -12.744  -3.081  1.00  0.00    -0.042 N
ATOM     18  H22 UNL     1     -28.215 -13.419  -3.615  1.00  0.00     0.279 HD
ATOM     19  H21 UNL     1     -28.232 -12.795  -2.211  1.00  0.00     0.279 HD
ENDBRANCH  10  11
ENDBRANCH   9  10
ENDBRANCH   3   9
BRANCH   6  20
HETATM   20  C10 UNL     1     -21.899 -10.407  -3.932  1.00  0.00     0.132 A
HETATM   21  N4  UNL     1     -21.548 -11.618  -3.397  1.00  0.00    -0.337 N
HETATM   22  C11 UNL     1     -20.477 -12.296  -3.668  1.00  0.00     0.183 A
ATOM     23  H4  UNL     1     -22.193 -12.026  -2.720  1.00  0.00     0.168 HD
HETATM   24  N5  UNL     1     -19.573 -11.802  -4.570  1.00  0.00    -0.337 N
HETATM   25  C12 UNL     1     -19.859 -10.596  -5.142  1.00  0.00     0.128 A
ATOM     26  H5  UNL     1     -18.723 -12.314  -4.805  1.00  0.00     0.168 HD
HETATM   27  C13 UNL     1     -20.988  -9.912  -4.835  1.00  0.00     0.133 A
HETATM   28  N7  UNL     1     -21.196  -8.651  -5.468  1.00  0.00    -0.094 NA
BRANCH  25  29
HETATM   29  N6  UNL     1     -19.009 -10.137  -6.009  1.00  0.00    -0.384 N
ATOM     30  H62 UNL     1     -18.286 -10.735  -6.409  1.00  0.00     0.157 HD
ATOM     31  H61 UNL     1     -19.088  -9.152  -6.261  1.00  0.00     0.157 HD
ENDBRANCH  25  29
ENDBRANCH   6  20
TORSDOF 5
ENDMDL