MODEL 3
REMARK VINA RESULT: -8.937688768      0.817      1.213
REMARK  13 active torsions:
REMARK  status: ('A' for Active; 'I' for Inactive)
REMARK    1  A    between atoms: C2_2  and  C3_3
REMARK    2  A    between atoms: C3_3  and  C4_4
REMARK    3  A    between atoms: C4_4  and  C5_5
REMARK    4  A    between atoms: C4_4  and  O8_42
REMARK    5  A    between atoms: C5_5  and  C6_6
REMARK    6  A    between atoms: C6_6  and  C7_7
REMARK       I    between atoms: C7_7  and  N1_9
REMARK    7  A    between atoms: N1_9  and  C8_11
REMARK    8  A    between atoms: C8_11  and  C9_12
REMARK    9  A    between atoms: C9_12  and  C10_14
REMARK   10  A    between atoms: C17_22  and  C18_23
REMARK   11  A    between atoms: C18_23  and  C19_24
REMARK       I    between atoms: C19_24  and  N2_26
REMARK   12  A    between atoms: C23_30  and  C24_31
REMARK       I    between atoms: C24_31  and  N3_33
REMARK   13  A    between atoms: C28_37  and  C29_38
ROOT
HETATM    1  C10 UNL     1      17.407  23.533  18.781  1.00  0.00     0.332 C
HETATM    2  O3  UNL     1      17.912  23.887  17.570  1.00  0.00    -0.348 OA
HETATM    3  C11 UNL     1      17.007  24.281  16.611  1.00  0.00     0.131 C
HETATM    4  C12 UNL     1      17.488  23.939  15.225  1.00  0.00     0.032 C
HETATM    5  C13 UNL     1      16.990  22.622  14.705  1.00  0.00     0.002 C
HETATM    6  C14 UNL     1      15.490  22.550  14.718  1.00  0.00     0.001 C
HETATM    7  C15 UNL     1      14.882  23.651  15.551  1.00  0.00     0.010 C
HETATM    8  C16 UNL     1      15.593  23.841  16.872  1.00  0.00     0.044 C
HETATM    9  C17 UNL     1      15.596  22.582  17.682  1.00  0.00     0.140 C
HETATM   10  O7  UNL     1      16.392  22.620  18.788  1.00  0.00    -0.348 OA
ENDROOT
BRANCH   9  11
HETATM   11  C18 UNL     1      14.178  22.266  18.102  1.00  0.00     0.135 C
BRANCH  11  12
HETATM   12  C19 UNL     1      14.280  21.150  19.077  1.00  0.00     0.223 C
HETATM   13  O4  UNL     1      14.686  21.360  20.250  1.00  0.00    -0.273 OA
HETATM   14  N2  UNL     1      13.932  19.804  18.742  1.00  0.00    -0.333 N
HETATM   15  C20 UNL     1      13.913  18.520  19.377  1.00  0.00     0.095 A
HETATM   16  C23 UNL     1      13.421  19.238  17.492  1.00  0.00     0.186 A
HETATM   17  C21 UNL     1      14.680  17.391  18.749  1.00  0.00     0.035 A
HETATM   18  C22 UNL     1      13.432  17.879  18.154  1.00  0.00     0.043 A
BRANCH  16  19
HETATM   19  C24 UNL     1      12.013  19.643  17.226  1.00  0.00     0.244 C
HETATM   20  O5  UNL     1      11.194  19.628  18.181  1.00  0.00    -0.271 OA
HETATM   21  N3  UNL     1      11.646  20.028  15.929  1.00  0.00    -0.337 N
HETATM   22  C25 UNL     1      12.510  20.098  14.778  1.00  0.00     0.127 C
HETATM   23  C28 UNL     1      10.345  20.438  15.466  1.00  0.00     0.176 C
HETATM   24  C26 UNL     1      12.177  21.508  14.273  1.00  0.00     0.022 C
HETATM   25  C27 UNL     1      10.691  21.597  14.558  1.00  0.00     0.036 C
BRANCH  23  26
HETATM   26  C29 UNL     1       9.686  19.319  14.770  1.00  0.00     0.254 C
HETATM   27  N4  UNL     1       9.359  19.498  13.397  1.00  0.00    -0.060 NA
HETATM   28  O6  UNL     1       9.400  18.229  15.308  1.00  0.00    -0.275 OA
ENDBRANCH  23  26
ENDBRANCH  16  19
ENDBRANCH  11  12
ENDBRANCH   9  11
BRANCH   1  29
HETATM   29  C9  UNL     1      18.512  22.983  19.615  1.00  0.00     0.198 C
HETATM   30  O2  UNL     1      18.714  21.759  19.652  1.00  0.00    -0.291 OA
BRANCH  29  31
HETATM   31  C8  UNL     1      19.408  23.834  20.425  1.00  0.00     0.206 C
BRANCH  31  32
HETATM   32  N1  UNL     1      19.685  25.114  19.869  1.00  0.00    -0.354 N
HETATM   33  C7  UNL     1      20.830  25.422  19.086  1.00  0.00     0.217 C
HETATM   34  O1  UNL     1      21.646  24.497  18.888  1.00  0.00    -0.274 OA
ATOM     35  H1  UNL     1      19.015  25.863  20.045  1.00  0.00     0.162 HD
BRANCH  33  36
HETATM   36  C6  UNL     1      21.077  26.758  18.521  1.00  0.00     0.105 C
BRANCH  36  37
HETATM   37  C5  UNL     1      20.645  26.866  17.071  1.00  0.00     0.041 C
BRANCH  37  38
HETATM   38  C4  UNL     1      21.485  27.781  16.248  1.00  0.00     0.121 C
BRANCH  38  39
HETATM   39  C3  UNL     1      22.296  27.020  15.245  1.00  0.00     0.031 C
BRANCH  39  40
HETATM   40  C2  UNL     1      23.761  27.143  15.551  1.00  0.00    -0.002 C
HETATM   41  C1  UNL     1      24.167  28.615  15.669  1.00  0.00     0.005 C
ENDBRANCH  39  40
ENDBRANCH  38  39
BRANCH  38  42
HETATM   42  O8  UNL     1      20.690  28.667  15.494  1.00  0.00    -0.391 OA
HETATM   43  C30 UNL     1      20.317  28.166  14.271  1.00  0.00     0.202 C
ENDBRANCH  38  42
ENDBRANCH  37  38
ENDBRANCH  36  37
ENDBRANCH  33  36
ENDBRANCH  31  32
ENDBRANCH  29  31
ENDBRANCH   1  29
TORSDOF 13
ENDMDL