MODEL 2
REMARK VINA RESULT: -7.832248365      1.401      1.819
REMARK  15 active torsions:
REMARK  status: ('A' for Active; 'I' for Inactive)
REMARK    1  A    between atoms: C2_2  and  O1_5
REMARK    2  A    between atoms: O1_5  and  C5_6
REMARK       I    between atoms: C5_6  and  N1_8
REMARK    3  A    between atoms: C7_10  and  C8_11
REMARK       I    between atoms: C8_11  and  N2_13
REMARK    4  A    between atoms: C13_19  and  C14_20
REMARK       I    between atoms: C14_20  and  N3_22
REMARK    5  A    between atoms: N3_22  and  C15_24
REMARK    6  A    between atoms: C15_24  and  C16_25
REMARK    7  A    between atoms: C15_24  and  C17_27
REMARK    8  A    between atoms: C17_27  and  C18_28
REMARK    9  A    between atoms: C18_28  and  C19_29
REMARK       I    between atoms: C19_29  and  N4_31
REMARK   10  A    between atoms: N4_31  and  C20_33
REMARK   11  A    between atoms: C20_33  and  C21_34
REMARK   12  A    between atoms: C21_34  and  C22_35
REMARK   13  A    between atoms: C22_35  and  C23_36
REMARK   14  A    between atoms: C23_36  and  C24_37
REMARK   15  A    between atoms: C24_37  and  N5_38
ROOT
HETATM    1  C14 UNL     1      18.494  22.335  16.778  1.00  0.00     0.232 C
HETATM    2  O5  UNL     1      18.551  21.217  16.208  1.00  0.00    -0.273 OA
HETATM    3  N3  UNL     1      17.881  22.417  18.043  1.00  0.00    -0.355 N
ATOM      4  H3  UNL     1      17.832  23.327  18.500  1.00  0.00     0.162 HD
ENDROOT
BRANCH   1   5
HETATM    5  C13 UNL     1      19.046  23.517  16.152  1.00  0.00     0.185 C
HETATM    6  C7  UNL     1      18.136  24.406  15.400  1.00  0.00     0.118 C
HETATM    7  C6  UNL     1      18.801  25.733  15.352  1.00  0.00     0.152 C
HETATM    8  N1  UNL     1      19.794  25.728  16.395  1.00  0.00    -0.262 N
HETATM    9  C5  UNL     1      20.748  26.768  16.631  1.00  0.00     0.370 C
HETATM   10  C28 UNL     1      19.644  24.511  17.110  1.00  0.00     0.242 C
HETATM   11  O2  UNL     1      21.567  26.612  17.590  1.00  0.00    -0.238 OA
HETATM   12  O7  UNL     1      19.943  24.300  18.285  1.00  0.00    -0.272 OA
BRANCH   6  13
HETATM   13  C8  UNL     1      16.740  24.469  15.898  1.00  0.00     0.227 C
HETATM   14  O3  UNL     1      16.359  25.220  16.817  1.00  0.00    -0.273 OA
HETATM   15  N2  UNL     1      15.785  23.627  15.293  1.00  0.00    -0.348 N
HETATM   16  C9  UNL     1      16.096  22.697  14.224  1.00  0.00     0.152 C
HETATM   17  C12 UNL     1      14.395  23.642  15.717  1.00  0.00     0.152 C
HETATM   18  C10 UNL     1      15.094  21.541  14.376  1.00  0.00     0.187 C
HETATM   19  O4  UNL     1      13.861  22.000  14.006  1.00  0.00    -0.388 OA
HETATM   20  C11 UNL     1      13.489  23.179  14.590  1.00  0.00     0.187 C
ENDBRANCH   6  13
BRANCH   9  21
HETATM   21  O1  UNL     1      20.844  27.923  15.897  1.00  0.00    -0.293 OA
BRANCH  21  22
HETATM   22  C2  UNL     1      21.857  28.112  14.899  1.00  0.00     0.061 C
HETATM   23  C1  UNL     1      21.131  28.476  13.619  1.00  0.00     0.046 C
HETATM   24  C3  UNL     1      22.850  29.158  15.263  1.00  0.00     0.046 C
HETATM   25  C4  UNL     1      22.541  26.765  14.637  1.00  0.00     0.046 C
ENDBRANCH  21  22
ENDBRANCH   9  21
ENDBRANCH   1   5
BRANCH   3  26
HETATM   26  C15 UNL     1      17.307  21.253  18.739  1.00  0.00     0.095 C
BRANCH  26  27
HETATM   27  C16 UNL     1      17.867  21.260  20.121  1.00  0.00     0.111 C
HETATM   28  S1  UNL     1      19.644  21.494  20.222  1.00  0.00    -0.096 SA
ENDBRANCH  26  27
BRANCH  26  29
HETATM   29  C17 UNL     1      15.835  21.407  18.614  1.00  0.00     0.035 C
BRANCH  29  30
HETATM   30  C18 UNL     1      14.981  21.261  19.795  1.00  0.00     0.105 C
BRANCH  30  31
HETATM   31  C19 UNL     1      14.381  19.897  20.002  1.00  0.00     0.221 C
HETATM   32  O6  UNL     1      13.958  19.662  21.129  1.00  0.00    -0.273 OA
HETATM   33  N4  UNL     1      14.327  18.984  18.947  1.00  0.00    -0.341 N
ATOM     34  H4  UNL     1      14.722  19.360  18.085  1.00  0.00     0.167 HD
BRANCH  33  35
HETATM   35  C20 UNL     1      13.858  17.677  18.794  1.00  0.00     0.064 C
BRANCH  35  36
HETATM   36  C21 UNL     1      12.463  17.268  19.047  1.00  0.00     0.044 C
BRANCH  36  37
HETATM   37  C22 UNL     1      11.320  18.031  18.515  1.00  0.00     0.007 C
BRANCH  37  38
HETATM   38  C23 UNL     1      10.493  17.255  17.494  1.00  0.00     0.028 C
BRANCH  38  39
HETATM   39  C24 UNL     1      10.913  15.822  17.386  1.00  0.00     0.236 C
BRANCH  39  40
HETATM   40  N5  UNL     1      10.316  15.234  16.221  1.00  0.00    -0.079 N
HETATM   41  C25 UNL     1      10.890  15.804  15.004  1.00  0.00     0.271 C
HETATM   42  C26 UNL     1       8.885  15.452  16.230  1.00  0.00     0.271 C
HETATM   43  C27 UNL     1      10.518  13.787  16.179  1.00  0.00     0.271 C
ENDBRANCH  39  40
ENDBRANCH  38  39
ENDBRANCH  37  38
ENDBRANCH  36  37
ENDBRANCH  35  36
ENDBRANCH  33  35
ENDBRANCH  30  31
ENDBRANCH  29  30
ENDBRANCH  26  29
ENDBRANCH   3  26
TORSDOF 15
ENDMDL