MODEL 1
REMARK VINA RESULT: -8.665382973      0.000      0.000
REMARK  16 active torsions:
REMARK  status: ('A' for Active; 'I' for Inactive)
REMARK    1  A    between atoms: C2_2  and  C3_3
REMARK    2  A    between atoms: C3_3  and  C4_4
REMARK    3  A    between atoms: C4_4  and  O1_5
REMARK    4  A    between atoms: O1_5  and  C5_6
REMARK       I    between atoms: C5_6  and  N1_8
REMARK       I    between atoms: N2_11  and  C8_12
REMARK    5  A    between atoms: C8_12  and  C9_14
REMARK    6  A    between atoms: C9_14  and  C10_16
REMARK    7  A    between atoms: C10_16  and  C11_17
REMARK    8  A    between atoms: C10_16  and  N3_24
REMARK    9  A    between atoms: C11_17  and  C12_18
REMARK   10  A    between atoms: N3_24  and  C18_26
REMARK   11  A    between atoms: C18_26  and  C19_31
REMARK   12  A    between atoms: N4_27  and  O5_29
REMARK   13  A    between atoms: N5_35  and  S1_36
REMARK   14  A    between atoms: S1_36  and  C23_39
REMARK   15  A    between atoms: C23_39  and  C24_40
REMARK   16  A    between atoms: C24_40  and  N6_41
ROOT
HETATM    1  C10 UNL     1      16.502  23.030  15.690  1.00  0.00     0.163 C
ENDROOT
BRANCH   1   2
HETATM    2  C9  UNL     1      16.833  22.152  16.867  1.00  0.00     0.239 C
HETATM    3  O4  UNL     1      17.880  21.471  16.775  1.00  0.00    -0.285 OA
BRANCH   2   4
HETATM    4  C8  UNL     1      16.033  22.059  18.059  1.00  0.00     0.291 C
HETATM    5  N2  UNL     1      15.369  20.897  18.536  1.00  0.00    -0.342 N
HETATM    6  C7  UNL     1      15.398  19.698  17.761  1.00  0.00     0.146 C
HETATM    7  C26 UNL     1      14.705  21.035  19.838  1.00  0.00     0.146 C
HETATM    8  C6  UNL     1      14.448  18.614  18.230  1.00  0.00     0.148 C
HETATM    9  N1  UNL     1      13.670  18.965  19.369  1.00  0.00    -0.325 N
HETATM   10  C5  UNL     1      12.298  18.616  19.443  1.00  0.00     0.362 C
HETATM   11  C27 UNL     1      14.333  19.701  20.433  1.00  0.00     0.148 C
HETATM   12  O2  UNL     1      11.611  18.935  20.454  1.00  0.00    -0.238 OA
HETATM   13  O3  UNL     1      15.931  23.157  18.734  1.00  0.00    -0.264 OA
BRANCH  10  14
HETATM   14  O1  UNL     1      11.704  17.922  18.402  1.00  0.00    -0.304 OA
BRANCH  14  15
HETATM   15  C4  UNL     1      10.533  18.170  17.745  1.00  0.00     0.180 C
BRANCH  15  16
HETATM   16  C3  UNL     1      10.493  19.139  16.659  1.00  0.00     0.026 C
BRANCH  16  17
HETATM   17  C2  UNL     1      10.056  18.824  15.293  1.00  0.00    -0.002 C
HETATM   18  C1  UNL     1      10.824  17.791  14.543  1.00  0.00     0.005 C
ENDBRANCH  16  17
ENDBRANCH  15  16
ENDBRANCH  14  15
ENDBRANCH  10  14
ENDBRANCH   2   4
ENDBRANCH   1   2
BRANCH   1  19
HETATM   19  C11 UNL     1      16.396  22.181  14.483  1.00  0.00     0.038 C
BRANCH  19  20
HETATM   20  C12 UNL     1      15.044  21.993  13.880  1.00  0.00    -0.012 C
HETATM   21  C13 UNL     1      14.176  23.156  14.345  1.00  0.00     0.005 C
HETATM   22  C14 UNL     1      13.086  22.727  15.301  1.00  0.00     0.000 C
HETATM   23  C15 UNL     1      12.085  21.820  14.615  1.00  0.00     0.000 C
HETATM   24  C16 UNL     1      12.873  20.877  13.735  1.00  0.00     0.000 C
HETATM   25  C17 UNL     1      14.315  20.750  14.234  1.00  0.00     0.005 C
ENDBRANCH  19  20
ENDBRANCH   1  19
BRANCH   1  26
HETATM   26  N3  UNL     1      17.419  24.110  15.665  1.00  0.00    -0.365 N
ATOM     27  H3  UNL     1      17.790  24.321  14.738  1.00  0.00     0.161 HD
BRANCH  26  28
HETATM   28  C18 UNL     1      17.908  24.938  16.681  1.00  0.00     0.117 C
HETATM   29  N4  UNL     1      17.358  25.586  17.581  1.00  0.00    -0.256 N
ATOM     30  H4  UNL     1      18.062  26.073  18.135  1.00  0.00     0.195 HD
BRANCH  29  31
HETATM   31  O5  UNL     1      16.164  25.849  18.053  1.00  0.00    -0.288 OA
ATOM     32  H5  UNL     1      15.385  25.405  18.367  1.00  0.00     0.244 HD
ENDBRANCH  29  31
BRANCH  28  33
HETATM   33  C19 UNL     1      19.436  25.066  16.667  1.00  0.00     0.143 C
HETATM   34  C20 UNL     1      20.060  24.460  15.463  1.00  0.00     0.030 C
HETATM   35  C21 UNL     1      20.630  25.627  14.682  1.00  0.00     0.018 C
HETATM   36  C22 UNL     1      20.144  26.845  15.389  1.00  0.00     0.108 C
HETATM   37  N5  UNL     1      19.864  26.416  16.705  1.00  0.00    -0.199 NA
BRANCH  37  38
HETATM   38  S1  UNL     1      21.104  26.618  17.858  1.00  0.00     0.213 S
HETATM   39  O6  UNL     1      22.373  26.951  17.093  1.00  0.00    -0.211 OA
HETATM   40  O7  UNL     1      20.812  27.792  18.741  1.00  0.00    -0.211 OA
BRANCH  38  41
HETATM   41  C23 UNL     1      21.389  25.212  18.855  1.00  0.00     0.185 C
BRANCH  41  42
HETATM   42  C24 UNL     1      20.901  25.464  20.264  1.00  0.00     0.248 C
BRANCH  42  43
HETATM   43  N6  UNL     1      19.457  25.314  20.351  1.00  0.00    -0.078 N
HETATM   44  C25 UNL     1      19.080  23.909  20.321  1.00  0.00     0.267 C
ATOM     45  H62 UNL     1      19.076  25.789  21.169  1.00  0.00     0.276 HD
ATOM     46  H61 UNL     1      18.978  25.848  19.626  1.00  0.00     0.276 HD
ENDBRANCH  42  43
ENDBRANCH  41  42
ENDBRANCH  38  41
ENDBRANCH  37  38
ENDBRANCH  28  33
ENDBRANCH  26  28
ENDBRANCH   1  26
TORSDOF 16
ENDMDL