MODEL 1
REMARK VINA RESULT: -9.205920239      0.000      0.000
REMARK  13 active torsions:
REMARK  status: ('A' for Active; 'I' for Inactive)
REMARK    1  A    between atoms: C1_2  and  C2_3
REMARK       I    between atoms: C1_2  and  N5_35
REMARK    2  A    between atoms: C2_3  and  N1_4
REMARK    3  A    between atoms: C6_8  and  C7_9
REMARK       I    between atoms: C7_9  and  N2_11
REMARK    4  A    between atoms: N2_11  and  C8_13
REMARK    5  A    between atoms: C8_13  and  C9_14
REMARK    6  A    between atoms: C8_13  and  C18_28
REMARK       I    between atoms: C9_14  and  N3_16
REMARK    7  A    between atoms: N3_16  and  C10_18
REMARK    8  A    between atoms: C10_18  and  C11_19
REMARK    9  A    between atoms: C11_19  and  C12_20
REMARK   10  A    between atoms: C12_20  and  C13_21
REMARK   11  A    between atoms: C13_21  and  N4_22
REMARK   12  A    between atoms: N5_35  and  S1_37
REMARK   13  A    between atoms: S1_37  and  C25_40
ROOT
HETATM    1  C7  UNL     1      19.041  24.741  15.397  1.00  0.00     0.223 C
HETATM    2  O2  UNL     1      19.903  23.788  15.476  1.00  0.00    -0.273 OA
HETATM    3  N2  UNL     1      17.692  24.381  15.454  1.00  0.00    -0.347 N
ATOM      4  H2  UNL     1      16.965  25.094  15.381  1.00  0.00     0.163 HD
ENDROOT
BRANCH   3   5
HETATM    5  C8  UNL     1      17.334  22.987  15.617  1.00  0.00     0.180 C
BRANCH   5   6
HETATM    6  C9  UNL     1      16.124  22.769  14.755  1.00  0.00     0.240 C
HETATM    7  O3  UNL     1      16.202  22.288  13.613  1.00  0.00    -0.271 OA
HETATM    8  N3  UNL     1      14.826  23.120  15.257  1.00  0.00    -0.359 N
ATOM      9  H3  UNL     1      14.729  23.519  16.190  1.00  0.00     0.162 HD
BRANCH   8  10
HETATM   10  C10 UNL     1      13.665  22.906  14.439  1.00  0.00     0.122 C
BRANCH  10  11
HETATM   11  C11 UNL     1      12.960  21.631  15.003  1.00  0.00     0.021 C
BRANCH  11  12
HETATM   12  C12 UNL     1      13.583  21.336  16.321  1.00  0.00     0.032 C
BRANCH  12  13
HETATM   13  C13 UNL     1      13.364  20.004  16.897  1.00  0.00     0.272 C
BRANCH  13  14
HETATM   14  N4  UNL     1      12.588  19.872  18.054  1.00  0.00     0.092 N
HETATM   15  C14 UNL     1      11.441  19.058  18.030  1.00  0.00     0.298 C
HETATM   16  C15 UNL     1      11.805  17.573  17.840  1.00  0.00     0.198 C
HETATM   17  O4  UNL     1      12.614  17.193  18.893  1.00  0.00    -0.388 OA
HETATM   18  C16 UNL     1      13.774  17.936  18.953  1.00  0.00     0.198 C
HETATM   19  C17 UNL     1      13.437  19.419  19.162  1.00  0.00     0.298 C
ENDBRANCH  13  14
ENDBRANCH  12  13
ENDBRANCH  11  12
ENDBRANCH  10  11
ENDBRANCH   8  10
ENDBRANCH   5   6
BRANCH   5  20
HETATM   20  C18 UNL     1      17.099  22.616  17.035  1.00  0.00     0.018 C
HETATM   21  C19 UNL     1      17.993  21.477  17.425  1.00  0.00     0.007 C
HETATM   22  C20 UNL     1      18.317  21.493  18.908  1.00  0.00     0.000 C
HETATM   23  C21 UNL     1      17.146  21.968  19.718  1.00  0.00     0.000 C
HETATM   24  C22 UNL     1      16.846  23.405  19.371  1.00  0.00     0.000 C
HETATM   25  C23 UNL     1      17.305  23.773  17.974  1.00  0.00     0.007 C
ENDBRANCH   5  20
ENDBRANCH   3   5
BRANCH   1  26
HETATM   26  C6  UNL     1      19.633  26.074  15.265  1.00  0.00     0.091 C
HETATM   27  C5  UNL     1      20.854  26.020  14.322  1.00  0.00     0.016 C
HETATM   28  C4  UNL     1      21.084  27.445  13.874  1.00  0.00     0.016 C
HETATM   29  C3  UNL     1      20.584  28.417  14.937  1.00  0.00     0.095 C
HETATM   30  N1  UNL     1      20.835  27.901  16.265  1.00  0.00    -0.287 NA
HETATM   31  C24 UNL     1      20.164  26.665  16.545  1.00  0.00     0.109 C
BRANCH  30  32
HETATM   32  C2  UNL     1      22.208  27.946  16.582  1.00  0.00     0.135 C
BRANCH  32  33
HETATM   33  C1  UNL     1      22.523  27.255  17.864  1.00  0.00     0.265 C
HETATM   34  O1  UNL     1      23.376  26.352  17.913  1.00  0.00    -0.267 OA
HETATM   35  N5  UNL     1      21.838  27.629  19.053  1.00  0.00    -0.250 N
ATOM     36  H5  UNL     1      21.151  28.376  18.950  1.00  0.00     0.181 HD
BRANCH  35  37
HETATM   37  S1  UNL     1      22.009  27.007  20.608  1.00  0.00     0.237 S
HETATM   38  O5  UNL     1      23.494  26.990  20.957  1.00  0.00    -0.205 OA
HETATM   39  O6  UNL     1      21.380  27.884  21.666  1.00  0.00    -0.205 OA
BRANCH  37  40
HETATM   40  C25 UNL     1      21.423  25.363  20.873  1.00  0.00     0.130 C
HETATM   41  C26 UNL     1      20.287  25.144  19.865  1.00  0.00     0.022 C
HETATM   42  C27 UNL     1      20.847  24.141  18.882  1.00  0.00     0.001 C
HETATM   43  C28 UNL     1      21.711  23.252  19.773  1.00  0.00     0.001 C
HETATM   44  C29 UNL     1      22.392  24.283  20.635  1.00  0.00     0.022 C
ENDBRANCH  37  40
ENDBRANCH  35  37
ENDBRANCH  32  33
ENDBRANCH  30  32
ENDBRANCH   1  26
TORSDOF 13
ENDMDL