MODEL 3
REMARK VINA RESULT: -8.547160741      1.653      2.345
REMARK  13 active torsions:
REMARK  status: ('A' for Active; 'I' for Inactive)
REMARK    1  A    between atoms: C2_2  and  C3_3
REMARK    2  A    between atoms: C3_3  and  C5_5
REMARK    3  A    between atoms: C8_8  and  C9_9
REMARK       I    between atoms: C9_9  and  N1_11
REMARK    4  A    between atoms: C10_13  and  C11_14
REMARK    5  A    between atoms: C10_13  and  C22_30
REMARK    6  A    between atoms: C11_14  and  C12_15
REMARK    7  A    between atoms: C12_15  and  C13_16
REMARK       I    between atoms: C13_16  and  N2_18
REMARK    8  A    between atoms: C17_22  and  C18_23
REMARK       I    between atoms: C18_23  and  N3_25
REMARK       I    between atoms: C22_30  and  N4_32
REMARK    9  A    between atoms: N4_32  and  C23_34
REMARK   10  A    between atoms: C23_34  and  C24_35
REMARK   11  A    between atoms: C23_34  and  C27_40
REMARK   12  A    between atoms: C24_35  and  C25_36
REMARK   13  A    between atoms: C25_36  and  C26_37
ROOT
HETATM    1  C9  UNL     1      18.238  25.531  16.673  1.00  0.00     0.251 C
HETATM    2  O1  UNL     1      17.016  25.726  16.826  1.00  0.00    -0.270 OA
HETATM    3  N1  UNL     1      19.041  25.374  17.818  1.00  0.00    -0.324 N
ATOM      4  H1  UNL     1      19.779  26.066  17.951  1.00  0.00     0.169 HD
HETATM    5  C10 UNL     1      18.949  24.454  18.721  1.00  0.00     0.080 C
ENDROOT
BRANCH   5   6
HETATM    6  C11 UNL     1      17.927  23.409  18.625  1.00  0.00     0.072 C
BRANCH   6   7
HETATM    7  C12 UNL     1      18.366  22.276  17.723  1.00  0.00     0.109 C
BRANCH   7   8
HETATM    8  C13 UNL     1      17.183  21.764  17.048  1.00  0.00     0.220 C
HETATM    9  O2  UNL     1      17.065  21.945  15.781  1.00  0.00    -0.273 OA
HETATM   10  N2  UNL     1      16.159  21.066  17.731  1.00  0.00    -0.339 N
HETATM   11  C14 UNL     1      16.130  20.778  19.155  1.00  0.00     0.127 C
HETATM   12  C17 UNL     1      14.968  20.530  17.103  1.00  0.00     0.179 C
HETATM   13  C15 UNL     1      14.621  20.925  19.413  1.00  0.00     0.022 C
HETATM   14  C16 UNL     1      14.090  20.080  18.279  1.00  0.00     0.037 C
BRANCH  12  15
HETATM   15  C18 UNL     1      14.245  21.691  16.460  1.00  0.00     0.243 C
HETATM   16  O3  UNL     1      14.264  22.827  16.969  1.00  0.00    -0.271 OA
HETATM   17  N3  UNL     1      13.550  21.406  15.250  1.00  0.00    -0.341 N
HETATM   18  C19 UNL     1      13.446  20.161  14.535  1.00  0.00     0.137 C
HETATM   19  C21 UNL     1      12.796  22.449  14.531  1.00  0.00     0.200 C
HETATM   20  C20 UNL     1      11.980  19.804  14.405  1.00  0.00     0.095 C
HETATM   21  S1  UNL     1      11.253  21.484  14.246  1.00  0.00    -0.148 SA
ENDBRANCH  12  15
ENDBRANCH   7   8
ENDBRANCH   6   7
ENDBRANCH   5   6
BRANCH   5  22
HETATM   22  C22 UNL     1      19.889  24.510  19.824  1.00  0.00     0.264 C
HETATM   23  O4  UNL     1      19.456  24.192  20.992  1.00  0.00    -0.266 OA
HETATM   24  N4  UNL     1      21.233  24.886  19.711  1.00  0.00    -0.343 N
ATOM     25  H4  UNL     1      21.591  25.140  18.791  1.00  0.00     0.163 HD
BRANCH  24  26
HETATM   26  C23 UNL     1      22.147  24.934  20.848  1.00  0.00     0.174 C
BRANCH  26  27
HETATM   27  C24 UNL     1      22.433  26.357  21.156  1.00  0.00     0.045 C
BRANCH  27  28
HETATM   28  C25 UNL     1      21.685  27.386  20.391  1.00  0.00     0.116 C
BRANCH  28  29
HETATM   29  C26 UNL     1      21.922  27.420  18.944  1.00  0.00     0.172 C
HETATM   30  O5  UNL     1      23.091  27.193  18.444  1.00  0.00    -0.648 OA
HETATM   31  O6  UNL     1      20.951  27.685  18.006  1.00  0.00    -0.648 OA
ENDBRANCH  28  29
ENDBRANCH  27  28
ENDBRANCH  26  27
BRANCH  26  32
HETATM   32  C27 UNL     1      23.322  24.080  20.615  1.00  0.00     0.254 C
HETATM   33  N5  UNL     1      24.490  24.079  21.409  1.00  0.00    -0.060 NA
HETATM   34  O7  UNL     1      23.255  23.285  19.608  1.00  0.00    -0.275 OA
ENDBRANCH  26  32
ENDBRANCH  24  26
ENDBRANCH   5  22
BRANCH   1  35
HETATM   35  C8  UNL     1      18.863  25.469  15.298  1.00  0.00     0.214 C
HETATM   36  C7  UNL     1      18.161  26.495  14.407  1.00  0.00     0.044 C
HETATM   37  C6  UNL     1      19.299  27.538  14.318  1.00  0.00     0.035 C
HETATM   38  C5  UNL     1      20.445  26.517  14.195  1.00  0.00     0.126 C
HETATM   39  O8  UNL     1      20.204  25.800  15.358  1.00  0.00    -0.371 OA
BRANCH  38  40
HETATM   40  C3  UNL     1      21.782  27.181  14.187  1.00  0.00     0.010 C
HETATM   41  C4  UNL     1      22.790  26.443  15.035  1.00  0.00     0.012 C
BRANCH  40  42
HETATM   42  C2  UNL     1      21.763  28.651  14.448  1.00  0.00     0.002 C
HETATM   43  C1  UNL     1      22.967  29.001  15.295  1.00  0.00     0.005 C
ENDBRANCH  40  42
ENDBRANCH  38  40
ENDBRANCH   1  35
TORSDOF 13
ENDMDL