MODEL 5
REMARK VINA RESULT: -8.193361195      3.742     10.698
REMARK  17 active torsions:
REMARK  status: ('A' for Active; 'I' for Inactive)
REMARK    1  A    between atoms: C2_2  and  O1_5
REMARK    2  A    between atoms: O1_5  and  C5_6
REMARK    3  A    between atoms: C5_6  and  C6_8
REMARK    4  A    between atoms: C6_8  and  C7_9
REMARK    5  A    between atoms: C7_9  and  C8_10
REMARK    6  A    between atoms: C8_10  and  C9_11
REMARK    7  A    between atoms: C9_11  and  C10_12
REMARK    8  A    between atoms: C10_12  and  C11_13
REMARK       I    between atoms: C11_13  and  N1_15
REMARK    9  A    between atoms: N1_15  and  C12_17
REMARK   10  A    between atoms: C12_17  and  C13_18
REMARK       I    between atoms: C13_18  and  N2_20
REMARK   11  A    between atoms: N2_20  and  C14_22
REMARK   12  A    between atoms: C14_22  and  C15_23
REMARK   13  A    between atoms: C15_23  and  S1_24
REMARK   14  A    between atoms: S1_24  and  N3_25
REMARK       I    between atoms: N4_30  and  C16_32
REMARK   15  A    between atoms: C16_32  and  C17_34
REMARK       I    between atoms: N5_38  and  C21_39
REMARK   16  A    between atoms: C21_39  and  O9_41
REMARK   17  A    between atoms: O9_41  and  C22_42
ROOT
HETATM    1  C8  UNL     1      18.137  23.980  16.853  1.00  0.00    -0.010 C
HETATM    2  N4  UNL     1      17.292  23.279  16.265  1.00  0.00    -0.333 N
ATOM      3  H4  UNL     1      16.603  23.842  15.767  1.00  0.00     0.168 HD
HETATM    4  C16 UNL     1      17.057  21.911  16.123  1.00  0.00     0.244 C
HETATM    5  O7  UNL     1      17.982  21.093  16.221  1.00  0.00    -0.271 OA
ENDROOT
BRANCH   1   6
HETATM    6  C7  UNL     1      17.967  25.476  16.710  1.00  0.00     0.062 C
BRANCH   6   7
HETATM    7  C6  UNL     1      19.081  25.947  15.798  1.00  0.00     0.117 C
BRANCH   7   8
HETATM    8  C5  UNL     1      20.011  26.866  16.500  1.00  0.00     0.259 C
HETATM    9  O2  UNL     1      20.348  26.673  17.696  1.00  0.00    -0.265 OA
BRANCH   8  10
HETATM   10  O1  UNL     1      20.509  27.953  15.816  1.00  0.00    -0.311 OA
BRANCH  10  11
HETATM   11  C2  UNL     1      21.649  27.923  15.010  1.00  0.00     0.060 C
HETATM   12  C1  UNL     1      22.604  28.988  15.516  1.00  0.00     0.045 C
HETATM   13  C3  UNL     1      21.313  28.314  13.573  1.00  0.00     0.045 C
HETATM   14  C4  UNL     1      22.366  26.605  15.002  1.00  0.00     0.045 C
ENDBRANCH  10  11
ENDBRANCH   8  10
ENDBRANCH   7   8
ENDBRANCH   6   7
ENDBRANCH   1   6
BRANCH   1  15
HETATM   15  C9  UNL     1      19.234  23.437  17.661  1.00  0.00     0.062 C
BRANCH  15  16
HETATM   16  C10 UNL     1      18.992  23.402  19.130  1.00  0.00     0.108 C
BRANCH  16  17
HETATM   17  C11 UNL     1      20.074  23.972  19.961  1.00  0.00     0.218 C
HETATM   18  O3  UNL     1      21.095  23.350  20.337  1.00  0.00    -0.274 OA
HETATM   19  N1  UNL     1      20.010  25.343  20.406  1.00  0.00    -0.352 N
ATOM     20  H1  UNL     1      19.201  25.898  20.125  1.00  0.00     0.162 HD
BRANCH  19  21
HETATM   21  C12 UNL     1      21.001  25.971  21.210  1.00  0.00     0.225 C
BRANCH  21  22
HETATM   22  C13 UNL     1      22.073  26.665  20.469  1.00  0.00     0.235 C
HETATM   23  O4  UNL     1      22.404  27.829  20.780  1.00  0.00    -0.272 OA
HETATM   24  N2  UNL     1      22.764  26.042  19.380  1.00  0.00    -0.359 N
ATOM     25  H2  UNL     1      22.524  25.093  19.093  1.00  0.00     0.162 HD
BRANCH  24  26
HETATM   26  C14 UNL     1      23.789  26.761  18.701  1.00  0.00     0.139 C
BRANCH  26  27
HETATM   27  C15 UNL     1      24.932  25.925  18.264  1.00  0.00     0.182 C
BRANCH  27  28
HETATM   28  S1  UNL     1      25.310  24.677  19.440  1.00  0.00     0.226 S
HETATM   29  O5  UNL     1      25.354  25.232  20.816  1.00  0.00    -0.206 OA
HETATM   30  O6  UNL     1      24.358  23.521  19.373  1.00  0.00    -0.206 OA
BRANCH  28  31
HETATM   31  N3  UNL     1      26.875  24.033  18.987  1.00  0.00    -0.328 N
ATOM     32  H32 UNL     1      27.627  24.547  18.530  1.00  0.00     0.168 HD
ATOM     33  H31 UNL     1      26.875  23.053  19.273  1.00  0.00     0.168 HD
ENDBRANCH  28  31
ENDBRANCH  27  28
ENDBRANCH  26  27
ENDBRANCH  24  26
ENDBRANCH  21  22
ENDBRANCH  19  21
ENDBRANCH  16  17
ENDBRANCH  15  16
ENDBRANCH   1  15
BRANCH   4  34
HETATM   34  C17 UNL     1      15.695  21.494  15.857  1.00  0.00     0.181 C
HETATM   35  C18 UNL     1      14.822  22.638  15.325  1.00  0.00     0.037 C
HETATM   36  C19 UNL     1      13.456  21.949  15.310  1.00  0.00     0.022 C
HETATM   37  C20 UNL     1      13.654  20.610  16.032  1.00  0.00     0.129 C
HETATM   38  N5  UNL     1      14.852  20.980  16.846  1.00  0.00    -0.315 N
HETATM   39  C21 UNL     1      14.865  20.782  18.218  1.00  0.00     0.363 C
HETATM   40  O8  UNL     1      15.768  21.065  19.047  1.00  0.00    -0.238 OA
BRANCH  39  41
HETATM   41  O9  UNL     1      13.746  20.180  18.883  1.00  0.00    -0.298 OA
BRANCH  41  42
HETATM   42  C22 UNL     1      13.901  19.046  19.710  1.00  0.00     0.133 C
HETATM   43  C23 UNL     1      12.641  18.810  20.532  1.00  0.00     0.032 C
HETATM   44  C24 UNL     1      11.649  18.319  19.487  1.00  0.00     0.002 C
HETATM   45  C25 UNL     1      12.490  17.642  18.452  1.00  0.00     0.002 C
HETATM   46  C26 UNL     1      13.929  17.827  18.825  1.00  0.00     0.032 C
ENDBRANCH  41  42
ENDBRANCH  39  41
ENDBRANCH   4  34
TORSDOF 17
ENDMDL