MODEL 3
REMARK VINA RESULT: -8.667863433      2.419      5.576
REMARK  13 active torsions:
REMARK  status: ('A' for Active; 'I' for Inactive)
REMARK    1  A    between atoms: C2_2  and  C3_3
REMARK    2  A    between atoms: C3_3  and  C4_4
REMARK    3  A    between atoms: C4_4  and  C5_5
REMARK    4  A    between atoms: N2_11  and  C8_12
REMARK    5  A    between atoms: C8_12  and  C9_13
REMARK       I    between atoms: C9_13  and  N3_15
REMARK    6  A    between atoms: N3_15  and  C10_17
REMARK    7  A    between atoms: C10_17  and  C11_18
REMARK    8  A    between atoms: C11_18  and  S1_19
REMARK    9  A    between atoms: S1_19  and  N4_22
REMARK   10  A    between atoms: N4_22  and  C12_24
REMARK   11  A    between atoms: N5_26  and  C14_27
REMARK   12  A    between atoms: C14_27  and  C15_28
REMARK       I    between atoms: C15_28  and  N6_30
REMARK   13  A    between atoms: C26_41  and  N7_42
ROOT
HETATM    1  C10 UNL     1      16.836  24.235  15.765  1.00  0.00     0.139 C
ENDROOT
BRANCH   1   2
HETATM    2  N3  UNL     1      16.016  23.719  14.700  1.00  0.00    -0.355 N
HETATM    3  C9  UNL     1      15.839  22.330  14.486  1.00  0.00     0.257 C
HETATM    4  O2  UNL     1      16.364  21.444  15.191  1.00  0.00    -0.267 OA
ATOM      5  H3  UNL     1      15.546  24.377  14.077  1.00  0.00     0.162 HD
BRANCH   3   6
HETATM    6  C8  UNL     1      14.978  21.838  13.361  1.00  0.00     0.169 C
BRANCH   6   7
HETATM    7  N2  UNL     1      13.762  21.330  13.833  1.00  0.00    -0.302 N
HETATM    8  C7  UNL     1      12.867  22.151  14.613  1.00  0.00     0.323 C
HETATM    9  N1  UNL     1      11.623  21.595  14.997  1.00  0.00    -0.331 N
HETATM   10  O1  UNL     1      13.199  23.313  14.928  1.00  0.00    -0.247 OA
HETATM   11  C4  UNL     1      10.866  20.785  14.017  1.00  0.00     0.062 C
ATOM     12  H1  UNL     1      11.254  21.750  15.935  1.00  0.00     0.165 HD
HETATM   13  C26 UNL     1      11.832  20.093  13.113  1.00  0.00     0.202 C
HETATM   14  C25 UNL     1      13.258  19.978  13.605  1.00  0.00     0.167 C
BRANCH  11  15
HETATM   15  C3  UNL     1      10.109  21.800  13.227  1.00  0.00     0.033 C
BRANCH  15  16
HETATM   16  C2  UNL     1       8.718  21.593  12.858  1.00  0.00    -0.002 C
HETATM   17  C1  UNL     1       7.880  22.771  12.508  1.00  0.00     0.005 C
ENDBRANCH  15  16
ENDBRANCH  11  15
BRANCH  11  18
HETATM   18  C5  UNL     1      10.076  19.846  14.866  1.00  0.00     0.029 C
HETATM   19  C6  UNL     1      10.160  20.223  16.335  1.00  0.00     0.007 C
ENDBRANCH  11  18
BRANCH  13  20
HETATM   20  N7  UNL     1      11.423  18.795  12.641  1.00  0.00    -0.146 N
HETATM   21  O6  UNL     1      10.551  18.639  11.765  1.00  0.00    -0.536 OA
HETATM   22  O7  UNL     1      11.997  17.657  13.149  1.00  0.00    -0.536 OA
ENDBRANCH  13  20
ENDBRANCH   6   7
ENDBRANCH   3   6
ENDBRANCH   1   2
BRANCH   1  23
HETATM   23  C11 UNL     1      17.742  25.294  15.236  1.00  0.00     0.182 C
BRANCH  23  24
HETATM   24  S1  UNL     1      19.263  25.457  16.127  1.00  0.00     0.228 S
HETATM   25  O3  UNL     1      20.281  24.476  15.604  1.00  0.00    -0.206 OA
HETATM   26  O4  UNL     1      19.751  26.877  15.869  1.00  0.00    -0.206 OA
BRANCH  24  27
HETATM   27  N4  UNL     1      18.996  25.195  17.788  1.00  0.00    -0.313 N
ATOM     28  H4  UNL     1      18.364  25.767  18.347  1.00  0.00     0.172 HD
BRANCH  27  29
HETATM   29  C12 UNL     1      19.741  24.098  18.327  1.00  0.00     0.114 C
HETATM   30  C13 UNL     1      18.850  22.930  18.590  1.00  0.00     0.143 C
HETATM   31  N5  UNL     1      17.732  23.325  19.366  1.00  0.00    -0.402 N
HETATM   32  C21 UNL     1      17.966  24.297  20.376  1.00  0.00     0.118 C
HETATM   33  C22 UNL     1      19.383  24.468  20.798  1.00  0.00     0.026 C
HETATM   34  C23 UNL     1      20.368  24.479  19.680  1.00  0.00     0.008 C
HETATM   35  C24 UNL     1      21.443  23.456  19.954  1.00  0.00     0.012 C
BRANCH  31  36
HETATM   36  C14 UNL     1      16.778  22.322  19.688  1.00  0.00     0.220 C
BRANCH  36  37
HETATM   37  C15 UNL     1      15.626  22.200  18.802  1.00  0.00     0.237 C
HETATM   38  O5  UNL     1      15.503  22.935  17.804  1.00  0.00    -0.272 OA
HETATM   39  N6  UNL     1      14.626  21.237  19.066  1.00  0.00    -0.351 N
HETATM   40  C16 UNL     1      13.455  21.101  18.185  1.00  0.00     0.126 C
HETATM   41  C20 UNL     1      14.659  20.324  20.193  1.00  0.00     0.126 C
HETATM   42  C17 UNL     1      13.691  19.854  17.361  1.00  0.00     0.020 C
HETATM   43  C18 UNL     1      14.511  18.882  18.170  1.00  0.00     0.003 C
HETATM   44  C19 UNL     1      14.184  18.970  19.662  1.00  0.00     0.020 C
ENDBRANCH  36  37
ENDBRANCH  31  36
ENDBRANCH  27  29
ENDBRANCH  24  27
ENDBRANCH  23  24
ENDBRANCH   1  23
TORSDOF 13
ENDMDL