MODEL 5
REMARK VINA RESULT: -8.535790543      1.304      1.854
REMARK  15 active torsions:
REMARK  status: ('A' for Active; 'I' for Inactive)
REMARK    1  A    between atoms: O1_2  and  C2_3
REMARK    2  A    between atoms: C2_3  and  C3_5
REMARK    3  A    between atoms: N1_8  and  C6_9
REMARK       I    between atoms: N2_12  and  C9_13
REMARK    4  A    between atoms: C9_13  and  C10_15
REMARK    5  A    between atoms: C10_15  and  C11_16
REMARK    6  A    between atoms: C11_16  and  C12_17
REMARK    7  A    between atoms: C12_17  and  C13_18
REMARK    8  A    between atoms: C13_18  and  N3_19
REMARK       I    between atoms: N6_24  and  C15_26
REMARK    9  A    between atoms: C15_26  and  C16_28
REMARK   10  A    between atoms: C16_28  and  C17_29
REMARK   11  A    between atoms: C17_29  and  N7_30
REMARK   12  A    between atoms: C17_29  and  C18_34
REMARK   13  A    between atoms: C18_34  and  C19_35
REMARK   14  A    between atoms: C19_35  and  C20_36
REMARK   15  A    between atoms: C20_36  and  N8_37
ROOT
HETATM    1  C10 UNL     1      11.321  19.168  17.315  1.00  0.00     0.080 C
HETATM    2  N6  UNL     1      10.812  20.208  16.772  1.00  0.00    -0.326 N
ATOM      3  H6  UNL     1      10.926  21.074  17.300  1.00  0.00     0.168 HD
HETATM    4  C15 UNL     1      10.123  20.335  15.564  1.00  0.00     0.224 C
HETATM    5  O4  UNL     1       8.982  19.853  15.415  1.00  0.00    -0.273 OA
ENDROOT
BRANCH   1   6
HETATM    6  C9  UNL     1      12.017  19.222  18.594  1.00  0.00     0.266 C
HETATM    7  N2  UNL     1      13.375  19.525  18.781  1.00  0.00    -0.343 N
HETATM    8  C8  UNL     1      14.181  19.846  17.592  1.00  0.00     0.129 C
HETATM    9  C25 UNL     1      14.098  19.557  20.023  1.00  0.00     0.085 C
HETATM   10  C7  UNL     1      15.572  20.276  18.083  1.00  0.00     0.055 C
HETATM   11  C6  UNL     1      15.390  21.406  19.046  1.00  0.00     0.226 C
HETATM   12  C27 UNL     1      14.656  20.973  20.269  1.00  0.00     0.060 C
HETATM   13  C26 UNL     1      13.285  19.114  21.199  1.00  0.00     0.032 C
HETATM   14  O3  UNL     1      11.306  18.967  19.600  1.00  0.00    -0.266 OA
BRANCH  11  15
HETATM   15  N1  UNL     1      16.653  22.050  19.333  1.00  0.00     0.093 N
HETATM   16  C5  UNL     1      17.734  21.351  18.713  1.00  0.00     0.273 C
HETATM   17  C4  UNL     1      19.017  21.797  19.413  1.00  0.00     0.045 C
HETATM   18  C3  UNL     1      19.094  23.279  19.542  1.00  0.00     0.089 C
HETATM   19  C29 UNL     1      18.010  24.032  18.829  1.00  0.00     0.045 C
HETATM   20  C28 UNL     1      16.660  23.419  18.926  1.00  0.00     0.273 C
BRANCH  18  21
HETATM   21  C2  UNL     1      20.391  23.735  18.965  1.00  0.00     0.262 C
HETATM   22  O2  UNL     1      20.408  24.546  18.007  1.00  0.00    -0.265 OA
BRANCH  21  23
HETATM   23  O1  UNL     1      21.610  23.292  19.454  1.00  0.00    -0.326 OA
HETATM   24  C1  UNL     1      22.221  24.031  20.492  1.00  0.00     0.213 C
ENDBRANCH  21  23
ENDBRANCH  18  21
ENDBRANCH  11  15
ENDBRANCH   1   6
BRANCH   1  25
HETATM   25  C11 UNL     1      11.183  17.875  16.586  1.00  0.00     0.064 C
BRANCH  25  26
HETATM   26  C12 UNL     1      10.674  16.739  17.413  1.00  0.00     0.026 C
BRANCH  26  27
HETATM   27  C13 UNL     1       9.583  15.933  16.775  1.00  0.00     0.122 C
BRANCH  27  28
HETATM   28  N3  UNL     1       8.473  15.692  17.638  1.00  0.00    -0.367 N
HETATM   29  C14 UNL     1       8.222  14.518  18.075  1.00  0.00     0.196 C
HETATM   30  N4  UNL     1       9.042  13.430  17.710  1.00  0.00    -0.067 NA
HETATM   31  N5  UNL     1       7.120  14.306  18.929  1.00  0.00    -0.067 NA
ATOM     32  H3  UNL     1       7.871  16.469  17.910  1.00  0.00     0.161 HD
ENDBRANCH  27  28
ENDBRANCH  26  27
ENDBRANCH  25  26
ENDBRANCH   1  25
BRANCH   4  33
HETATM   33  C16 UNL     1      10.727  21.056  14.407  1.00  0.00     0.135 C
BRANCH  33  34
HETATM   34  C17 UNL     1      10.955  20.142  13.213  1.00  0.00     0.192 C
BRANCH  34  35
HETATM   35  N7  UNL     1       9.888  20.192  12.270  1.00  0.00    -0.075 N
ATOM     36  H73 UNL     1       9.152  19.529  12.515  1.00  0.00     0.274 HD
ATOM     37  H72 UNL     1       9.363  21.062  12.358  1.00  0.00     0.274 HD
ATOM     38  H71 UNL     1      10.203  20.049  11.310  1.00  0.00     0.274 HD
ENDBRANCH  34  35
BRANCH  34  39
HETATM   39  C18 UNL     1      12.331  20.304  12.644  1.00  0.00     0.035 C
BRANCH  39  40
HETATM   40  C19 UNL     1      13.391  19.618  13.474  1.00  0.00     0.032 C
BRANCH  40  41
HETATM   41  C20 UNL     1      14.039  20.671  14.343  1.00  0.00     0.272 C
BRANCH  41  42
HETATM   42  N8  UNL     1      14.255  21.921  13.659  1.00  0.00     0.092 N
HETATM   43  C21 UNL     1      13.708  22.967  14.507  1.00  0.00     0.298 C
HETATM   44  C22 UNL     1      14.743  23.628  15.358  1.00  0.00     0.198 C
HETATM   45  O5  UNL     1      15.723  22.738  15.786  1.00  0.00    -0.388 OA
HETATM   46  C23 UNL     1      16.451  22.234  14.703  1.00  0.00     0.198 C
HETATM   47  C24 UNL     1      15.660  22.201  13.427  1.00  0.00     0.298 C
ENDBRANCH  41  42
ENDBRANCH  40  41
ENDBRANCH  39  40
ENDBRANCH  34  39
ENDBRANCH  33  34
ENDBRANCH   4  33
TORSDOF 15
ENDMDL