MODEL 5
REMARK VINA RESULT: -8.281217283      2.066      2.911
REMARK  14 active torsions:
REMARK  status: ('A' for Active; 'I' for Inactive)
REMARK    1  A    between atoms: C2_2  and  C3_3
REMARK    2  A    between atoms: C3_3  and  C4_4
REMARK    3  A    between atoms: C4_4  and  N1_5
REMARK    4  A    between atoms: C4_4  and  C27_38
REMARK       I    between atoms: N1_5  and  C5_7
REMARK    5  A    between atoms: C5_7  and  C6_9
REMARK    6  A    between atoms: N2_13  and  C10_14
REMARK    7  A    between atoms: C10_14  and  C11_15
REMARK    8  A    between atoms: C10_14  and  C15_22
REMARK    9  A    between atoms: C11_15  and  C12_16
REMARK   10  A    between atoms: C12_16  and  S1_17
REMARK   11  A    between atoms: S1_17  and  C13_20
REMARK       I    between atoms: C15_22  and  N3_24
REMARK   12  A    between atoms: C23_32  and  C24_33
REMARK   13  A    between atoms: C27_38  and  O7_39
REMARK   14  A    between atoms: C27_38  and  C28_41
ROOT
HETATM    1  C10 UNL     1      17.050  22.153  18.474  1.00  0.00     0.315 C
ENDROOT
BRANCH   1   2
HETATM    2  N2  UNL     1      17.075  22.108  17.001  1.00  0.00     0.103 N
HETATM    3  C9  UNL     1      17.221  23.474  16.563  1.00  0.00     0.273 C
HETATM    4  C8  UNL     1      16.211  23.843  15.495  1.00  0.00     0.031 C
HETATM    5  C7  UNL     1      14.861  23.667  16.144  1.00  0.00     0.017 C
HETATM    6  C6  UNL     1      14.675  22.212  16.457  1.00  0.00     0.106 C
HETATM    7  C26 UNL     1      15.959  21.443  16.442  1.00  0.00     0.287 C
BRANCH   6   8
HETATM    8  C5  UNL     1      13.658  21.650  15.548  1.00  0.00     0.224 C
HETATM    9  N1  UNL     1      12.360  21.292  15.923  1.00  0.00    -0.353 N
ATOM     10  H1  UNL     1      12.085  21.425  16.896  1.00  0.00     0.163 HD
HETATM   11  O1  UNL     1      13.971  21.471  14.330  1.00  0.00    -0.273 OA
BRANCH   9  12
HETATM   12  C4  UNL     1      11.365  20.729  14.982  1.00  0.00     0.123 C
BRANCH  12  13
HETATM   13  C3  UNL     1      10.568  21.733  14.257  1.00  0.00     0.028 C
BRANCH  13  14
HETATM   14  C2  UNL     1       9.677  21.131  13.224  1.00  0.00    -0.002 C
HETATM   15  C1  UNL     1       8.545  22.035  12.815  1.00  0.00     0.005 C
ENDBRANCH  13  14
ENDBRANCH  12  13
BRANCH  12  16
HETATM   16  C27 UNL     1      10.484  19.882  15.874  1.00  0.00     0.241 C
BRANCH  16  17
HETATM   17  O7  UNL     1       9.992  20.640  16.844  1.00  0.00    -0.383 OA
ATOM     18  H7  UNL     1       9.044  20.575  16.839  1.00  0.00     0.210 HD
ENDBRANCH  16  17
BRANCH  16  19
HETATM   19  C28 UNL     1      10.102  18.554  15.875  1.00  0.00     0.205 C
HETATM   20  O8  UNL     1       9.420  17.928  15.052  1.00  0.00    -0.646 OA
HETATM   21  O9  UNL     1      10.533  17.737  16.967  1.00  0.00    -0.646 OA
ENDBRANCH  16  19
ENDBRANCH  12  16
ENDBRANCH   9  12
ENDBRANCH   6   8
ENDBRANCH   1   2
BRANCH   1  22
HETATM   22  C11 UNL     1      16.328  20.823  18.836  1.00  0.00     0.060 C
BRANCH  22  23
HETATM   23  C12 UNL     1      15.071  21.037  19.586  1.00  0.00     0.143 C
BRANCH  23  24
HETATM   24  S1  UNL     1      13.907  19.759  19.292  1.00  0.00     0.144 S
HETATM   25  O2  UNL     1      12.669  20.335  18.583  1.00  0.00    -0.228 OA
HETATM   26  O3  UNL     1      14.467  18.785  18.244  1.00  0.00    -0.228 OA
BRANCH  24  27
HETATM   27  C13 UNL     1      13.437  18.790  20.664  1.00  0.00     0.136 C
HETATM   28  C14 UNL     1      12.560  17.643  20.265  1.00  0.00     0.021 C
ENDBRANCH  24  27
ENDBRANCH  23  24
ENDBRANCH  22  23
ENDBRANCH   1  22
BRANCH   1  29
HETATM   29  C15 UNL     1      18.409  22.141  19.028  1.00  0.00     0.253 C
HETATM   30  O4  UNL     1      19.074  21.061  18.825  1.00  0.00    -0.271 OA
HETATM   31  N3  UNL     1      19.068  23.158  19.746  1.00  0.00    -0.349 N
HETATM   32  C16 UNL     1      18.537  24.464  20.044  1.00  0.00     0.126 C
HETATM   33  C25 UNL     1      20.414  22.915  20.261  1.00  0.00     0.141 C
HETATM   34  C17 UNL     1      19.692  25.355  20.504  1.00  0.00     0.030 C
HETATM   35  C18 UNL     1      20.800  25.262  19.485  1.00  0.00    -0.024 C
HETATM   36  C19 UNL     1      20.194  25.521  18.110  1.00  0.00     0.010 C
HETATM   37  C22 UNL     1      21.802  26.372  19.682  1.00  0.00     0.010 C
HETATM   38  C23 UNL     1      21.359  23.884  19.523  1.00  0.00     0.113 C
HETATM   39  C20 UNL     1      21.296  26.186  17.310  1.00  0.00     0.001 C
HETATM   40  C21 UNL     1      22.235  26.818  18.312  1.00  0.00     0.001 C
BRANCH  38  41
HETATM   41  C24 UNL     1      22.715  23.762  20.090  1.00  0.00     0.179 C
HETATM   42  O5  UNL     1      22.887  23.831  21.335  1.00  0.00    -0.648 OA
HETATM   43  O6  UNL     1      23.818  23.569  19.256  1.00  0.00    -0.648 OA
ENDBRANCH  38  41
ENDBRANCH   1  29
TORSDOF 14
ENDMDL