MODEL 5
REMARK VINA RESULT: -7.611457910      2.620      4.835
REMARK  16 active torsions:
REMARK  status: ('A' for Active; 'I' for Inactive)
REMARK    1  A    between atoms: C2_2  and  C3_3
REMARK    2  A    between atoms: C3_3  and  C4_4
REMARK    3  A    between atoms: C7_7  and  C8_8
REMARK       I    between atoms: C8_8  and  N1_10
REMARK    4  A    between atoms: N1_10  and  C9_12
REMARK    5  A    between atoms: C9_12  and  C10_13
REMARK    6  A    between atoms: C9_12  and  C17_23
REMARK    7  A    between atoms: C10_13  and  C11_14
REMARK    8  A    between atoms: C11_14  and  C12_15
REMARK       I    between atoms: C12_15  and  N2_17
REMARK    9  A    between atoms: N2_17  and  C13_19
REMARK   10  A    between atoms: C17_23  and  O3_24
REMARK   11  A    between atoms: C17_23  and  C18_26
REMARK       I    between atoms: C18_26  and  N3_28
REMARK   12  A    between atoms: N3_28  and  C19_30
REMARK   13  A    between atoms: C19_30  and  C20_31
REMARK   14  A    between atoms: C20_31  and  C21_32
REMARK   15  A    between atoms: C21_32  and  N4_33
REMARK   16  A    between atoms: N4_33  and  C23_35
ROOT
HETATM    1  C9  UNL     1      16.105  22.440  16.489  1.00  0.00     0.147 C
ENDROOT
BRANCH   1   2
HETATM    2  N1  UNL     1      17.340  23.269  16.878  1.00  0.00    -0.348 N
HETATM    3  C8  UNL     1      18.407  22.696  17.551  1.00  0.00     0.244 C
HETATM    4  O1  UNL     1      18.289  21.458  17.817  1.00  0.00    -0.271 OA
ATOM      5  H1  UNL     1      17.375  24.259  16.635  1.00  0.00     0.163 HD
BRANCH   3   6
HETATM    6  C7  UNL     1      19.582  23.481  17.925  1.00  0.00     0.222 C
HETATM    7  C3  UNL     1      19.484  24.110  19.285  1.00  0.00     0.195 C
HETATM    8  N6  UNL     1      20.029  25.421  19.148  1.00  0.00     0.136 N
HETATM    9  C26 UNL     1      20.480  25.616  17.838  1.00  0.00     0.284 C
HETATM   10  C28 UNL     1      21.032  25.770  20.120  1.00  0.00     0.315 C
HETATM   11  N5  UNL     1      20.018  24.496  16.999  1.00  0.00    -0.291 N
HETATM   12  S1  UNL     1      19.609  26.969  16.948  1.00  0.00    -0.097 SA
HETATM   13  C27 UNL     1      21.940  25.878  17.638  1.00  0.00     0.087 C
HETATM   14  C24 UNL     1      20.197  24.833  15.642  1.00  0.00     0.232 C
HETATM   15  O6  UNL     1      20.689  24.079  14.727  1.00  0.00    -0.272 OA
HETATM   16  C25 UNL     1      19.758  26.208  15.289  1.00  0.00     0.181 C
BRANCH   7  17
HETATM   17  C2  UNL     1      18.032  24.294  19.707  1.00  0.00     0.040 C
HETATM   18  C1  UNL     1      17.865  24.545  21.186  1.00  0.00     0.007 C
ENDBRANCH   7  17
BRANCH   7  19
HETATM   19  C4  UNL     1      20.184  23.291  20.335  1.00  0.00     0.027 A
HETATM   20  C5  UNL     1      21.385  22.482  20.008  1.00  0.00     0.008 A
HETATM   21  C6  UNL     1      20.079  21.852  20.503  1.00  0.00     0.008 A
ENDBRANCH   7  19
ENDBRANCH   3   6
ENDBRANCH   1   2
BRANCH   1  22
HETATM   22  C10 UNL     1      15.047  22.959  17.354  1.00  0.00     0.041 C
BRANCH  22  23
HETATM   23  C11 UNL     1      14.643  22.243  18.569  1.00  0.00     0.105 C
BRANCH  23  24
HETATM   24  C12 UNL     1      13.934  20.963  18.375  1.00  0.00     0.218 C
HETATM   25  O2  UNL     1      13.495  20.623  17.255  1.00  0.00    -0.274 OA
HETATM   26  N2  UNL     1      13.711  20.050  19.445  1.00  0.00    -0.353 N
ATOM     27  H2  UNL     1      14.056  20.286  20.376  1.00  0.00     0.163 HD
BRANCH  26  28
HETATM   28  C13 UNL     1      13.011  18.802  19.253  1.00  0.00     0.022 C
HETATM   29  C14 UNL     1      12.564  18.318  20.641  1.00  0.00     0.037 C
HETATM   30  C15 UNL     1      11.765  18.945  18.415  1.00  0.00     0.037 C
HETATM   31  C16 UNL     1      13.905  17.737  18.664  1.00  0.00     0.037 C
ENDBRANCH  26  28
ENDBRANCH  23  24
ENDBRANCH  22  23
ENDBRANCH   1  22
BRANCH   1  32
HETATM   32  C17 UNL     1      16.125  22.441  15.070  1.00  0.00     0.134 C
BRANCH  32  33
HETATM   33  O3  UNL     1      17.003  23.313  14.545  1.00  0.00    -0.358 OA
ATOM     34  H3  UNL     1      17.570  22.932  13.885  1.00  0.00     0.217 HD
ENDBRANCH  32  33
BRANCH  32  35
HETATM   35  C18 UNL     1      15.434  21.736  14.028  1.00  0.00     0.272 C
HETATM   36  O4  UNL     1      15.737  21.719  12.813  1.00  0.00    -0.266 OA
HETATM   37  N3  UNL     1      14.261  20.944  14.347  1.00  0.00    -0.355 N
ATOM     38  H3  UNL     1      13.916  20.905  15.307  1.00  0.00     0.162 HD
BRANCH  37  39
HETATM   39  C19 UNL     1      13.589  20.218  13.312  1.00  0.00     0.124 C
BRANCH  39  40
HETATM   40  C20 UNL     1      12.145  19.957  13.730  1.00  0.00     0.039 C
BRANCH  40  41
HETATM   41  C21 UNL     1      11.572  21.249  14.250  1.00  0.00     0.126 C
BRANCH  41  42
HETATM   42  N4  UNL     1      10.108  21.235  14.146  1.00  0.00    -0.364 N
HETATM   43  C22 UNL     1       9.463  21.224  12.848  1.00  0.00     0.152 C
BRANCH  42  44
HETATM   44  C23 UNL     1       9.366  21.214  15.347  1.00  0.00     0.350 C
HETATM   45  O5  UNL     1       8.587  22.175  15.601  1.00  0.00    -0.284 OA
ENDBRANCH  42  44
ENDBRANCH  41  42
ENDBRANCH  40  41
ENDBRANCH  39  40
ENDBRANCH  37  39
ENDBRANCH  32  35
ENDBRANCH   1  32
TORSDOF 16
ENDMDL