MODEL 3
REMARK VINA RESULT: -9.335298294      0.978      1.105
REMARK  14 active torsions:
REMARK  status: ('A' for Active; 'I' for Inactive)
REMARK    1  A    between atoms: O1_2  and  N1_3
REMARK    2  A    between atoms: C2_5  and  C3_6
REMARK    3  A    between atoms: C2_5  and  C11_28
REMARK       I    between atoms: C3_6  and  N2_8
REMARK    4  A    between atoms: N2_8  and  C4_10
REMARK    5  A    between atoms: C4_10  and  O3_12
REMARK    6  A    between atoms: C4_10  and  C6_14
REMARK    7  A    between atoms: C6_14  and  C7_15
REMARK    8  A    between atoms: C7_15  and  C8_16
REMARK    9  A    between atoms: C8_16  and  N3_17
REMARK   10  A    between atoms: C9_19  and  N4_21
REMARK   11  A    between atoms: N4_21  and  N5_23
REMARK       I    between atoms: C11_28  and  N7_30
REMARK   12  A    between atoms: C16_35  and  N8_36
REMARK       I    between atoms: N8_36  and  C17_38
REMARK   13  A    between atoms: C17_38  and  C18_40
REMARK   14  A    between atoms: C18_40  and  C19_42
ROOT
HETATM    1  N1  UNL     1      23.860  24.944  19.211  1.00  0.00    -0.257 N
ATOM      2  H1  UNL     1      23.958  24.391  20.062  1.00  0.00     0.194 HD
HETATM    3  C2  UNL     1      22.817  25.744  19.118  1.00  0.00     0.190 C
ENDROOT
BRANCH   3   4
HETATM    4  C3  UNL     1      22.702  26.511  17.917  1.00  0.00     0.278 C
HETATM    5  O2  UNL     1      23.301  27.653  17.888  1.00  0.00    -0.266 OA
HETATM    6  N2  UNL     1      21.995  26.120  16.779  1.00  0.00    -0.324 N
ATOM      7  H2  UNL     1      21.500  25.229  16.734  1.00  0.00     0.165 HD
BRANCH   6   8
HETATM    8  C4  UNL     1      22.003  27.080  15.628  1.00  0.00     0.130 C
HETATM    9  C5  UNL     1      23.419  27.260  15.222  1.00  0.00     0.070 C
BRANCH   8  10
HETATM   10  O3  UNL     1      21.527  28.314  16.137  1.00  0.00    -0.371 OA
ATOM     11  H3  UNL     1      21.775  28.337  17.054  1.00  0.00     0.212 HD
ENDBRANCH   8  10
BRANCH   8  12
HETATM   12  C6  UNL     1      21.071  26.590  14.586  1.00  0.00     0.062 C
BRANCH  12  13
HETATM   13  C7  UNL     1      19.630  26.543  14.891  1.00  0.00     0.024 C
BRANCH  13  14
HETATM   14  C8  UNL     1      19.169  25.191  15.314  1.00  0.00     0.121 C
BRANCH  14  15
HETATM   15  N3  UNL     1      17.692  25.191  15.442  1.00  0.00    -0.379 N
HETATM   16  C9  UNL     1      17.096  24.065  15.536  1.00  0.00     0.089 C
HETATM   17  C10 UNL     1      17.834  22.783  15.521  1.00  0.00     0.090 C
ATOM     18  H3  UNL     1      17.167  26.065  15.454  1.00  0.00     0.160 HD
BRANCH  16  19
HETATM   19  N4  UNL     1      15.681  24.055  15.659  1.00  0.00    -0.276 N
ATOM     20  H4  UNL     1      15.139  24.765  15.167  1.00  0.00     0.189 HD
BRANCH  19  21
HETATM   21  N5  UNL     1      15.006  23.107  16.430  1.00  0.00    -0.248 N
HETATM   22  N6  UNL     1      13.853  23.305  16.933  1.00  0.00    -0.331 N
ATOM     23  H62 UNL     1      13.415  24.209  16.754  1.00  0.00     0.178 HD
ATOM     24  H61 UNL     1      13.360  22.612  17.496  1.00  0.00     0.178 HD
ATOM     25  H5  UNL     1      15.459  22.209  16.598  1.00  0.00     0.207 HD
ENDBRANCH  19  21
ENDBRANCH  16  19
ENDBRANCH  14  15
ENDBRANCH  13  14
ENDBRANCH  12  13
ENDBRANCH   8  12
ENDBRANCH   6   8
ENDBRANCH   3   4
BRANCH   3  26
HETATM   26  C11 UNL     1      21.861  25.822  20.196  1.00  0.00     0.277 C
HETATM   27  O4  UNL     1      21.719  26.815  20.963  1.00  0.00    -0.266 OA
HETATM   28  N7  UNL     1      20.980  24.722  20.463  1.00  0.00    -0.346 N
HETATM   29  C12 UNL     1      19.970  24.731  21.524  1.00  0.00     0.131 C
HETATM   30  C28 UNL     1      20.965  23.484  19.752  1.00  0.00     0.131 C
HETATM   31  C13 UNL     1      18.986  23.663  21.030  1.00  0.00     0.009 C
HETATM   32  C14 UNL     1      18.128  24.308  19.979  1.00  0.00     0.009 C
HETATM   33  C27 UNL     1      19.932  22.652  20.491  1.00  0.00     0.011 C
HETATM   34  C15 UNL     1      17.506  23.307  19.036  1.00  0.00     0.026 C
HETATM   35  C16 UNL     1      17.800  21.925  19.580  1.00  0.00     0.085 C
HETATM   36  C26 UNL     1      19.299  21.724  19.478  1.00  0.00     0.032 C
BRANCH  35  37
HETATM   37  N8  UNL     1      17.059  20.893  18.935  1.00  0.00    -0.350 N
HETATM   38  C17 UNL     1      15.638  20.951  18.935  1.00  0.00     0.288 C
HETATM   39  O5  UNL     1      15.027  21.911  19.504  1.00  0.00    -0.264 OA
ATOM     40  H8  UNL     1      17.543  20.120  18.477  1.00  0.00     0.163 HD
BRANCH  38  41
HETATM   41  C18 UNL     1      14.824  19.923  18.290  1.00  0.00     0.224 C
HETATM   42  O6  UNL     1      14.625  20.073  17.036  1.00  0.00    -0.286 OA
BRANCH  41  43
HETATM   43  C19 UNL     1      14.260  18.768  19.050  1.00  0.00     0.026 C
HETATM   44  C20 UNL     1      15.021  17.492  18.736  1.00  0.00     0.024 C
HETATM   45  C21 UNL     1      14.375  19.047  20.510  1.00  0.00     0.017 C
HETATM   46  C22 UNL     1      13.398  18.337  21.386  1.00  0.00     0.001 C
HETATM   47  C23 UNL     1      12.042  18.130  20.800  1.00  0.00     0.000 C
HETATM   48  C24 UNL     1      12.149  17.572  19.374  1.00  0.00     0.001 C
HETATM   49  C25 UNL     1      12.819  18.635  18.565  1.00  0.00     0.017 C
ENDBRANCH  41  43
ENDBRANCH  38  41
ENDBRANCH  35  37
ENDBRANCH   3  26
BRANCH   1  50
HETATM   50  O1  UNL     1      24.812  24.804  18.258  1.00  0.00    -0.285 OA
HETATM   51  C1  UNL     1      26.196  24.942  18.486  1.00  0.00     0.237 C
ENDBRANCH   1  50
TORSDOF 14
ENDMDL