MODEL 2
REMARK VINA RESULT: -8.404172858      5.176     12.365
REMARK  14 active torsions:
REMARK  status: ('A' for Active; 'I' for Inactive)
REMARK    1  A    between atoms: C2_2  and  O1_3
REMARK    2  A    between atoms: O1_3  and  C3_4
REMARK       I    between atoms: C3_4  and  N1_6
REMARK       I    between atoms: N2_9  and  C6_10
REMARK    3  A    between atoms: C6_10  and  C7_12
REMARK    4  A    between atoms: C7_12  and  C8_13
REMARK    5  A    between atoms: C7_12  and  N4_18
REMARK    6  A    between atoms: C8_13  and  N3_14
REMARK       I    between atoms: N4_18  and  C9_20
REMARK    7  A    between atoms: C9_20  and  C10_22
REMARK    8  A    between atoms: C10_22  and  C11_23
REMARK    9  A    between atoms: C10_22  and  N6_32
REMARK   10  A    between atoms: C11_23  and  C12_24
REMARK   11  A    between atoms: C12_24  and  C13_25
REMARK       I    between atoms: N6_32  and  C17_34
REMARK   12  A    between atoms: C17_34  and  C18_36
REMARK   13  A    between atoms: C18_36  and  N7_37
REMARK   14  A    between atoms: C18_36  and  C24_43
ROOT
HETATM    1  C10 UNL     1      18.677  25.004  17.712  1.00  0.00     0.177 C
ENDROOT
BRANCH   1   2
HETATM    2  C9  UNL     1      19.811  24.804  18.635  1.00  0.00     0.241 C
HETATM    3  N4  UNL     1      20.510  25.881  19.213  1.00  0.00    -0.344 N
ATOM      4  H4  UNL     1      20.220  26.830  18.976  1.00  0.00     0.163 HD
HETATM    5  O4  UNL     1      20.157  23.637  18.913  1.00  0.00    -0.271 OA
BRANCH   3   6
HETATM    6  C7  UNL     1      21.642  25.707  20.148  1.00  0.00     0.202 C
BRANCH   6   7
HETATM    7  C6  UNL     1      22.862  25.973  19.377  1.00  0.00     0.244 C
HETATM    8  N2  UNL     1      23.885  25.027  19.239  1.00  0.00    -0.347 N
HETATM    9  C5  UNL     1      25.086  25.413  18.478  1.00  0.00     0.146 C
HETATM   10  C28 UNL     1      23.813  23.701  19.757  1.00  0.00     0.146 C
HETATM   11  C4  UNL     1      26.236  25.261  19.452  1.00  0.00     0.148 C
HETATM   12  N1  UNL     1      26.185  23.936  20.020  1.00  0.00    -0.325 N
HETATM   13  C3  UNL     1      27.264  23.041  19.918  1.00  0.00     0.362 C
HETATM   14  C29 UNL     1      24.993  23.519  20.724  1.00  0.00     0.148 C
HETATM   15  O2  UNL     1      28.314  23.380  19.307  1.00  0.00    -0.238 OA
HETATM   16  O3  UNL     1      22.965  27.125  18.817  1.00  0.00    -0.271 OA
BRANCH  13  17
HETATM   17  O1  UNL     1      27.224  21.771  20.474  1.00  0.00    -0.304 OA
BRANCH  17  18
HETATM   18  C2  UNL     1      27.368  20.626  19.622  1.00  0.00     0.176 C
HETATM   19  C1  UNL     1      26.237  20.639  18.633  1.00  0.00     0.034 C
ENDBRANCH  17  18
ENDBRANCH  13  17
ENDBRANCH   6   7
BRANCH   6  20
HETATM   20  C8  UNL     1      21.442  26.690  21.290  1.00  0.00     0.264 C
BRANCH  20  21
HETATM   21  N3  UNL     1      20.987  27.969  20.758  1.00  0.00    -0.077 N
ATOM     22  H33 UNL     1      20.840  27.936  19.749  1.00  0.00     0.274 HD
ATOM     23  H32 UNL     1      20.030  28.185  21.039  1.00  0.00     0.274 HD
ATOM     24  H31 UNL     1      21.642  28.703  21.027  1.00  0.00     0.274 HD
ENDBRANCH  20  21
ENDBRANCH   6  20
ENDBRANCH   3   6
ENDBRANCH   1   2
BRANCH   1  25
HETATM   25  C11 UNL     1      19.087  25.769  16.466  1.00  0.00     0.035 C
BRANCH  25  26
HETATM   26  C12 UNL     1      20.237  25.055  15.840  1.00  0.00     0.009 C
BRANCH  26  27
HETATM   27  C13 UNL     1      20.993  25.755  14.789  1.00  0.00     0.013 C
HETATM   28  C14 UNL     1      20.274  26.863  14.090  1.00  0.00     0.034 C
HETATM   29  C15 UNL     1      20.987  28.100  14.557  1.00  0.00     0.232 C
HETATM   30  N5  UNL     1      22.376  27.644  14.711  1.00  0.00    -0.075 N
HETATM   31  C16 UNL     1      22.312  26.323  15.256  1.00  0.00     0.237 C
ATOM     32  H52 UNL     1      22.916  27.699  13.848  1.00  0.00     0.277 HD
ATOM     33  H51 UNL     1      22.951  28.281  15.263  1.00  0.00     0.277 HD
ENDBRANCH  26  27
ENDBRANCH  25  26
ENDBRANCH   1  25
BRANCH   1  34
HETATM   34  N6  UNL     1      17.973  23.796  17.413  1.00  0.00    -0.343 N
HETATM   35  C17 UNL     1      16.583  23.561  17.690  1.00  0.00     0.265 C
HETATM   36  O5  UNL     1      16.017  24.532  18.260  1.00  0.00    -0.266 OA
ATOM     37  H6  UNL     1      18.498  23.043  16.968  1.00  0.00     0.163 HD
BRANCH  35  38
HETATM   38  C18 UNL     1      15.832  22.359  17.378  1.00  0.00     0.087 C
BRANCH  38  39
HETATM   39  N7  UNL     1      15.264  22.219  16.088  1.00  0.00    -0.359 N
HETATM   40  C19 UNL     1      15.959  22.394  14.907  1.00  0.00     0.064 C
HETATM   41  C20 UNL     1      15.381  21.490  13.816  1.00  0.00     0.045 C
HETATM   42  C21 UNL     1      13.905  21.391  13.927  1.00  0.00     0.007 C
HETATM   43  C22 UNL     1      13.259  22.452  14.744  1.00  0.00     0.021 C
HETATM   44  C23 UNL     1      13.937  22.809  16.007  1.00  0.00     0.128 C
ENDBRANCH  38  39
BRANCH  38  45
HETATM   45  C24 UNL     1      16.412  21.058  17.860  1.00  0.00    -0.003 C
HETATM   46  C25 UNL     1      15.323  20.005  17.756  1.00  0.00     0.021 C
HETATM   47  C26 UNL     1      16.685  21.129  19.382  1.00  0.00     0.021 C
HETATM   48  C27 UNL     1      17.612  20.559  17.137  1.00  0.00     0.021 C
ENDBRANCH  38  45
ENDBRANCH  35  38
ENDBRANCH   1  34
TORSDOF 14
ENDMDL