MODEL 1
REMARK VINA RESULT: -9.073459186      0.000      0.000
REMARK  14 active torsions:
REMARK  status: ('A' for Active; 'I' for Inactive)
REMARK    1  A    between atoms: C2_2  and  C3_3
REMARK    2  A    between atoms: C3_3  and  C4_4
REMARK    3  A    between atoms: C4_4  and  C5_5
REMARK    4  A    between atoms: C5_5  and  C6_6
REMARK    5  A    between atoms: C6_6  and  N1_7
REMARK       I    between atoms: N1_7  and  C7_8
REMARK    6  A    between atoms: N1_7  and  C23_42
REMARK    7  A    between atoms: C7_8  and  C8_10
REMARK    8  A    between atoms: C8_10  and  N2_11
REMARK    9  A    between atoms: C9_12  and  C10_13
REMARK   10  A    between atoms: C10_13  and  C11_14
REMARK   11  A    between atoms: N3_16  and  C13_17
REMARK   12  A    between atoms: C13_17  and  C14_18
REMARK       I    between atoms: C14_18  and  N4_20
REMARK   13  A    between atoms: C16_22  and  O3_23
REMARK   14  A    between atoms: C21_35  and  N7_36
ROOT
HETATM    1  N2  UNL     1      15.864  22.709  16.258  1.00  0.00    -0.311 N
HETATM    2  C9  UNL     1      16.897  22.644  15.413  1.00  0.00     0.086 A
HETATM    3  N5  UNL     1      16.444  22.213  14.216  1.00  0.00    -0.338 N
ATOM      4  H5  UNL     1      17.011  22.069  13.379  1.00  0.00     0.167 HD
HETATM    5  C19 UNL     1      15.134  22.008  14.313  1.00  0.00     0.148 A
HETATM    6  C20 UNL     1      14.210  21.572  13.385  1.00  0.00     0.290 A
HETATM    7  O5  UNL     1      14.511  21.282  12.216  1.00  0.00    -0.265 OA
HETATM    8  N6  UNL     1      12.925  21.468  13.811  1.00  0.00    -0.154 N
ATOM      9  H6  UNL     1      12.213  21.149  13.154  1.00  0.00     0.187 HD
HETATM   10  C21 UNL     1      12.560  21.769  15.058  1.00  0.00     0.680 A
HETATM   11  N8  UNL     1      13.464  22.194  15.956  1.00  0.00    -0.174 N
ATOM     12  H8  UNL     1      13.173  22.421  16.907  1.00  0.00     0.186 HD
HETATM   13  C22 UNL     1      14.767  22.319  15.595  1.00  0.00     0.157 A
ENDROOT
BRANCH   1  14
HETATM   14  C8  UNL     1      15.831  23.154  17.664  1.00  0.00     0.235 C
BRANCH  14  15
HETATM   15  C7  UNL     1      15.071  22.162  18.465  1.00  0.00     0.238 C
HETATM   16  N1  UNL     1      15.598  20.916  18.865  1.00  0.00    -0.346 N
HETATM   17  O1  UNL     1      13.884  22.444  18.808  1.00  0.00    -0.272 OA
BRANCH  16  18
HETATM   18  C6  UNL     1      16.947  20.570  18.500  1.00  0.00     0.126 C
BRANCH  18  19
HETATM   19  C5  UNL     1      17.982  20.952  19.502  1.00  0.00     0.020 C
BRANCH  19  20
HETATM   20  C4  UNL     1      18.878  22.081  19.069  1.00  0.00     0.002 C
BRANCH  20  21
HETATM   21  C3  UNL     1      19.875  22.434  20.144  1.00  0.00    -0.000 C
BRANCH  21  22
HETATM   22  C2  UNL     1      19.756  23.894  20.549  1.00  0.00    -0.005 C
HETATM   23  C1  UNL     1      18.385  24.247  21.017  1.00  0.00     0.005 C
ENDBRANCH  21  22
ENDBRANCH  20  21
ENDBRANCH  19  20
ENDBRANCH  18  19
ENDBRANCH  16  18
BRANCH  16  24
HETATM   24  C23 UNL     1      14.787  20.008  19.618  1.00  0.00     0.087 C
HETATM   25  C24 UNL     1      15.119  19.884  21.065  1.00  0.00     0.025 C
HETATM   26  C25 UNL     1      13.916  19.212  21.737  1.00  0.00     0.002 C
HETATM   27  C26 UNL     1      13.623  17.875  21.119  1.00  0.00     0.000 C
HETATM   28  C27 UNL     1      13.630  17.871  19.626  1.00  0.00     0.002 C
HETATM   29  C28 UNL     1      14.828  18.595  19.031  1.00  0.00     0.025 C
ENDBRANCH  16  24
ENDBRANCH  14  15
ENDBRANCH   1  14
BRANCH   2  30
HETATM   30  C10 UNL     1      18.296  22.958  15.721  1.00  0.00     0.092 C
BRANCH  30  31
HETATM   31  C11 UNL     1      18.725  24.359  15.537  1.00  0.00     0.103 C
HETATM   32  C12 UNL     1      20.243  24.574  15.566  1.00  0.00     0.141 C
HETATM   33  N3  UNL     1      19.914  25.892  16.024  1.00  0.00    -0.342 N
HETATM   34  C18 UNL     1      18.763  25.296  16.662  1.00  0.00     0.226 C
HETATM   35  O4  UNL     1      18.215  25.629  17.735  1.00  0.00    -0.273 OA
BRANCH  33  36
HETATM   36  C13 UNL     1      20.424  27.221  15.939  1.00  0.00     0.228 C
BRANCH  36  37
HETATM   37  C14 UNL     1      21.495  27.417  16.950  1.00  0.00     0.237 C
HETATM   38  O2  UNL     1      21.164  27.643  18.162  1.00  0.00    -0.272 OA
HETATM   39  N4  UNL     1      22.871  27.362  16.626  1.00  0.00    -0.346 N
HETATM   40  C15 UNL     1      24.113  27.505  17.349  1.00  0.00     0.159 C
HETATM   41  C17 UNL     1      23.636  27.139  15.420  1.00  0.00     0.159 C
HETATM   42  C16 UNL     1      24.753  26.596  16.307  1.00  0.00     0.154 C
BRANCH  42  43
HETATM   43  O3  UNL     1      26.025  26.932  15.925  1.00  0.00    -0.392 OA
ATOM     44  H3  UNL     1      26.124  27.215  15.024  1.00  0.00     0.210 HD
ENDBRANCH  42  43
ENDBRANCH  36  37
ENDBRANCH  33  36
ENDBRANCH  30  31
ENDBRANCH   2  30
BRANCH  10  45
HETATM   45  N7  UNL     1      11.333  21.663  15.441  1.00  0.00    -0.234 N
ATOM     46  H72 UNL     1      10.683  22.400  15.169  1.00  0.00     0.174 HD
ATOM     47  H71 UNL     1      11.019  20.868  15.998  1.00  0.00     0.174 HD
ENDBRANCH  10  45
TORSDOF 14
ENDMDL