MODEL 5
REMARK VINA RESULT: -8.569321256      2.013      2.456
REMARK  14 active torsions:
REMARK  status: ('A' for Active; 'I' for Inactive)
REMARK    1  A    between atoms: C2_2  and  C3_3
REMARK    2  A    between atoms: C3_3  and  N1_4
REMARK       I    between atoms: N1_4  and  C4_6
REMARK    3  A    between atoms: C4_6  and  C5_8
REMARK    4  A    between atoms: C5_8  and  C6_9
REMARK    5  A    between atoms: C5_8  and  N2_12
REMARK    6  A    between atoms: C6_9  and  S1_10
REMARK       I    between atoms: N2_12  and  C8_14
REMARK       I    between atoms: C8_14  and  N3_15
REMARK       I    between atoms: C8_14  and  N10_42
REMARK    7  A    between atoms: N3_15  and  C9_17
REMARK    8  A    between atoms: C10_22  and  C11_23
REMARK    9  A    between atoms: C11_23  and  C12_24
REMARK   10  A    between atoms: C12_24  and  S2_25
REMARK   11  A    between atoms: S2_25  and  C13_26
REMARK   12  A    between atoms: C13_26  and  C14_27
REMARK   13  A    between atoms: C14_27  and  C15_28
REMARK   14  A    between atoms: C16_33  and  N8_34
REMARK       I    between atoms: N8_34  and  C17_36
ROOT
HETATM    1  C9  UNL     1      14.970  22.397  18.604  1.00  0.00     0.180 A
HETATM    2  N4  UNL     1      15.079  23.729  18.548  1.00  0.00    -0.279 N
ATOM      3  H4  UNL     1      14.262  24.311  18.364  1.00  0.00     0.189 HD
HETATM    4  N5  UNL     1      16.221  24.253  18.728  1.00  0.00    -0.296 N
ATOM      5  H5  UNL     1      16.326  25.268  18.691  1.00  0.00     0.187 HD
HETATM    6  C10 UNL     1      17.277  23.489  18.964  1.00  0.00     0.070 A
HETATM    7  S3  UNL     1      16.580  21.929  18.925  1.00  0.00    -0.037 SA
ENDROOT
BRANCH   1   8
HETATM    8  N3  UNL     1      13.889  21.669  18.447  1.00  0.00    -0.169 N
HETATM    9  C8  UNL     1      13.967  20.268  18.336  1.00  0.00     0.685 C
HETATM   10  N2  UNL     1      13.845  19.709  17.195  1.00  0.00    -0.212 N
HETATM   11  N10 UNL     1      14.180  19.476  19.483  1.00  0.00    -0.151 N
ATOM     12  H2  UNL     1      13.902  18.693  17.127  1.00  0.00     0.178 HD
HETATM   13  C19 UNL     1      14.342  19.959  20.847  1.00  0.00     0.151 C
HETATM   14  C22 UNL     1      14.287  18.052  19.584  1.00  0.00     0.238 C
HETATM   15  C20 UNL     1      13.557  18.908  21.625  1.00  0.00     0.030 C
HETATM   16  C21 UNL     1      14.052  17.623  20.981  1.00  0.00     0.105 C
HETATM   17  O3  UNL     1      14.549  17.334  18.568  1.00  0.00    -0.273 OA
ATOM     18  H3  UNL     1      12.977  22.126  18.404  1.00  0.00     0.186 HD
BRANCH  10  19
HETATM   19  C5  UNL     1      13.623  20.501  15.979  1.00  0.00     0.200 C
BRANCH  19  20
HETATM   20  C4  UNL     1      12.600  19.834  15.152  1.00  0.00     0.242 C
HETATM   21  N1  UNL     1      12.897  18.962  14.086  1.00  0.00    -0.356 N
ATOM     22  H1  UNL     1      13.869  18.764  13.852  1.00  0.00     0.162 HD
HETATM   23  O1  UNL     1      11.371  20.075  15.431  1.00  0.00    -0.271 OA
BRANCH  21  24
HETATM   24  C3  UNL     1      11.841  18.344  13.322  1.00  0.00     0.149 C
BRANCH  24  25
HETATM   25  C2  UNL     1      12.398  17.472  12.256  1.00  0.00    -0.018 C
HETATM   26  C1  UNL     1      12.798  16.245  12.552  1.00  0.00     0.008 C
ENDBRANCH  24  25
ENDBRANCH  21  24
ENDBRANCH  19  20
BRANCH  19  27
HETATM   27  C6  UNL     1      14.931  20.700  15.261  1.00  0.00     0.108 C
BRANCH  27  28
HETATM   28  S1  UNL     1      15.334  22.390  14.886  1.00  0.00    -0.171 SA
HETATM   29  C7  UNL     1      17.082  22.750  15.247  1.00  0.00     0.089 C
ENDBRANCH  27  28
ENDBRANCH  19  27
ENDBRANCH  10  19
ENDBRANCH   1   8
BRANCH   6  30
HETATM   30  C11 UNL     1      18.701  23.932  19.199  1.00  0.00     0.076 C
BRANCH  30  31
HETATM   31  C12 UNL     1      19.577  22.707  19.140  1.00  0.00     0.080 C
BRANCH  31  32
HETATM   32  S2  UNL     1      20.788  22.867  20.503  1.00  0.00    -0.168 SA
BRANCH  32  33
HETATM   33  C13 UNL     1      22.430  23.035  19.763  1.00  0.00     0.081 C
BRANCH  33  34
HETATM   34  C14 UNL     1      22.937  24.453  19.919  1.00  0.00     0.088 C
BRANCH  34  35
HETATM   35  C15 UNL     1      22.106  25.402  19.134  1.00  0.00     0.113 A
HETATM   36  N6  UNL     1      21.638  26.551  19.650  1.00  0.00    -0.274 N
HETATM   37  N7  UNL     1      20.939  27.174  18.711  1.00  0.00    -0.130 N
ATOM     38  H6  UNL     1      21.794  26.887  20.601  1.00  0.00     0.189 HD
HETATM   39  C16 UNL     1      20.932  26.458  17.575  1.00  0.00     0.700 A
ATOM     40  H7  UNL     1      20.471  28.071  18.835  1.00  0.00     0.205 HD
HETATM   41  N9  UNL     1      21.676  25.353  17.878  1.00  0.00    -0.178 N
ATOM     42  H9  UNL     1      21.874  24.593  17.227  1.00  0.00     0.185 HD
BRANCH  39  43
HETATM   43  N8  UNL     1      20.370  26.718  16.444  1.00  0.00    -0.159 N
HETATM   44  C17 UNL     1      21.055  27.570  15.526  1.00  0.00     0.232 C
HETATM   45  C18 UNL     1      22.248  27.115  14.765  1.00  0.00     0.118 C
HETATM   46  O2  UNL     1      20.648  28.747  15.345  1.00  0.00    -0.273 OA
ATOM     47  H8  UNL     1      19.458  26.323  16.212  1.00  0.00     0.187 HD
ENDBRANCH  39  43
ENDBRANCH  34  35
ENDBRANCH  33  34
ENDBRANCH  32  33
ENDBRANCH  31  32
ENDBRANCH  30  31
ENDBRANCH   6  30
TORSDOF 14
ENDMDL