MODEL 1
REMARK VINA RESULT: -8.927580258      0.000      0.000
REMARK  13 active torsions:
REMARK  status: ('A' for Active; 'I' for Inactive)
REMARK    1  A    between atoms: C2_2  and  C3_3
REMARK    2  A    between atoms: C3_3  and  N1_4
REMARK       I    between atoms: C4_6  and  N2_7
REMARK       I    between atoms: C4_6  and  N8_44
REMARK    3  A    between atoms: N2_7  and  C5_9
REMARK    4  A    between atoms: N3_13  and  C9_14
REMARK    5  A    between atoms: C9_14  and  C10_15
REMARK    6  A    between atoms: C10_15  and  C11_16
REMARK    7  A    between atoms: C10_15  and  N6_30
REMARK    8  A    between atoms: C11_16  and  C12_17
REMARK       I    between atoms: C12_17  and  N4_19
REMARK    9  A    between atoms: N4_19  and  S1_21
REMARK   10  A    between atoms: S1_21  and  N5_24
REMARK   11  A    between atoms: N6_30  and  C17_32
REMARK   12  A    between atoms: C17_32  and  C18_33
REMARK   13  A    between atoms: C23_41  and  C24_42
ROOT
HETATM    1  C10 UNL     1      15.644  21.424  16.796  1.00  0.00     0.028 C
ENDROOT
BRANCH   1   2
HETATM    2  C9  UNL     1      16.870  22.084  17.216  1.00  0.00     0.085 C
BRANCH   2   3
HETATM    3  N3  UNL     1      16.947  23.047  18.252  1.00  0.00    -0.284 NA
HETATM    4  C8  UNL     1      17.124  22.515  19.604  1.00  0.00     0.095 C
HETATM    5  C7  UNL     1      18.304  21.613  19.703  1.00  0.00     0.017 C
HETATM    6  C6  UNL     1      19.534  22.309  19.196  1.00  0.00     0.028 C
HETATM    7  C5  UNL     1      19.338  23.266  18.069  1.00  0.00     0.117 C
HETATM    8  C23 UNL     1      18.066  23.991  18.126  1.00  0.00     0.085 C
BRANCH   7   9
HETATM    9  N2  UNL     1      20.554  24.037  17.976  1.00  0.00    -0.220 N
HETATM   10  C4  UNL     1      21.483  24.263  19.036  1.00  0.00     0.675 C
HETATM   11  N1  UNL     1      22.445  23.488  19.190  1.00  0.00    -0.202 N
HETATM   12  N8  UNL     1      21.294  25.371  19.871  1.00  0.00    -0.227 N
ATOM     13  H1  UNL     1      22.402  22.765  18.472  1.00  0.00     0.183 HD
HETATM   14  C26 UNL     1      20.672  25.392  21.166  1.00  0.00     0.168 C
HETATM   15  C27 UNL     1      21.777  26.664  19.378  1.00  0.00     0.168 C
ATOM     16  H2  UNL     1      20.769  24.458  17.072  1.00  0.00     0.178 HD
BRANCH  11  17
HETATM   17  C3  UNL     1      23.545  23.260  19.984  1.00  0.00     0.105 C
BRANCH  17  18
HETATM   18  C2  UNL     1      24.884  23.231  19.364  1.00  0.00     0.007 C
HETATM   19  C1  UNL     1      25.501  22.091  19.041  1.00  0.00     0.012 C
ENDBRANCH  17  18
ENDBRANCH  11  17
ENDBRANCH   7   9
BRANCH   8  20
HETATM   20  C24 UNL     1      17.865  25.177  17.279  1.00  0.00     0.017 C
HETATM   21  C25 UNL     1      17.850  25.090  15.825  1.00  0.00     0.007 C
ENDBRANCH   8  20
ENDBRANCH   2   3
ENDBRANCH   1   2
BRANCH   1  22
HETATM   22  C11 UNL     1      15.355  20.051  17.429  1.00  0.00     0.161 C
BRANCH  22  23
HETATM   23  C12 UNL     1      13.967  19.991  18.001  1.00  0.00     0.237 C
HETATM   24  O1  UNL     1      13.481  20.793  18.813  1.00  0.00    -0.272 OA
HETATM   25  N4  UNL     1      13.168  18.905  17.555  1.00  0.00    -0.241 N
ATOM     26  H4  UNL     1      13.549  18.238  16.885  1.00  0.00     0.182 HD
BRANCH  25  27
HETATM   27  S1  UNL     1      11.558  18.708  18.140  1.00  0.00     0.305 S
HETATM   28  O2  UNL     1      11.665  18.592  19.666  1.00  0.00    -0.188 OA
HETATM   29  O3  UNL     1      10.727  19.900  17.827  1.00  0.00    -0.188 OA
BRANCH  27  30
HETATM   30  N5  UNL     1      10.834  17.273  17.587  1.00  0.00    -0.189 NA
HETATM   31  C13 UNL     1      10.420  17.358  16.210  1.00  0.00     0.135 C
HETATM   32  C14 UNL     1      11.175  16.309  15.407  1.00  0.00     0.183 C
HETATM   33  O4  UNL     1      10.715  15.065  15.785  1.00  0.00    -0.389 OA
HETATM   34  C15 UNL     1      10.846  14.911  17.157  1.00  0.00     0.183 C
HETATM   35  C16 UNL     1      11.570  16.077  17.812  1.00  0.00     0.135 C
ENDBRANCH  27  30
ENDBRANCH  25  27
ENDBRANCH  22  23
ENDBRANCH   1  22
BRANCH   1  36
HETATM   36  N6  UNL     1      14.452  22.063  16.452  1.00  0.00    -0.371 N
ATOM     37  H6  UNL     1      13.680  21.956  17.110  1.00  0.00     0.164 HD
BRANCH  36  38
HETATM   38  C17 UNL     1      14.192  22.822  15.326  1.00  0.00     0.065 C
BRANCH  38  39
HETATM   39  C18 UNL     1      13.202  22.350  14.332  1.00  0.00     0.027 C
HETATM   40  C19 UNL     1      12.275  21.382  15.041  1.00  0.00     0.037 C
HETATM   41  C20 UNL     1      12.161  20.126  14.208  1.00  0.00     0.233 C
HETATM   42  N7  UNL     1      13.433  19.457  14.135  1.00  0.00    -0.075 N
HETATM   43  C21 UNL     1      14.472  20.320  13.597  1.00  0.00     0.233 C
ATOM     44  H72 UNL     1      13.702  19.075  15.041  1.00  0.00     0.277 HD
ATOM     45  H71 UNL     1      13.363  18.587  13.608  1.00  0.00     0.277 HD
HETATM   46  C22 UNL     1      13.901  21.642  13.157  1.00  0.00     0.037 C
ENDBRANCH  38  39
ENDBRANCH  36  38
ENDBRANCH   1  36
TORSDOF 13
ENDMDL