MODEL 5
REMARK VINA RESULT: -8.540114902      2.024      3.440
REMARK  16 active torsions:
REMARK  status: ('A' for Active; 'I' for Inactive)
REMARK    1  A    between atoms: N1_1  and  C1_5
REMARK    2  A    between atoms: C1_5  and  C2_6
REMARK    3  A    between atoms: C2_6  and  C3_7
REMARK    4  A    between atoms: C3_7  and  C4_8
REMARK    5  A    between atoms: C4_8  and  C5_9
REMARK    6  A    between atoms: C5_9  and  N2_10
REMARK    7  A    between atoms: C5_9  and  C16_26
REMARK       I    between atoms: N2_10  and  C6_12
REMARK    8  A    between atoms: C6_12  and  C7_14
REMARK       I    between atoms: C7_14  and  N3_16
REMARK    9  A    between atoms: C16_26  and  O4_27
REMARK   10  A    between atoms: C16_26  and  N4_29
REMARK   11  A    between atoms: N5_33  and  C20_34
REMARK   12  A    between atoms: C20_34  and  C21_35
REMARK   13  A    between atoms: C21_35  and  O5_36
REMARK   14  A    between atoms: O5_36  and  C22_37
REMARK   15  A    between atoms: C22_37  and  C23_38
REMARK   16  A    between atoms: C23_38  and  O6_39
ROOT
HETATM    1  C5  UNL     1      17.361  23.833  17.390  1.00  0.00     0.159 C
ENDROOT
BRANCH   1   2
HETATM    2  C4  UNL     1      17.790  24.292  16.036  1.00  0.00     0.034 C
BRANCH   2   3
HETATM    3  C3  UNL     1      18.755  25.486  16.159  1.00  0.00     0.004 C
BRANCH   3   4
HETATM    4  C2  UNL     1      18.733  26.161  14.805  1.00  0.00     0.027 C
BRANCH   4   5
HETATM    5  C1  UNL     1      20.125  26.663  14.473  1.00  0.00     0.229 C
BRANCH   5   6
HETATM    6  N1  UNL     1      20.121  28.118  14.497  1.00  0.00    -0.079 N
ATOM      7  H13 UNL     1      19.426  28.515  13.865  1.00  0.00     0.274 HD
ATOM      8  H12 UNL     1      19.749  28.492  15.371  1.00  0.00     0.274 HD
ATOM      9  H11 UNL     1      21.063  28.456  14.300  1.00  0.00     0.274 HD
ENDBRANCH   5   6
ENDBRANCH   4   5
ENDBRANCH   3   4
ENDBRANCH   2   3
ENDBRANCH   1   2
BRANCH   1  10
HETATM   10  N2  UNL     1      18.134  24.515  18.435  1.00  0.00    -0.341 N
HETATM   11  C6  UNL     1      19.009  23.754  19.296  1.00  0.00     0.310 C
HETATM   12  O1  UNL     1      19.049  22.521  19.100  1.00  0.00    -0.262 OA
ATOM     13  H2  UNL     1      18.054  25.525  18.552  1.00  0.00     0.163 HD
BRANCH  11  14
HETATM   14  C7  UNL     1      19.791  24.373  20.318  1.00  0.00     0.316 C
HETATM   15  O2  UNL     1      19.379  24.081  21.512  1.00  0.00    -0.262 OA
HETATM   16  N3  UNL     1      20.909  25.228  20.196  1.00  0.00    -0.309 N
HETATM   17  C8  UNL     1      21.829  25.989  20.966  1.00  0.00     0.012 C
HETATM   18  C13 UNL     1      21.606  25.633  18.911  1.00  0.00     0.100 C
HETATM   19  C9  UNL     1      22.993  25.759  21.544  1.00  0.00     0.006 C
HETATM   20  C15 UNL     1      21.457  27.403  20.639  1.00  0.00     0.059 C
HETATM   21  C10 UNL     1      23.727  24.393  21.468  1.00  0.00     0.107 C
HETATM   22  C11 UNL     1      23.350  24.105  19.988  1.00  0.00     0.132 C
HETATM   23  O3  UNL     1      23.378  22.927  19.733  1.00  0.00    -0.298 OA
HETATM   24  C12 UNL     1      22.980  25.049  18.913  1.00  0.00     0.104 C
HETATM   25  C14 UNL     1      21.587  27.174  19.091  1.00  0.00     0.032 C
ENDBRANCH  11  14
ENDBRANCH   1  10
BRANCH   1  26
HETATM   26  C16 UNL     1      15.930  23.864  17.717  1.00  0.00     0.137 C
BRANCH  26  27
HETATM   27  O4  UNL     1      15.649  24.794  18.628  1.00  0.00    -0.348 OA
ATOM     28  H4  UNL     1      15.145  25.509  18.260  1.00  0.00     0.219 HD
ENDBRANCH  26  27
BRANCH  26  29
HETATM   29  N4  UNL     1      14.835  23.126  17.272  1.00  0.00    -0.359 N
HETATM   30  C17 UNL     1      14.050  23.359  16.119  1.00  0.00     0.126 C
HETATM   31  C18 UNL     1      14.468  22.483  14.953  1.00  0.00     0.040 C
HETATM   32  C19 UNL     1      14.320  21.048  15.394  1.00  0.00     0.124 C
HETATM   33  N5  UNL     1      13.258  20.913  16.314  1.00  0.00    -0.380 N
HETATM   34  C29 UNL     1      13.501  21.062  17.684  1.00  0.00     0.079 C
HETATM   35  C30 UNL     1      14.573  21.956  18.156  1.00  0.00     0.168 C
BRANCH  33  36
HETATM   36  C20 UNL     1      12.179  20.083  15.883  1.00  0.00     0.053 C
HETATM   37  C24 UNL     1      12.770  19.063  14.920  1.00  0.00     0.033 C
HETATM   38  C25 UNL     1      12.073  19.004  13.606  1.00  0.00     0.002 C
HETATM   39  C26 UNL     1      10.566  18.985  13.721  1.00  0.00     0.000 C
HETATM   40  C27 UNL     1      10.039  20.105  14.562  1.00  0.00     0.002 C
HETATM   41  C28 UNL     1      11.139  20.940  15.179  1.00  0.00     0.033 C
BRANCH  36  42
HETATM   42  C21 UNL     1      11.461  19.405  17.011  1.00  0.00     0.198 C
BRANCH  42  43
HETATM   43  O5  UNL     1      11.518  18.031  17.025  1.00  0.00    -0.387 OA
BRANCH  43  44
HETATM   44  C22 UNL     1      11.075  17.462  18.191  1.00  0.00     0.193 C
BRANCH  44  45
HETATM   45  C23 UNL     1      11.872  18.041  19.341  1.00  0.00     0.190 C
BRANCH  45  46
HETATM   46  O6  UNL     1      11.095  18.222  20.481  1.00  0.00    -0.399 OA
ATOM     47  H6  UNL     1      10.685  19.079  20.504  1.00  0.00     0.209 HD
ENDBRANCH  45  46
ENDBRANCH  44  45
ENDBRANCH  43  44
ENDBRANCH  42  43
ENDBRANCH  36  42
ENDBRANCH  33  36
ENDBRANCH  26  29
ENDBRANCH   1  26
TORSDOF 16
ENDMDL