MODEL 4
REMARK VINA RESULT: -9.371022032      2.675      8.693
REMARK  12 active torsions:
REMARK  status: ('A' for Active; 'I' for Inactive)
REMARK    1  A    between atoms: C2_3  and  N2_4
REMARK       I    between atoms: N2_4  and  C3_6
REMARK    2  A    between atoms: C3_6  and  C4_8
REMARK       I    between atoms: N3_13  and  C9_14
REMARK    3  A    between atoms: C9_14  and  C10_16
REMARK       I    between atoms: N4_17  and  C11_19
REMARK    4  A    between atoms: C11_19  and  C12_21
REMARK    5  A    between atoms: C12_21  and  C13_22
REMARK    6  A    between atoms: C12_21  and  N5_26
REMARK    7  A    between atoms: C13_22  and  C14_23
REMARK       I    between atoms: N5_26  and  C15_28
REMARK    8  A    between atoms: C15_28  and  C16_30
REMARK    9  A    between atoms: C16_30  and  C17_31
REMARK   10  A    between atoms: C16_30  and  C20_36
REMARK   11  A    between atoms: C17_31  and  C18_32
REMARK   12  A    between atoms: C18_32  and  C19_33
ROOT
HETATM    1  N1  UNL     1      17.383  25.479  15.045  1.00  0.00    -0.195 NA
HETATM    2  C1  UNL     1      18.455  25.786  15.340  1.00  0.00     0.091 C
HETATM    3  C2  UNL     1      19.794  26.164  15.728  1.00  0.00     0.122 C
HETATM    4  C26 UNL     1      20.900  25.586  14.872  1.00  0.00     0.047 C
HETATM    5  C27 UNL     1      21.626  26.915  15.002  1.00  0.00     0.007 C
HETATM    6  C28 UNL     1      20.255  27.539  15.297  1.00  0.00     0.047 C
ENDROOT
BRANCH   3   7
HETATM    7  N2  UNL     1      20.011  25.987  17.161  1.00  0.00    -0.337 N
HETATM    8  C3  UNL     1      20.047  24.699  17.751  1.00  0.00     0.242 C
HETATM    9  O1  UNL     1      19.884  23.701  16.981  1.00  0.00    -0.271 OA
ATOM     10  H2  UNL     1      20.140  26.809  17.751  1.00  0.00     0.164 HD
BRANCH   8  11
HETATM   11  C4  UNL     1      20.267  24.555  19.198  1.00  0.00     0.179 C
HETATM   12  C5  UNL     1      21.453  25.370  19.689  1.00  0.00     0.035 C
HETATM   13  C6  UNL     1      21.871  24.936  21.072  1.00  0.00     0.004 C
HETATM   14  C7  UNL     1      22.207  23.483  21.171  1.00  0.00     0.020 C
HETATM   15  C8  UNL     1      21.831  22.790  19.888  1.00  0.00     0.127 C
HETATM   16  N3  UNL     1      20.447  23.153  19.583  1.00  0.00    -0.334 N
HETATM   17  C9  UNL     1      19.390  22.215  19.661  1.00  0.00     0.259 C
HETATM   18  O2  UNL     1      19.686  21.048  20.005  1.00  0.00    -0.267 OA
BRANCH  17  19
HETATM   19  C10 UNL     1      18.009  22.541  19.367  1.00  0.00     0.165 C
HETATM   20  N4  UNL     1      17.623  22.741  18.172  1.00  0.00    -0.330 N
HETATM   21  C11 UNL     1      16.291  23.062  17.824  1.00  0.00     0.245 C
ATOM     22  H4  UNL     1      18.312  22.667  17.424  1.00  0.00     0.168 HD
HETATM   23  O3  UNL     1      15.829  24.173  18.155  1.00  0.00    -0.271 OA
BRANCH  21  24
HETATM   24  C12 UNL     1      15.505  22.036  17.070  1.00  0.00     0.186 C
BRANCH  24  25
HETATM   25  C13 UNL     1      15.203  22.535  15.693  1.00  0.00     0.147 C
BRANCH  25  26
HETATM   26  C14 UNL     1      16.133  22.052  14.666  1.00  0.00     0.175 C
HETATM   27  O4  UNL     1      15.728  21.577  13.575  1.00  0.00    -0.648 OA
HETATM   28  O5  UNL     1      17.490  22.115  14.892  1.00  0.00    -0.648 OA
ENDBRANCH  25  26
ENDBRANCH  24  25
BRANCH  24  29
HETATM   29  N5  UNL     1      14.369  21.564  17.799  1.00  0.00    -0.347 N
HETATM   30  C15 UNL     1      13.735  20.321  17.516  1.00  0.00     0.223 C
HETATM   31  O6  UNL     1      14.199  19.621  16.588  1.00  0.00    -0.273 OA
ATOM     32  H5  UNL     1      13.998  22.141  18.553  1.00  0.00     0.163 HD
BRANCH  30  33
HETATM   33  C16 UNL     1      12.546  19.923  18.346  1.00  0.00     0.082 C
BRANCH  33  34
HETATM   34  C17 UNL     1      11.399  19.800  17.419  1.00  0.00     0.023 C
BRANCH  34  35
HETATM   35  C18 UNL     1      11.236  18.377  16.966  1.00  0.00     0.100 C
BRANCH  35  36
HETATM   36  C19 UNL     1      10.813  18.192  15.578  1.00  0.00     0.231 C
HETATM   37  N6  UNL     1       9.688  17.379  15.286  1.00  0.00    -0.062 NA
HETATM   38  O7  UNL     1      11.418  18.735  14.637  1.00  0.00    -0.277 OA
ENDBRANCH  35  36
ENDBRANCH  34  35
ENDBRANCH  33  34
BRANCH  33  39
HETATM   39  C20 UNL     1      12.876  18.664  19.098  1.00  0.00    -0.002 C
HETATM   40  C21 UNL     1      14.289  18.775  19.626  1.00  0.00     0.005 C
HETATM   41  C22 UNL     1      14.309  19.242  21.066  1.00  0.00     0.000 C
HETATM   42  C23 UNL     1      13.711  18.194  21.970  1.00  0.00     0.000 C
HETATM   43  C24 UNL     1      12.635  17.457  21.237  1.00  0.00     0.000 C
HETATM   44  C25 UNL     1      11.937  18.330  20.192  1.00  0.00     0.005 C
ENDBRANCH  33  39
ENDBRANCH  30  33
ENDBRANCH  24  29
ENDBRANCH  21  24
ENDBRANCH  17  19
ENDBRANCH   8  11
ENDBRANCH   3   7
TORSDOF 12
ENDMDL