MODEL 4
REMARK VINA RESULT: -8.665279654      3.371     10.367
REMARK  12 active torsions:
REMARK  status: ('A' for Active; 'I' for Inactive)
REMARK    1  A    between atoms: S1_2  and  C2_3
REMARK    2  A    between atoms: C2_3  and  C3_4
REMARK    3  A    between atoms: C3_4  and  C4_5
REMARK    4  A    between atoms: C4_5  and  N1_6
REMARK    5  A    between atoms: C4_5  and  C16_23
REMARK       I    between atoms: N1_6  and  C5_8
REMARK    6  A    between atoms: C5_8  and  C6_10
REMARK       I    between atoms: N2_14  and  C10_15
REMARK    7  A    between atoms: C10_15  and  C11_17
REMARK    8  A    between atoms: C11_17  and  C12_19
REMARK       I    between atoms: C16_23  and  N3_25
REMARK    9  A    between atoms: N3_25  and  C17_27
REMARK   10  A    between atoms: C17_27  and  C19_29
REMARK       I    between atoms: C19_29  and  N4_31
REMARK       I    between atoms: N4_31  and  C20_33
REMARK   11  A    between atoms: C20_33  and  C21_35
REMARK   12  A    between atoms: C21_35  and  N5_36
REMARK       I    between atoms: N5_36  and  C22_38
ROOT
HETATM    1  C4  UNL     1      19.083  23.486  17.653  1.00  0.00     0.081 C
ENDROOT
BRANCH   1   2
HETATM    2  C3  UNL     1      19.716  23.613  16.317  1.00  0.00     0.073 C
BRANCH   2   3
HETATM    3  C2  UNL     1      19.661  24.895  15.592  1.00  0.00     0.080 C
BRANCH   3   4
HETATM    4  S1  UNL     1      18.070  25.664  15.344  1.00  0.00    -0.173 SA
HETATM    5  C1  UNL     1      17.959  26.622  13.822  1.00  0.00     0.089 C
ENDBRANCH   3   4
ENDBRANCH   2   3
ENDBRANCH   1   2
BRANCH   1   6
HETATM    6  N1  UNL     1      17.960  22.662  17.784  1.00  0.00    -0.324 N
HETATM    7  C5  UNL     1      17.639  21.356  17.413  1.00  0.00     0.245 C
HETATM    8  O1  UNL     1      18.376  20.623  16.772  1.00  0.00    -0.271 OA
ATOM      9  H1  UNL     1      17.193  23.128  18.268  1.00  0.00     0.169 HD
BRANCH   7  10
HETATM   10  C6  UNL     1      16.292  20.830  17.848  1.00  0.00     0.180 C
HETATM   11  C7  UNL     1      16.337  20.365  19.256  1.00  0.00     0.037 C
HETATM   12  C8  UNL     1      15.416  21.345  19.975  1.00  0.00     0.022 C
HETATM   13  C9  UNL     1      14.433  21.754  18.902  1.00  0.00     0.127 C
HETATM   14  N2  UNL     1      15.210  21.702  17.695  1.00  0.00    -0.332 N
HETATM   15  C10 UNL     1      14.810  22.404  16.529  1.00  0.00     0.291 C
HETATM   16  O2  UNL     1      13.876  23.290  16.671  1.00  0.00    -0.264 OA
BRANCH  15  17
HETATM   17  C11 UNL     1      15.319  22.256  15.195  1.00  0.00     0.224 C
HETATM   18  O3  UNL     1      16.430  22.704  14.805  1.00  0.00    -0.286 OA
BRANCH  17  19
HETATM   19  C12 UNL     1      14.523  21.543  14.153  1.00  0.00     0.019 C
HETATM   20  C13 UNL     1      13.293  22.387  13.793  1.00  0.00     0.023 C
HETATM   21  C14 UNL     1      14.042  20.228  14.648  1.00  0.00     0.023 C
HETATM   22  C15 UNL     1      15.301  21.395  12.862  1.00  0.00     0.023 C
ENDBRANCH  17  19
ENDBRANCH  15  17
ENDBRANCH   7  10
ENDBRANCH   1   6
BRANCH   1  23
HETATM   23  C16 UNL     1      20.116  23.485  18.751  1.00  0.00     0.264 C
HETATM   24  O4  UNL     1      19.912  23.040  19.904  1.00  0.00    -0.266 OA
HETATM   25  N3  UNL     1      21.433  24.005  18.556  1.00  0.00    -0.343 N
ATOM     26  H3  UNL     1      21.696  24.362  17.638  1.00  0.00     0.163 HD
BRANCH  25  27
HETATM   27  C17 UNL     1      22.410  24.040  19.640  1.00  0.00     0.173 C
HETATM   28  C18 UNL     1      23.281  22.800  19.662  1.00  0.00     0.042 C
BRANCH  27  29
HETATM   29  C19 UNL     1      23.252  25.215  19.403  1.00  0.00     0.246 C
HETATM   30  O5  UNL     1      23.898  25.736  20.387  1.00  0.00    -0.271 OA
HETATM   31  N4  UNL     1      23.435  25.863  18.135  1.00  0.00    -0.294 N
HETATM   32  C20 UNL     1      24.270  27.019  18.042  1.00  0.00     0.252 C
ATOM     33  H4  UNL     1      22.970  25.499  17.302  1.00  0.00     0.171 HD
HETATM   34  O6  UNL     1      24.811  27.465  19.058  1.00  0.00    -0.270 OA
BRANCH  32  35
HETATM   35  C21 UNL     1      24.501  27.706  16.732  1.00  0.00     0.114 C
HETATM   36  C24 UNL     1      25.063  26.753  15.721  1.00  0.00     0.041 C
HETATM   37  C25 UNL     1      26.513  27.073  15.524  1.00  0.00     0.003 C
HETATM   38  C26 UNL     1      26.783  28.388  16.185  1.00  0.00     0.003 C
HETATM   39  C27 UNL     1      25.537  28.801  16.898  1.00  0.00     0.041 C
BRANCH  35  40
HETATM   40  N5  UNL     1      23.252  28.242  16.234  1.00  0.00    -0.343 N
HETATM   41  C22 UNL     1      22.332  27.549  15.420  1.00  0.00     0.214 C
HETATM   42  C23 UNL     1      21.059  28.163  14.944  1.00  0.00     0.117 C
HETATM   43  O7  UNL     1      22.553  26.367  15.059  1.00  0.00    -0.274 OA
ATOM     44  H5  UNL     1      23.017  29.200  16.493  1.00  0.00     0.163 HD
ENDBRANCH  35  40
ENDBRANCH  32  35
ENDBRANCH  27  29
ENDBRANCH  25  27
ENDBRANCH   1  23
TORSDOF 12
ENDMDL