MODEL 2
REMARK VINA RESULT: -8.827331080      3.304      9.622
REMARK  12 active torsions:
REMARK  status: ('A' for Active; 'I' for Inactive)
REMARK    1  A    between atoms: N1_2  and  C2_5
REMARK    2  A    between atoms: C2_5  and  C3_6
REMARK       I    between atoms: C3_6  and  N2_8
REMARK       I    between atoms: N2_8  and  C4_10
REMARK    3  A    between atoms: C4_10  and  C5_12
REMARK    4  A    between atoms: C5_12  and  C6_13
REMARK    5  A    between atoms: C5_12  and  C12_21
REMARK    6  A    between atoms: C6_13  and  C7_14
REMARK       I    between atoms: C12_21  and  N4_23
REMARK    7  A    between atoms: C16_27  and  C17_28
REMARK       I    between atoms: C17_28  and  N5_30
REMARK    8  A    between atoms: N5_30  and  C18_32
REMARK    9  A    between atoms: C18_32  and  C19_33
REMARK   10  A    between atoms: C18_32  and  C23_37
REMARK   11  A    between atoms: C19_33  and  C20_34
REMARK   12  A    between atoms: C23_37  and  C24_39
ROOT
HETATM    1  C12 UNL     1      17.280  22.671  17.979  1.00  0.00     0.233 C
HETATM    2  O3  UNL     1      16.755  23.087  19.027  1.00  0.00    -0.272 OA
HETATM    3  N4  UNL     1      18.360  23.349  17.396  1.00  0.00    -0.337 N
HETATM    4  C13 UNL     1      19.104  23.107  16.207  1.00  0.00     0.132 C
HETATM    5  C14 UNL     1      19.770  24.393  15.838  1.00  0.00     0.019 A
HETATM    6  C15 UNL     1      19.450  25.412  16.920  1.00  0.00     0.032 A
HETATM    7  C16 UNL     1      18.976  24.543  18.017  1.00  0.00     0.184 C
HETATM    8  C25 UNL     1      18.882  25.540  15.583  1.00  0.00    -0.036 A
HETATM    9  C26 UNL     1      19.511  26.625  14.694  1.00  0.00     0.016 C
HETATM   10  C27 UNL     1      17.429  25.324  15.269  1.00  0.00     0.016 C
ENDROOT
BRANCH   1  11
HETATM   11  C5  UNL     1      16.666  21.388  17.403  1.00  0.00     0.170 C
BRANCH  11  12
HETATM   12  C4  UNL     1      15.511  21.751  16.580  1.00  0.00     0.237 C
HETATM   13  N2  UNL     1      14.685  20.720  15.988  1.00  0.00    -0.295 N
HETATM   14  C3  UNL     1      13.581  21.010  15.166  1.00  0.00     0.260 C
ATOM     15  H2  UNL     1      14.913  19.743  16.175  1.00  0.00     0.171 HD
HETATM   16  O1  UNL     1      13.275  22.198  14.929  1.00  0.00    -0.270 OA
HETATM   17  O2  UNL     1      15.145  22.924  16.327  1.00  0.00    -0.272 OA
BRANCH  14  18
HETATM   18  C2  UNL     1      12.779  19.908  14.577  1.00  0.00     0.205 A
HETATM   19  C28 UNL     1      11.746  19.319  15.447  1.00  0.00     0.052 A
HETATM   20  C29 UNL     1      11.345  20.185  14.259  1.00  0.00     0.052 A
BRANCH  18  21
HETATM   21  N1  UNL     1      13.458  19.102  13.587  1.00  0.00    -0.061 N
HETATM   22  C1  UNL     1      12.592  18.265  12.815  1.00  0.00     0.268 C
ATOM     23  H12 UNL     1      14.194  18.546  14.023  1.00  0.00     0.278 HD
ATOM     24  H11 UNL     1      14.023  19.690  12.974  1.00  0.00     0.278 HD
ENDBRANCH  18  21
ENDBRANCH  14  18
ENDBRANCH  11  12
BRANCH  11  25
HETATM   25  C6  UNL     1      16.478  20.434  18.516  1.00  0.00     0.030 C
BRANCH  25  26
HETATM   26  C7  UNL     1      15.172  19.880  18.860  1.00  0.00     0.004 C
HETATM   27  C8  UNL     1      14.938  18.427  18.941  1.00  0.00     0.008 C
HETATM   28  C9  UNL     1      13.533  18.143  19.546  1.00  0.00     0.020 C
HETATM   29  C10 UNL     1      13.667  18.460  21.025  1.00  0.00     0.113 C
HETATM   30  N3  UNL     1      14.727  19.410  21.228  1.00  0.00    -0.421 N
HETATM   31  C11 UNL     1      14.794  20.455  20.251  1.00  0.00     0.118 C
ATOM     32  H3  UNL     1      15.381  19.344  22.009  1.00  0.00     0.153 HD
ENDBRANCH  25  26
ENDBRANCH  11  25
ENDBRANCH   1  11
BRANCH   7  33
HETATM   33  C17 UNL     1      20.188  24.048  18.757  1.00  0.00     0.241 C
HETATM   34  O4  UNL     1      20.314  22.868  19.158  1.00  0.00    -0.271 OA
HETATM   35  N5  UNL     1      21.270  24.942  19.044  1.00  0.00    -0.347 N
ATOM     36  H5  UNL     1      21.197  25.914  18.741  1.00  0.00     0.163 HD
BRANCH  35  37
HETATM   37  C18 UNL     1      22.474  24.518  19.750  1.00  0.00     0.164 C
BRANCH  37  38
HETATM   38  C19 UNL     1      22.283  24.760  21.247  1.00  0.00     0.038 C
BRANCH  38  39
HETATM   39  C20 UNL     1      21.356  25.873  21.578  1.00  0.00    -0.012 A
HETATM   40  C21 UNL     1      21.854  26.691  22.790  1.00  0.00     0.005 A
HETATM   41  C22 UNL     1      21.696  27.308  21.432  1.00  0.00     0.005 A
ENDBRANCH  38  39
ENDBRANCH  37  38
BRANCH  37  42
HETATM   42  C23 UNL     1      23.714  25.042  19.213  1.00  0.00     0.236 C
HETATM   43  O5  UNL     1      24.761  24.314  19.163  1.00  0.00    -0.285 OA
BRANCH  42  44
HETATM   44  C24 UNL     1      23.848  26.386  18.712  1.00  0.00     0.302 C
HETATM   45  N6  UNL     1      23.157  26.864  17.560  1.00  0.00    -0.054 NA
HETATM   46  O6  UNL     1      24.618  27.199  19.314  1.00  0.00    -0.268 OA
ENDBRANCH  42  44
ENDBRANCH  37  42
ENDBRANCH  35  37
ENDBRANCH   7  33
TORSDOF 12
ENDMDL