MODEL 1
REMARK VINA RESULT: -8.711299314      0.000      0.000
REMARK  14 active torsions:
REMARK  status: ('A' for Active; 'I' for Inactive)
REMARK    1  A    between atoms: O1_2  and  C2_3
REMARK    2  A    between atoms: C2_3  and  C3_5
REMARK    3  A    between atoms: C3_5  and  N1_6
REMARK    4  A    between atoms: C3_5  and  C24_38
REMARK       I    between atoms: N1_6  and  C4_8
REMARK    5  A    between atoms: C4_8  and  C5_10
REMARK    6  A    between atoms: C5_10  and  C6_11
REMARK    7  A    between atoms: C5_10  and  N2_18
REMARK    8  A    between atoms: C6_11  and  C7_12
REMARK       I    between atoms: N2_18  and  C13_20
REMARK    9  A    between atoms: C13_20  and  C14_22
REMARK   10  A    between atoms: C14_22  and  N3_23
REMARK   11  A    between atoms: C14_22  and  C21_35
REMARK       I    between atoms: N3_23  and  C15_25
REMARK   12  A    between atoms: C15_25  and  C16_27
REMARK       I    between atoms: C16_27  and  N4_29
REMARK   13  A    between atoms: N4_29  and  C17_31
REMARK   14  A    between atoms: C24_38  and  N5_40
ROOT
HETATM    1  C5  UNL     1      11.967  20.035  15.539  1.00  0.00     0.177 C
ENDROOT
BRANCH   1   2
HETATM    2  C4  UNL     1      10.895  18.998  15.259  1.00  0.00     0.241 C
HETATM    3  N1  UNL     1      11.158  17.646  15.085  1.00  0.00    -0.343 N
ATOM      4  H1  UNL     1      12.134  17.356  15.147  1.00  0.00     0.163 HD
HETATM    5  O3  UNL     1       9.694  19.391  15.185  1.00  0.00    -0.271 OA
BRANCH   3   6
HETATM    6  C3  UNL     1      10.186  16.608  14.825  1.00  0.00     0.217 C
BRANCH   6   7
HETATM    7  C2  UNL     1      10.564  15.696  13.757  1.00  0.00     0.283 C
HETATM    8  O2  UNL     1       9.789  15.201  12.900  1.00  0.00    -0.263 OA
BRANCH   7   9
HETATM    9  O1  UNL     1      11.906  15.331  13.669  1.00  0.00    -0.325 OA
HETATM   10  C1  UNL     1      12.737  15.644  12.572  1.00  0.00     0.213 C
ENDBRANCH   7   9
ENDBRANCH   6   7
BRANCH   6  11
HETATM   11  C24 UNL     1       9.910  15.818  16.102  1.00  0.00     0.251 C
HETATM   12  C25 UNL     1      11.253  15.887  16.857  1.00  0.00     0.045 C
BRANCH  11  13
HETATM   13  N5  UNL     1       9.619  14.456  15.885  1.00  0.00     0.099 N
HETATM   14  C26 UNL     1      10.294  13.638  16.904  1.00  0.00     0.299 C
HETATM   15  C27 UNL     1       9.645  13.769  18.258  1.00  0.00     0.198 C
HETATM   16  O7  UNL     1       8.317  13.319  18.183  1.00  0.00    -0.388 OA
HETATM   17  C28 UNL     1       7.672  14.252  17.358  1.00  0.00     0.198 C
HETATM   18  C29 UNL     1       8.245  14.040  15.961  1.00  0.00     0.299 C
ENDBRANCH  11  13
ENDBRANCH   6  11
ENDBRANCH   3   6
ENDBRANCH   1   2
BRANCH   1  19
HETATM   19  C6  UNL     1      11.639  21.334  14.911  1.00  0.00     0.039 C
BRANCH  19  20
HETATM   20  C7  UNL     1      12.724  21.993  14.133  1.00  0.00    -0.012 C
HETATM   21  C8  UNL     1      13.487  23.048  14.882  1.00  0.00     0.005 C
HETATM   22  C9  UNL     1      14.773  22.477  15.481  1.00  0.00     0.000 C
HETATM   23  C10 UNL     1      15.738  22.019  14.439  1.00  0.00     0.000 C
HETATM   24  C11 UNL     1      14.940  21.614  13.202  1.00  0.00     0.000 C
HETATM   25  C12 UNL     1      13.715  20.880  13.752  1.00  0.00     0.005 C
ENDBRANCH  19  20
ENDBRANCH   1  19
BRANCH   1  26
HETATM   26  N2  UNL     1      12.137  20.170  16.975  1.00  0.00    -0.346 N
HETATM   27  C13 UNL     1      13.332  19.834  17.647  1.00  0.00     0.241 C
HETATM   28  O4  UNL     1      14.264  19.394  16.878  1.00  0.00    -0.271 OA
ATOM     29  H2  UNL     1      11.355  20.526  17.525  1.00  0.00     0.163 HD
BRANCH  27  30
HETATM   30  C14 UNL     1      13.592  19.935  19.086  1.00  0.00     0.180 C
BRANCH  30  31
HETATM   31  N3  UNL     1      14.975  20.320  19.267  1.00  0.00    -0.339 N
HETATM   32  C15 UNL     1      15.489  21.632  19.181  1.00  0.00     0.310 C
HETATM   33  O5  UNL     1      14.750  22.613  18.930  1.00  0.00    -0.262 OA
ATOM     34  H3  UNL     1      15.639  19.575  19.476  1.00  0.00     0.163 HD
BRANCH  32  35
HETATM   35  C16 UNL     1      16.914  21.901  19.383  1.00  0.00     0.309 C
HETATM   36  O6  UNL     1      17.753  20.988  19.073  1.00  0.00    -0.262 OA
HETATM   37  N4  UNL     1      17.387  23.118  19.899  1.00  0.00    -0.345 N
ATOM     38  H4  UNL     1      16.726  23.852  20.152  1.00  0.00     0.163 HD
BRANCH  37  39
HETATM   39  C17 UNL     1      18.827  23.340  20.077  1.00  0.00     0.022 C
HETATM   40  C18 UNL     1      19.407  23.963  18.803  1.00  0.00     0.037 C
HETATM   41  C19 UNL     1      19.541  22.060  20.349  1.00  0.00     0.037 C
HETATM   42  C20 UNL     1      19.043  24.269  21.258  1.00  0.00     0.037 C
ENDBRANCH  37  39
ENDBRANCH  32  35
ENDBRANCH  30  31
BRANCH  30  43
HETATM   43  C21 UNL     1      13.372  18.694  19.883  1.00  0.00     0.009 C
HETATM   44  C22 UNL     1      11.925  18.269  19.924  1.00  0.00     0.012 C
HETATM   45  C23 UNL     1      14.046  18.653  21.224  1.00  0.00     0.012 C
ENDBRANCH  30  43
ENDBRANCH  27  30
ENDBRANCH   1  26
TORSDOF 14
ENDMDL