MODEL 4
REMARK VINA RESULT: -5.294353285      6.245      8.938
REMARK  2 active torsions:
REMARK  status: ('A' for Active; 'I' for Inactive)
REMARK    1  A    between atoms: C4_19  and  O4_20
REMARK    2  A    between atoms: O4_20  and  S3_21
ROOT
HETATM    1  C1  UNL     1      29.135  16.241  48.335  1.00  0.00     0.182 C
HETATM    2  N1  UNL     1      28.385  16.042  47.100  1.00  0.00    -0.245 N
HETATM    3  N2  UNL     1      29.182  15.558  46.056  1.00  0.00    -0.123 N
ATOM      4  H2  UNL     1      30.091  15.227  46.379  1.00  0.00     0.206 HD
HETATM    5  C2  UNL     1      29.019  15.419  44.649  1.00  0.00     0.741 A
HETATM    6  N3  UNL     1      30.098  15.287  43.858  1.00  0.00    -0.126 N
ATOM      7  H3  UNL     1      31.061  15.279  44.195  1.00  0.00     0.206 HD
HETATM    8  N4  UNL     1      29.750  15.171  42.587  1.00  0.00    -0.259 N
ATOM      9  H4  UNL     1      30.372  15.059  41.786  1.00  0.00     0.190 HD
HETATM   10  C3  UNL     1      28.408  15.230  42.568  1.00  0.00     0.237 A
HETATM   11  S1  UNL     1      27.452  15.134  41.237  1.00  0.00    -0.036 SA
HETATM   12  N5  UNL     1      27.958  15.382  43.831  1.00  0.00    -0.001 N
HETATM   13  O1  UNL     1      26.600  15.462  44.019  1.00  0.00    -0.109 OA
HETATM   14  S2  UNL     1      25.509  15.220  45.288  1.00  0.00     0.386 S
HETATM   15  O2  UNL     1      25.468  13.767  45.702  1.00  0.00    -0.173 OA
HETATM   16  O3  UNL     1      24.141  15.615  44.813  1.00  0.00    -0.173 OA
HETATM   17  N6  UNL     1      25.935  16.139  46.685  1.00  0.00    -0.223 N
ATOM     18  H6  UNL     1      25.123  16.575  47.121  1.00  0.00     0.184 HD
HETATM   19  C4  UNL     1      27.020  16.407  47.309  1.00  0.00     0.268 C
ENDROOT
BRANCH  19  20
HETATM   20  O4  UNL     1      26.775  17.213  48.397  1.00  0.00    -0.182 OA
BRANCH  20  21
HETATM   21  S3  UNL     1      26.056  18.768  48.238  1.00  0.00     0.408 S
HETATM   22  O5  UNL     1      26.443  19.430  46.971  1.00  0.00    -0.179 OA
HETATM   23  O6  UNL     1      24.569  18.683  48.296  1.00  0.00    -0.179 OA
ENDBRANCH  20  21
ENDBRANCH  19  20
TORSDOF 2
ENDMDL