MODEL 5
REMARK VINA RESULT: -6.772507182      1.099      1.117
REMARK  3 active torsions:
REMARK  status: ('A' for Active; 'I' for Inactive)
REMARK    1  A    between atoms: C2_3  and  O1_4
REMARK    2  A    between atoms: N2_9  and  O2_10
REMARK    3  A    between atoms: C8_15  and  N3_16
ROOT
HETATM    1  C1  UNL     1      29.978  17.863  52.427  1.00  0.00     0.161 C
HETATM    2  N1  UNL     1      28.676  18.232  51.827  1.00  0.00    -0.296 N
HETATM    3  C2  UNL     1      27.717  18.772  52.644  1.00  0.00     0.158 A
HETATM    4  C3  UNL     1      26.516  19.117  52.107  1.00  0.00     0.062 A
HETATM    5  C4  UNL     1      25.518  19.659  52.912  1.00  0.00     0.080 A
HETATM    6  C5  UNL     1      24.290  19.993  52.328  1.00  0.00     0.096 A
HETATM    7  N2  UNL     1      24.088  19.789  51.000  1.00  0.00    -0.187 N
HETATM    8  C6  UNL     1      25.035  19.270  50.220  1.00  0.00     0.285 A
HETATM    9  O3  UNL     1      24.825  19.085  48.985  1.00  0.00    -0.265 OA
HETATM   10  C7  UNL     1      26.258  18.924  50.733  1.00  0.00     0.090 A
HETATM   11  C8  UNL     1      27.237  18.383  49.935  1.00  0.00     0.187 A
HETATM   12  C9  UNL     1      28.436  18.052  50.538  1.00  0.00     0.283 A
HETATM   13  O6  UNL     1      29.344  17.553  49.825  1.00  0.00    -0.265 OA
HETATM   14  C10 UNL     1      23.204  20.571  53.125  1.00  0.00     0.242 A
HETATM   15  O7  UNL     1      23.460  20.747  54.480  1.00  0.00    -0.298 OA
HETATM   16  C11 UNL     1      24.660  20.422  55.054  1.00  0.00     0.365 A
HETATM   17  O8  UNL     1      24.837  20.610  56.277  1.00  0.00    -0.238 OA
HETATM   18  N4  UNL     1      25.745  19.859  54.281  1.00  0.00    -0.300 N
ATOM     19  H4  UNL     1      26.636  19.617  54.713  1.00  0.00     0.171 HD
ENDROOT
BRANCH  11  20
HETATM   20  N3  UNL     1      27.071  18.146  48.529  1.00  0.00    -0.109 N
HETATM   21  O4  UNL     1      27.360  19.030  47.715  1.00  0.00    -0.532 OA
HETATM   22  O5  UNL     1      26.633  16.938  48.053  1.00  0.00    -0.532 OA
ENDBRANCH  11  20
BRANCH   3  23
HETATM   23  O1  UNL     1      28.067  18.919  53.962  1.00  0.00    -0.345 OA
ATOM     24  H1  UNL     1      27.362  19.155  54.554  1.00  0.00     0.219 HD
ENDBRANCH   3  23
BRANCH   7  25
HETATM   25  O2  UNL     1      22.873  20.125  50.457  1.00  0.00    -0.280 OA
ATOM     26  H2  UNL     1      22.158  19.503  50.516  1.00  0.00     0.245 HD
ENDBRANCH   7  25
TORSDOF 3
ENDMDL