MODEL 1
REMARK VINA RESULT: -7.178730037      0.000      0.000
REMARK  3 active torsions:
REMARK  status: ('A' for Active; 'I' for Inactive)
REMARK    1  A    between atoms: C2_5  and  C3_6
REMARK    2  A    between atoms: C6_15  and  N6_16
REMARK    3  A    between atoms: C10_29  and  N9_30
ROOT
HETATM    1  C3  UNL     1      23.201  20.402  52.690  1.00  0.00     0.185 A
HETATM    2  N3  UNL     1      24.417  19.982  53.082  1.00  0.00    -0.318 N
ATOM      3  H3  UNL     1      24.770  19.992  54.039  1.00  0.00     0.169 HD
HETATM    4  C4  UNL     1      25.090  19.547  52.001  1.00  0.00     0.163 A
HETATM    5  N4  UNL     1      26.332  19.036  51.867  1.00  0.00    -0.172 N
ATOM      6  H4  UNL     1      26.940  18.921  52.677  1.00  0.00     0.186 HD
HETATM    7  C5  UNL     1      26.745  18.682  50.643  1.00  0.00     0.712 A
HETATM    8  N5  UNL     1      27.989  18.159  50.446  1.00  0.00    -0.021 N
ATOM      9  H5  UNL     1      28.600  18.044  51.256  1.00  0.00     0.203 HD
HETATM   10  C6  UNL     1      28.449  17.789  49.245  1.00  0.00     0.694 A
HETATM   11  N7  UNL     1      27.635  17.947  48.190  1.00  0.00    -0.140 N
ATOM     12  H7  UNL     1      27.951  17.677  47.259  1.00  0.00     0.189 HD
HETATM   13  C7  UNL     1      26.409  18.457  48.358  1.00  0.00     0.362 A
HETATM   14  O1  UNL     1      25.657  18.600  47.370  1.00  0.00    -0.245 OA
HETATM   15  N8  UNL     1      25.938  18.835  49.582  1.00  0.00    -0.055 N
HETATM   16  C8  UNL     1      24.697  19.342  49.685  1.00  0.00     0.308 A
HETATM   17  O2  UNL     1      23.928  19.491  48.700  1.00  0.00    -0.264 OA
HETATM   18  C9  UNL     1      24.244  19.714  50.926  1.00  0.00     0.191 A
HETATM   19  O3  UNL     1      23.139  20.227  51.417  1.00  0.00    -0.281 OA
ENDROOT
BRANCH   1  20
HETATM   20  C2  UNL     1      22.191  20.946  53.615  1.00  0.00     0.144 A
HETATM   21  N2  UNL     1      21.569  22.112  53.624  1.00  0.00    -0.286 N
HETATM   22  N1  UNL     1      20.718  22.380  54.531  1.00  0.00    -0.275 N
ATOM     23  H2  UNL     1      21.773  22.801  52.900  1.00  0.00     0.188 HD
HETATM   24  C1  UNL     1      20.003  23.676  54.569  1.00  0.00     0.180 C
HETATM   25  C10 UNL     1      20.468  21.464  55.468  1.00  0.00     0.161 A
HETATM   26  S1  UNL     1      21.514  20.192  54.986  1.00  0.00    -0.029 SA
BRANCH  25  27
HETATM   27  N9  UNL     1      19.633  21.545  56.479  1.00  0.00    -0.378 N
ATOM     28  H92 UNL     1      19.464  20.900  57.250  1.00  0.00     0.158 HD
ATOM     29  H91 UNL     1      18.970  22.291  56.692  1.00  0.00     0.158 HD
ENDBRANCH  25  27
ENDBRANCH   1  20
BRANCH  10  30
HETATM   30  N6  UNL     1      29.628  17.298  49.081  1.00  0.00    -0.234 N
ATOM     31  H62 UNL     1      29.856  16.380  49.464  1.00  0.00     0.174 HD
ATOM     32  H61 UNL     1      30.360  17.795  48.574  1.00  0.00     0.174 HD
ENDBRANCH  10  30
TORSDOF 3
ENDMDL