MODEL 3
REMARK VINA RESULT: -7.001043448      2.328      7.856
REMARK  3 active torsions:
REMARK  status: ('A' for Active; 'I' for Inactive)
REMARK    1  A    between atoms: O1_2  and  C2_3
REMARK    2  A    between atoms: C2_3  and  O2_4
REMARK    3  A    between atoms: N8_29  and  O4_30
ROOT
HETATM    1  C2  UNL     1      21.574  21.348  54.511  1.00  0.00     0.311 C
HETATM    2  C4  UNL     1      22.745  20.772  53.679  1.00  0.00     0.111 A
HETATM    3  N1  UNL     1      22.888  20.493  52.480  1.00  0.00    -0.337 N
ATOM      4  H1  UNL     1      22.117  20.636  51.828  1.00  0.00     0.167 HD
HETATM    5  C5  UNL     1      24.140  19.967  52.008  1.00  0.00     0.151 A
HETATM    6  N2  UNL     1      24.327  19.665  50.771  1.00  0.00    -0.332 N
ATOM      7  H2  UNL     1      23.568  19.802  50.105  1.00  0.00     0.168 HD
HETATM    8  C6  UNL     1      25.560  19.150  50.314  1.00  0.00     0.147 A
HETATM    9  C7  UNL     1      26.600  18.955  51.194  1.00  0.00     0.141 A
HETATM   10  N3  UNL     1      27.749  18.463  50.708  1.00  0.00    -0.330 N
ATOM     11  H3  UNL     1      28.526  18.315  51.352  1.00  0.00     0.168 HD
HETATM   12  C8  UNL     1      27.923  18.156  49.412  1.00  0.00     0.081 A
HETATM   13  C9  UNL     1      29.221  17.608  48.908  1.00  0.00     0.089 C
HETATM   14  N4  UNL     1      26.892  18.353  48.568  1.00  0.00    -0.311 N
ATOM     15  H4  UNL     1      27.022  18.120  47.583  1.00  0.00     0.170 HD
HETATM   16  C10 UNL     1      25.701  18.842  48.955  1.00  0.00     0.277 A
HETATM   17  O3  UNL     1      24.745  19.020  48.148  1.00  0.00    -0.266 OA
HETATM   18  N5  UNL     1      26.413  19.281  52.562  1.00  0.00    -0.324 N
ATOM     19  H5  UNL     1      27.179  19.141  53.221  1.00  0.00     0.169 HD
HETATM   20  C11 UNL     1      25.164  19.805  53.032  1.00  0.00     0.149 A
HETATM   21  N6  UNL     1      24.964  20.101  54.262  1.00  0.00    -0.349 N
ATOM     22  H6  UNL     1      25.731  19.968  54.921  1.00  0.00     0.163 HD
HETATM   23  C12 UNL     1      23.755  20.596  54.751  1.00  0.00     0.248 A
HETATM   24  N7  UNL     1      23.706  21.936  55.291  1.00  0.00    -0.102 NA
HETATM   25  N8  UNL     1      22.338  22.046  55.552  1.00  0.00    -0.039 NA
ENDROOT
BRANCH   1  26
HETATM   26  O1  UNL     1      20.958  20.238  54.974  1.00  0.00    -0.340 OA
HETATM   27  C1  UNL     1      19.645  20.097  55.124  1.00  0.00     0.207 C
ENDBRANCH   1  26
BRANCH   1  28
HETATM   28  O2  UNL     1      20.968  22.194  53.666  1.00  0.00    -0.340 OA
HETATM   29  C3  UNL     1      20.650  23.456  53.921  1.00  0.00     0.207 C
ENDBRANCH   1  28
BRANCH  25  30
HETATM   30  O4  UNL     1      22.036  21.635  56.789  1.00  0.00    -0.292 OA
ATOM     31  H4  UNL     1      21.379  20.949  56.804  1.00  0.00     0.239 HD
ENDBRANCH  25  30
TORSDOF 3
ENDMDL