MODEL 4
REMARK VINA RESULT: -6.960744095      1.281      5.043
REMARK  4 active torsions:
REMARK  status: ('A' for Active; 'I' for Inactive)
REMARK    1  A    between atoms: C8_15  and  O5_16
REMARK    2  A    between atoms: C9_18  and  O6_19
REMARK    3  A    between atoms: C10_21  and  O7_22
REMARK    4  A    between atoms: C11_24  and  N2_25
ROOT
HETATM    1  N1  UNL     1      27.658  17.307  52.245  1.00  0.00    -0.395 N
ATOM      2  H11 UNL     1      27.222  17.274  53.166  1.00  0.00     0.156 HD
ATOM      3  H12 UNL     1      28.399  16.804  51.755  1.00  0.00     0.156 HD
HETATM    4  C1  UNL     1      27.141  18.203  51.529  1.00  0.00     0.094 C
HETATM    5  C2  UNL     1      27.775  18.251  50.194  1.00  0.00     0.253 C
HETATM    6  O1  UNL     1      28.953  17.889  50.151  1.00  0.00    -0.281 OA
HETATM    7  C3  UNL     1      27.201  18.670  48.901  1.00  0.00     0.277 C
HETATM    8  O2  UNL     1      28.044  18.776  47.998  1.00  0.00    -0.280 OA
HETATM    9  C4  UNL     1      25.846  18.995  48.428  1.00  0.00     0.275 C
HETATM   10  O3  UNL     1      25.759  19.051  47.178  1.00  0.00    -0.280 OA
HETATM   11  C5  UNL     1      24.635  19.251  49.189  1.00  0.00     0.226 C
HETATM   12  O4  UNL     1      23.642  19.100  48.381  1.00  0.00    -0.284 OA
HETATM   13  C6  UNL     1      24.138  19.603  50.485  1.00  0.00     0.074 C
HETATM   14  C7  UNL     1      24.913  19.456  51.686  1.00  0.00     0.019 A
HETATM   15  C8  UNL     1      24.106  20.150  52.609  1.00  0.00     0.113 A
HETATM   16  C9  UNL     1      24.436  20.290  53.921  1.00  0.00     0.136 A
HETATM   17  C10 UNL     1      25.580  19.749  54.384  1.00  0.00     0.136 A
HETATM   18  C11 UNL     1      26.467  19.027  53.532  1.00  0.00     0.152 A
HETATM   19  C12 UNL     1      26.088  18.918  52.226  1.00  0.00     0.043 A
ENDROOT
BRANCH  18  20
HETATM   20  N2  UNL     1      27.595  18.466  54.097  1.00  0.00    -0.112 N
HETATM   21  O8  UNL     1      28.686  19.016  54.056  1.00  0.00    -0.532 OA
HETATM   22  O9  UNL     1      27.568  17.307  54.776  1.00  0.00    -0.532 OA
ENDBRANCH  18  20
BRANCH  15  23
HETATM   23  O5  UNL     1      22.918  20.716  52.150  1.00  0.00    -0.357 OA
ATOM     24  H5  UNL     1      22.221  20.868  52.777  1.00  0.00     0.217 HD
ENDBRANCH  15  23
BRANCH  17  25
HETATM   25  O7  UNL     1      25.993  19.844  55.706  1.00  0.00    -0.356 OA
ATOM     26  H7  UNL     1      25.843  20.609  56.249  1.00  0.00     0.218 HD
ENDBRANCH  17  25
BRANCH  16  27
HETATM   27  O6  UNL     1      23.641  20.981  54.862  1.00  0.00    -0.356 OA
ATOM     28  H6  UNL     1      23.907  21.786  55.289  1.00  0.00     0.218 HD
ENDBRANCH  16  27
TORSDOF 4
ENDMDL