MODEL 5
REMARK VINA RESULT: -5.140041063      8.177     10.924
REMARK  4 active torsions:
REMARK  status: ('A' for Active; 'I' for Inactive)
REMARK    1  A    between atoms: C3_5  and  N2_6
REMARK    2  A    between atoms: N5_11  and  O1_12
REMARK    3  A    between atoms: O1_12  and  N6_13
REMARK    4  A    between atoms: C5_19  and  S1_20
ROOT
HETATM    1  C1  UNL     1      24.830  19.345  50.349  1.00  0.00     0.093 C
HETATM    2  C2  UNL     1      26.232  18.920  50.591  1.00  0.00     0.138 A
HETATM    3  N1  UNL     1      26.940  19.152  51.711  1.00  0.00    -0.175 N
ATOM      4  H1  UNL     1      26.600  19.650  52.533  1.00  0.00     0.185 HD
HETATM    5  C3  UNL     1      28.170  18.621  51.572  1.00  0.00     0.706 A
HETATM    6  N3  UNL     1      28.208  18.068  50.369  1.00  0.00    -0.033 N
HETATM    7  N4  UNL     1      27.044  18.244  49.770  1.00  0.00    -0.126 N
HETATM    8  N5  UNL     1      26.654  17.814  48.478  1.00  0.00    -0.093 N
HETATM    9  C4  UNL     1      27.169  16.806  47.653  1.00  0.00     0.182 A
HETATM   10  N7  UNL     1      26.660  16.569  46.429  1.00  0.00    -0.314 N
ATOM     11  H7  UNL     1      25.886  17.074  45.999  1.00  0.00     0.170 HD
HETATM   12  C5  UNL     1      27.347  15.551  45.867  1.00  0.00     0.204 A
HETATM   13  N8  UNL     1      28.266  15.173  46.742  1.00  0.00    -0.332 N
ATOM     14  H8  UNL     1      28.937  14.419  46.594  1.00  0.00     0.168 HD
HETATM   15  C7  UNL     1      28.187  15.926  47.860  1.00  0.00     0.071 A
HETATM   16  C8  UNL     1      29.095  15.711  48.988  1.00  0.00     0.161 C
HETATM   17  S2  UNL     1      29.657  17.245  49.764  1.00  0.00    -0.004 SA
ENDROOT
BRANCH   8  18
HETATM   18  O1  UNL     1      25.606  18.523  48.000  1.00  0.00    -0.137 OA
BRANCH  18  19
HETATM   19  N6  UNL     1      26.130  19.534  47.263  1.00  0.00    -0.284 N
ATOM     20  H62 UNL     1      26.583  20.371  47.631  1.00  0.00     0.186 HD
ATOM     21  H61 UNL     1      25.980  19.287  46.284  1.00  0.00     0.186 HD
ENDBRANCH  18  19
ENDBRANCH   8  18
BRANCH   5  22
HETATM   22  N2  UNL     1      29.080  18.692  52.503  1.00  0.00    -0.232 N
ATOM     23  H22 UNL     1      29.388  17.999  53.185  1.00  0.00     0.174 HD
ATOM     24  H21 UNL     1      29.640  19.529  52.667  1.00  0.00     0.174 HD
ENDBRANCH   5  22
BRANCH  12  25
HETATM   25  S1  UNL     1      27.050  14.880  44.273  1.00  0.00     0.203 S
HETATM   26  C6  UNL     1      27.560  13.172  44.271  1.00  0.00     0.170 C
HETATM   27  O2  UNL     1      25.576  14.966  43.976  1.00  0.00    -0.220 OA
HETATM   28  O3  UNL     1      27.838  15.647  43.250  1.00  0.00    -0.220 OA
ENDBRANCH  12  25
TORSDOF 4
ENDMDL