MODEL 4
REMARK VINA RESULT: -6.539857708      1.236      3.500
REMARK  6 active torsions:
REMARK  status: ('A' for Active; 'I' for Inactive)
REMARK    1  A    between atoms: C2_2  and  O2_4
REMARK    2  A    between atoms: O2_4  and  C3_5
REMARK    3  A    between atoms: C7_11  and  O5_12
REMARK    4  A    between atoms: C8_14  and  O6_15
REMARK    5  A    between atoms: C9_17  and  O7_18
REMARK    6  A    between atoms: C11_22  and  O9_23
ROOT
HETATM    1  C3  UNL     1      24.524  20.264  54.150  1.00  0.00     0.284 C
HETATM    2  C4  UNL     1      25.814  19.553  54.342  1.00  0.00     0.236 C
HETATM    3  O3  UNL     1      26.211  19.419  55.543  1.00  0.00    -0.285 OA
HETATM    4  C5  UNL     1      26.584  19.037  53.219  1.00  0.00     0.234 C
HETATM    5  O4  UNL     1      27.732  18.547  53.385  1.00  0.00    -0.283 OA
HETATM    6  C6  UNL     1      26.049  19.073  51.866  1.00  0.00     0.071 C
HETATM    7  C7  UNL     1      26.916  18.539  50.912  1.00  0.00     0.117 C
HETATM    8  C8  UNL     1      26.892  18.666  49.539  1.00  0.00     0.137 C
HETATM    9  C9  UNL     1      25.740  18.818  48.781  1.00  0.00     0.155 C
HETATM   10  C10 UNL     1      24.469  19.210  49.180  1.00  0.00     0.241 C
HETATM   11  O8  UNL     1      23.530  19.103  48.345  1.00  0.00    -0.282 OA
HETATM   12  C11 UNL     1      24.137  19.715  50.434  1.00  0.00     0.134 C
HETATM   13  C12 UNL     1      24.802  19.602  51.654  1.00  0.00     0.067 C
HETATM   14  C13 UNL     1      24.012  20.124  52.768  1.00  0.00     0.200 C
HETATM   15  O10 UNL     1      22.829  20.477  52.540  1.00  0.00    -0.289 OA
ENDROOT
BRANCH   1  16
HETATM   16  O2  UNL     1      23.565  19.756  55.082  1.00  0.00    -0.300 OA
BRANCH  16  17
HETATM   17  C2  UNL     1      22.960  20.629  55.967  1.00  0.00     0.256 C
HETATM   18  C1  UNL     1      23.276  22.099  55.971  1.00  0.00     0.126 C
HETATM   19  O1  UNL     1      22.125  20.155  56.778  1.00  0.00    -0.266 OA
ENDBRANCH  16  17
ENDBRANCH   1  16
BRANCH  12  20
HETATM   20  O9  UNL     1      22.975  20.442  50.492  1.00  0.00    -0.356 OA
ATOM     21  H9  UNL     1      22.947  21.119  51.158  1.00  0.00     0.218 HD
ENDBRANCH  12  20
BRANCH   7  22
HETATM   22  O5  UNL     1      27.936  17.781  51.410  1.00  0.00    -0.357 OA
ATOM     23  H5  UNL     1      27.795  17.435  52.283  1.00  0.00     0.217 HD
ENDBRANCH   7  22
BRANCH   8  24
HETATM   24  O6  UNL     1      28.059  18.650  48.811  1.00  0.00    -0.356 OA
ATOM     25  H6  UNL     1      28.041  18.550  47.867  1.00  0.00     0.218 HD
ENDBRANCH   8  24
BRANCH   9  26
HETATM   26  O7  UNL     1      25.851  18.545  47.431  1.00  0.00    -0.355 OA
ATOM     27  H7  UNL     1      25.293  19.048  46.850  1.00  0.00     0.218 HD
ENDBRANCH   9  26
TORSDOF 6
ENDMDL