MODEL 2
REMARK VINA RESULT: -6.692650303      2.090      2.615
REMARK  5 active torsions:
REMARK  status: ('A' for Active; 'I' for Inactive)
REMARK    1  A    between atoms: S1_2  and  C2_3
REMARK    2  A    between atoms: C5_10  and  N3_11
REMARK    3  A    between atoms: N3_11  and  C6_13
REMARK    4  A    between atoms: C7_16  and  N5_17
REMARK    5  A    between atoms: N8_27  and  O1_28
ROOT
HETATM    1  C6  UNL     1      23.229  20.422  53.436  1.00  0.00     0.714 A
HETATM    2  N4  UNL     1      22.798  20.428  52.159  1.00  0.00    -0.174 N
ATOM      3  H4  UNL     1      21.857  20.763  51.951  1.00  0.00     0.186 HD
HETATM    4  C7  UNL     1      23.592  19.999  51.142  1.00  0.00     0.130 A
HETATM    5  C8  UNL     1      24.848  19.563  51.505  1.00  0.00     0.073 A
HETATM    6  C9  UNL     1      25.922  19.059  50.770  1.00  0.00     0.126 A
HETATM    7  N6  UNL     1      26.909  18.789  51.645  1.00  0.00    -0.307 N
ATOM      8  H6  UNL     1      27.820  18.408  51.388  1.00  0.00     0.186 HD
HETATM    9  N7  UNL     1      26.546  19.080  52.873  1.00  0.00    -0.278 N
HETATM   10  C10 UNL     1      27.370  18.907  54.032  1.00  0.00     0.179 C
HETATM   11  C11 UNL     1      25.285  19.556  52.808  1.00  0.00     0.183 A
HETATM   12  N8  UNL     1      24.467  19.987  53.757  1.00  0.00    -0.033 N
ENDROOT
BRANCH   1  13
HETATM   13  N3  UNL     1      22.506  20.821  54.423  1.00  0.00    -0.169 N
ATOM     14  H3  UNL     1      22.510  20.234  55.257  1.00  0.00     0.186 HD
BRANCH  13  15
HETATM   15  C5  UNL     1      21.713  21.977  54.475  1.00  0.00     0.183 C
HETATM   16  N2  UNL     1      20.898  22.218  53.486  1.00  0.00    -0.286 N
HETATM   17  N1  UNL     1      20.100  23.364  53.522  1.00  0.00    -0.333 N
ATOM     18  H2  UNL     1      20.844  21.576  52.696  1.00  0.00     0.188 HD
HETATM   19  C4  UNL     1      20.688  24.575  54.064  1.00  0.00     0.168 C
ATOM     20  H1  UNL     1      19.139  23.351  53.180  1.00  0.00     0.180 HD
HETATM   21  C2  UNL     1      21.258  24.340  55.426  1.00  0.00     0.089 C
HETATM   22  C3  UNL     1      20.234  24.652  56.520  1.00  0.00     0.037 C
HETATM   23  C12 UNL     1      21.719  22.958  55.568  1.00  0.00     0.214 C
HETATM   24  O2  UNL     1      22.151  22.558  56.686  1.00  0.00    -0.287 OA
BRANCH  21  25
HETATM   25  S1  UNL     1      22.695  25.455  55.608  1.00  0.00    -0.154 SA
HETATM   26  C1  UNL     1      22.608  26.180  57.269  1.00  0.00     0.091 C
ENDBRANCH  21  25
ENDBRANCH  13  15
ENDBRANCH   1  13
BRANCH  12  27
HETATM   27  O1  UNL     1      24.917  19.976  55.061  1.00  0.00    -0.268 OA
ATOM     28  H1  UNL     1      25.824  20.152  55.278  1.00  0.00     0.246 HD
ENDBRANCH  12  27
BRANCH   4  29
HETATM   29  N5  UNL     1      23.216  19.991  49.908  1.00  0.00    -0.384 N
ATOM     30  H52 UNL     1      22.227  20.018  49.660  1.00  0.00     0.157 HD
ATOM     31  H51 UNL     1      23.870  19.958  49.126  1.00  0.00     0.157 HD
ENDBRANCH   4  29
TORSDOF 5
ENDMDL