MODEL 4
REMARK VINA RESULT: -5.876908325      4.514      8.250
REMARK  5 active torsions:
REMARK  status: ('A' for Active; 'I' for Inactive)
REMARK    1  A    between atoms: C2_2  and  O1_5
REMARK    2  A    between atoms: O1_5  and  C5_6
REMARK       I    between atoms: C5_6  and  N1_8
REMARK    3  A    between atoms: N3_12  and  C7_13
REMARK    4  A    between atoms: C8_19  and  N6_20
REMARK    5  A    between atoms: C9_23  and  N7_24
ROOT
HETATM    1  C5  UNL     1      25.147  19.421  54.553  1.00  0.00     0.391 C
HETATM    2  O2  UNL     1      24.419  18.428  54.485  1.00  0.00    -0.236 OA
HETATM    3  N1  UNL     1      24.614  20.735  54.789  1.00  0.00    -0.130 N
HETATM    4  N2  UNL     1      23.358  21.082  54.962  1.00  0.00    -0.114 N
ATOM      5  H2  UNL     1      22.565  20.440  54.951  1.00  0.00     0.206 HD
HETATM    6  C6  UNL     1      23.276  22.413  55.157  1.00  0.00     0.746 A
HETATM    7  N3  UNL     1      22.446  23.468  55.387  1.00  0.00     0.048 N
HETATM    8  C9  UNL     1      23.171  24.612  55.476  1.00  0.00     0.714 A
HETATM    9  N8  UNL     1      24.448  24.243  55.299  1.00  0.00    -0.106 N
ATOM     10  H8  UNL     1      25.248  24.875  55.308  1.00  0.00     0.207 HD
HETATM   11  N9  UNL     1      24.514  22.935  55.109  1.00  0.00    -0.013 N
HETATM   12  C10 UNL     1      25.323  21.878  54.880  1.00  0.00     0.387 A
HETATM   13  O4  UNL     1      26.576  21.933  54.765  1.00  0.00    -0.242 OA
ENDROOT
BRANCH   7  14
HETATM   14  C7  UNL     1      21.046  23.381  55.513  1.00  0.00     0.214 A
HETATM   15  N4  UNL     1      20.339  23.332  56.647  1.00  0.00    -0.220 N
HETATM   16  O3  UNL     1      19.060  23.254  56.349  1.00  0.00    -0.153 OA
ATOM     17  H4  UNL     1      20.728  23.353  57.590  1.00  0.00     0.198 HD
HETATM   18  N5  UNL     1      18.887  23.247  55.058  1.00  0.00    -0.222 N
HETATM   19  C8  UNL     1      20.130  23.327  54.492  1.00  0.00     0.169 A
ATOM     20  H5  UNL     1      17.996  23.193  54.564  1.00  0.00     0.198 HD
BRANCH  19  21
HETATM   21  N6  UNL     1      20.354  23.346  53.242  1.00  0.00    -0.381 N
ATOM     22  H62 UNL     1      20.987  23.996  52.776  1.00  0.00     0.157 HD
ATOM     23  H61 UNL     1      19.956  22.739  52.525  1.00  0.00     0.157 HD
ENDBRANCH  19  21
ENDBRANCH   7  14
BRANCH   8  24
HETATM   24  N7  UNL     1      22.713  25.818  55.691  1.00  0.00    -0.232 N
ATOM     25  H72 UNL     1      22.043  26.339  55.124  1.00  0.00     0.174 HD
ATOM     26  H71 UNL     1      22.955  26.436  56.466  1.00  0.00     0.174 HD
ENDBRANCH   8  24
BRANCH   1  27
HETATM   27  O1  UNL     1      26.511  19.244  54.393  1.00  0.00    -0.292 OA
BRANCH  27  28
HETATM   28  C2  UNL     1      27.028  18.882  53.149  1.00  0.00     0.061 C
HETATM   29  C1  UNL     1      26.099  19.194  52.003  1.00  0.00     0.046 C
HETATM   30  C3  UNL     1      28.331  19.672  52.962  1.00  0.00     0.046 C
HETATM   31  C4  UNL     1      27.405  17.425  53.058  1.00  0.00     0.046 C
ENDBRANCH  27  28
ENDBRANCH   1  27
TORSDOF 5
ENDMDL