MODEL 1
REMARK VINA RESULT: -9.982568611      0.000      0.000
REMARK  4 active torsions:
REMARK  status: ('A' for Active; 'I' for Inactive)
REMARK    1  A    between atoms: C3_7  and  N3_8
REMARK    2  A    between atoms: N3_8  and  C4_10
REMARK    3  A    between atoms: C13_21  and  C14_22
REMARK    4  A    between atoms: C15_23  and  C16_24
ROOT
HETATM    1  C1  UNL     1       2.853   4.906 -11.012  1.00  0.00     0.165 C
HETATM    2  N1  UNL     1       2.294   6.065 -10.459  1.00  0.00    -0.230 N
ATOM      3  H1  UNL     1       2.688   6.310  -9.551  1.00  0.00     0.177 HD
HETATM    4  C2  UNL     1       1.406   6.868 -10.850  1.00  0.00     0.686 A
HETATM    5  N2  UNL     1       1.015   7.965 -10.113  1.00  0.00    -0.174 N
ATOM      6  H2  UNL     1       1.393   8.231  -9.204  1.00  0.00     0.186 HD
HETATM    7  C3  UNL     1       0.068   8.622 -10.773  1.00  0.00     0.151 A
HETATM    8  C10 UNL     1      -0.177   7.950 -11.974  1.00  0.00     0.108 A
HETATM    9  C11 UNL     1      -1.041   8.195 -13.008  1.00  0.00    -0.011 A
HETATM   10  C12 UNL     1      -1.936   9.354 -12.970  1.00  0.00     0.052 C
HETATM   11  C13 UNL     1      -1.079   7.357 -14.090  1.00  0.00     0.033 A
HETATM   12  C21 UNL     1      -0.221   6.285 -14.076  1.00  0.00    -0.026 A
HETATM   13  C22 UNL     1      -0.221   5.343 -15.229  1.00  0.00     0.051 C
HETATM   14  C23 UNL     1       0.656   6.024 -13.040  1.00  0.00     0.124 A
HETATM   15  N7  UNL     1       0.661   6.879 -11.988  1.00  0.00    -0.153 N
ENDROOT
BRANCH   7  16
HETATM   16  N3  UNL     1      -0.602   9.817 -10.345  1.00  0.00    -0.326 N
ATOM     17  H3  UNL     1      -0.608  10.641 -10.944  1.00  0.00     0.169 HD
BRANCH  16  18
HETATM   18  C4  UNL     1      -1.188   9.845  -9.217  1.00  0.00     0.106 A
HETATM   19  C5  UNL     1      -2.546   9.942  -9.057  1.00  0.00     0.048 A
HETATM   20  C6  UNL     1      -3.161   9.974  -7.821  1.00  0.00     0.006 A
HETATM   21  C7  UNL     1      -2.358   9.903  -6.704  1.00  0.00     0.025 A
HETATM   22  C8  UNL     1      -0.988   9.806  -6.860  1.00  0.00     0.007 A
HETATM   23  C9  UNL     1      -0.174   9.734  -5.613  1.00  0.00     0.068 C
HETATM   24  N4  UNL     1      -0.435   9.779  -8.082  1.00  0.00    -0.346 N
ATOM     25  H4  UNL     1       0.579   9.706  -8.164  1.00  0.00     0.167 HD
ENDBRANCH  16  18
ENDBRANCH   7  16
BRANCH  11  26
HETATM   26  C14 UNL     1      -1.993   7.643 -15.154  1.00  0.00    -0.059 C
HETATM   27  C15 UNL     1      -2.748   7.895 -16.061  1.00  0.00    -0.043 C
BRANCH  27  28
HETATM   28  C16 UNL     1      -3.641   8.187 -17.164  1.00  0.00     0.088 A
HETATM   29  C17 UNL     1      -3.762   7.291 -18.208  1.00  0.00     0.065 A
HETATM   30  C18 UNL     1      -4.615   7.564 -19.268  1.00  0.00     0.050 A
HETATM   31  N5  UNL     1      -4.738   6.654 -20.327  1.00  0.00    -0.102 NA
HETATM   32  C19 UNL     1      -5.361   8.732 -19.310  1.00  0.00     0.043 A
HETATM   33  C20 UNL     1      -5.202   9.593 -18.243  1.00  0.00     0.091 A
HETATM   34  N6  UNL     1      -4.370   9.312 -17.221  1.00  0.00    -0.359 N
ATOM     35  H6  UNL     1      -4.292   9.984 -16.457  1.00  0.00     0.166 HD
ENDBRANCH  27  28
ENDBRANCH  11  26
TORSDOF 4
ENDMDL