MODEL 3
REMARK VINA RESULT: -8.975034912      0.991      1.060
REMARK  4 active torsions:
REMARK  status: ('A' for Active; 'I' for Inactive)
REMARK       I    between atoms: C2_2  and  N1_4
REMARK    1  A    between atoms: N1_4  and  C3_6
REMARK    2  A    between atoms: C7_11  and  N2_12
REMARK    3  A    between atoms: N2_12  and  C8_14
REMARK    4  A    between atoms: C20_31  and  N6_32
ROOT
HETATM    1  C3  UNL     1      -1.654   9.018 -10.465  1.00  0.00     0.121 A
HETATM    2  S1  UNL     1      -2.455   9.044 -11.996  1.00  0.00    -0.066 SA
HETATM    3  C4  UNL     1      -1.802   7.928 -13.092  1.00  0.00     0.035 A
HETATM    4  C5  UNL     1      -2.291   7.779 -14.382  1.00  0.00     0.037 A
HETATM    5  C6  UNL     1      -1.734   6.856 -15.254  1.00  0.00     0.020 A
HETATM    6  C7  UNL     1      -2.261   6.735 -16.557  1.00  0.00     0.067 A
HETATM    7  C14 UNL     1      -1.635   5.795 -17.327  1.00  0.00     0.087 A
HETATM    8  C15 UNL     1      -2.074   5.575 -18.668  1.00  0.00     0.103 C
HETATM    9  N3  UNL     1      -2.403   5.381 -19.739  1.00  0.00    -0.191 NA
HETATM   10  C16 UNL     1      -0.560   5.021 -16.852  1.00  0.00     0.113 A
HETATM   11  N4  UNL     1      -0.131   5.212 -15.596  1.00  0.00    -0.364 N
ATOM     12  H4  UNL     1       0.649   4.654 -15.248  1.00  0.00     0.165 HD
HETATM   13  C17 UNL     1      -0.697   6.113 -14.788  1.00  0.00     0.046 A
HETATM   14  C18 UNL     1      -0.182   6.234 -13.507  1.00  0.00     0.061 A
HETATM   15  C19 UNL     1      -0.754   7.174 -12.627  1.00  0.00     0.053 A
HETATM   16  N5  UNL     1      -0.260   7.291 -11.398  1.00  0.00    -0.339 N
ATOM     17  H5  UNL     1       0.520   6.672 -11.180  1.00  0.00     0.167 HD
HETATM   18  C20 UNL     1      -0.635   8.097 -10.417  1.00  0.00     0.134 A
ENDROOT
BRANCH   6  19
HETATM   19  N2  UNL     1      -3.210   7.467 -16.870  1.00  0.00    -0.354 N
ATOM     20  H2  UNL     1      -4.015   7.224 -16.293  1.00  0.00     0.166 HD
BRANCH  19  21
HETATM   21  C8  UNL     1      -3.560   8.470 -17.699  1.00  0.00     0.032 A
HETATM   22  C9  UNL     1      -2.993   9.732 -17.577  1.00  0.00     0.029 A
HETATM   23  C10 UNL     1      -3.298  10.780 -18.398  1.00  0.00     0.002 A
HETATM   24  C11 UNL     1      -4.206  10.613 -19.403  1.00  0.00     0.000 A
HETATM   25  C12 UNL     1      -4.799   9.378 -19.568  1.00  0.00     0.002 A
HETATM   26  C13 UNL     1      -4.487   8.318 -18.734  1.00  0.00     0.029 A
ENDBRANCH  19  21
ENDBRANCH   6  19
BRANCH   1  27
HETATM   27  N1  UNL     1      -1.978   9.772  -9.493  1.00  0.00    -0.319 N
HETATM   28  C2  UNL     1      -2.676   9.515  -8.332  1.00  0.00     0.218 C
HETATM   29  C1  UNL     1      -4.164   9.680  -8.172  1.00  0.00     0.117 C
HETATM   30  O1  UNL     1      -2.053   9.109  -7.301  1.00  0.00    -0.274 OA
ATOM     31  H1  UNL     1      -1.667  10.738  -9.589  1.00  0.00     0.169 HD
ENDBRANCH   1  27
BRANCH  18  32
HETATM   32  N6  UNL     1       0.009   8.032  -9.280  1.00  0.00    -0.383 N
ATOM     33  H62 UNL     1      -0.519   7.805  -8.436  1.00  0.00     0.157 HD
ATOM     34  H61 UNL     1       1.010   8.219  -9.334  1.00  0.00     0.157 HD
ENDBRANCH  18  32
TORSDOF 4
ENDMDL