MODEL 2
REMARK VINA RESULT: -9.850309884      2.967      8.280
REMARK  2 active torsions:
REMARK  status: ('A' for Active; 'I' for Inactive)
REMARK       I    between atoms: N2_7  and  C5_9
REMARK       I    between atoms: C5_9  and  N3_11
REMARK    1  A    between atoms: N3_11  and  C6_13
REMARK    2  A    between atoms: C12_23  and  C13_24
ROOT
HETATM    1  C6  UNL     1      -2.956   8.536 -11.370  1.00  0.00     0.118 A
HETATM    2  C7  UNL     1      -3.870   7.634 -11.865  1.00  0.00     0.077 A
HETATM    3  C8  UNL     1      -4.705   6.892 -11.022  1.00  0.00     0.074 A
HETATM    4  N4  UNL     1      -5.634   5.971 -11.578  1.00  0.00    -0.101 NA
HETATM    5  C9  UNL     1      -4.629   7.049  -9.673  1.00  0.00     0.113 A
HETATM    6  C10 UNL     1      -5.482   6.291  -8.799  1.00  0.00     0.105 C
HETATM    7  N5  UNL     1      -6.163   5.662  -8.092  1.00  0.00    -0.191 NA
HETATM    8  C11 UNL     1      -3.706   7.956  -9.192  1.00  0.00     0.136 A
HETATM    9  N6  UNL     1      -3.437   8.293  -7.910  1.00  0.00    -0.339 N
ATOM     10  H6  UNL     1      -3.898   7.905  -7.086  1.00  0.00     0.167 HD
HETATM   11  C12 UNL     1      -2.465   9.220  -7.896  1.00  0.00     0.060 A
HETATM   12  C19 UNL     1      -2.137   9.449  -9.220  1.00  0.00     0.130 A
HETATM   13  N7  UNL     1      -2.911   8.663 -10.012  1.00  0.00    -0.290 N
ENDROOT
BRANCH   1  14
HETATM   14  N3  UNL     1      -2.182   9.229 -12.089  1.00  0.00    -0.294 N
HETATM   15  C5  UNL     1      -1.734   8.947 -13.393  1.00  0.00     0.327 C
HETATM   16  N2  UNL     1      -2.296   9.487 -14.560  1.00  0.00    -0.288 N
HETATM   17  O1  UNL     1      -0.746   8.145 -13.530  1.00  0.00    -0.247 OA
HETATM   18  C4  UNL     1      -2.689   8.724 -15.536  1.00  0.00     0.152 A
ATOM     19  H2  UNL     1      -2.399  10.499 -14.644  1.00  0.00     0.172 HD
HETATM   20  N1  UNL     1      -2.666   7.402 -15.671  1.00  0.00    -0.345 N
HETATM   21  S1  UNL     1      -3.398   9.229 -17.032  1.00  0.00    -0.058 SA
HETATM   22  C3  UNL     1      -3.124   6.864 -16.762  1.00  0.00     0.104 A
ATOM     23  H1  UNL     1      -2.290   6.815 -14.926  1.00  0.00     0.167 HD
HETATM   24  C2  UNL     1      -3.616   7.691 -17.733  1.00  0.00    -0.003 A
HETATM   25  C1  UNL     1      -4.198   7.318 -19.073  1.00  0.00     0.058 C
ATOM     26  H3  UNL     1      -1.842  10.097 -11.674  1.00  0.00     0.172 HD
ENDBRANCH   1  14
BRANCH  11  27
HETATM   27  C13 UNL     1      -1.869   9.861  -6.718  1.00  0.00    -0.008 A
HETATM   28  C14 UNL     1      -2.550  10.886  -6.112  1.00  0.00     0.014 A
HETATM   29  C15 UNL     1      -2.075  11.551  -5.000  1.00  0.00     0.001 A
HETATM   30  C16 UNL     1      -0.867  11.158  -4.493  1.00  0.00     0.000 A
HETATM   31  C17 UNL     1      -0.164  10.127  -5.090  1.00  0.00     0.001 A
HETATM   32  C18 UNL     1      -0.658   9.470  -6.206  1.00  0.00     0.014 A
ENDBRANCH  11  27
TORSDOF 2
ENDMDL