MODEL 3
REMARK VINA RESULT: -7.169222364      2.680      7.267
REMARK  7 active torsions:
REMARK  status: ('A' for Active; 'I' for Inactive)
REMARK    1  A    between atoms: C2_2  and  N1_3
REMARK    2  A    between atoms: N1_3  and  C3_5
REMARK    3  A    between atoms: C5_7  and  C6_8
REMARK    4  A    between atoms: C7_9  and  C8_10
REMARK    5  A    between atoms: C9_11  and  C10_12
REMARK    6  A    between atoms: C16_24  and  N6_25
REMARK    7  A    between atoms: N6_25  and  C17_27
ROOT
HETATM    1  C8  UNL     1      -2.481   7.568 -10.713  1.00  0.00     0.072 A
HETATM    2  C9  UNL     1      -3.364   7.180  -9.747  1.00  0.00     0.067 A
HETATM    3  N4  UNL     1      -2.900   7.293  -8.461  1.00  0.00    -0.343 N
ATOM      4  H4  UNL     1      -3.533   7.009  -7.713  1.00  0.00     0.167 HD
HETATM    5  C14 UNL     1      -1.712   7.735  -8.106  1.00  0.00     0.118 A
HETATM    6  N5  UNL     1      -1.297   7.826  -6.731  1.00  0.00    -0.083 NA
HETATM    7  C15 UNL     1      -0.828   8.127  -9.088  1.00  0.00     0.076 A
HETATM    8  C16 UNL     1      -1.191   8.054 -10.414  1.00  0.00     0.053 A
ENDROOT
BRANCH   1   9
HETATM    9  C7  UNL     1      -2.754   7.452 -12.115  1.00  0.00    -0.057 C
HETATM   10  C6  UNL     1      -2.959   7.385 -13.318  1.00  0.00    -0.061 C
BRANCH  10  11
HETATM   11  C5  UNL     1      -3.177   7.300 -14.735  1.00  0.00     0.022 A
HETATM   12  C4  UNL     1      -3.535   8.432 -15.451  1.00  0.00     0.068 A
HETATM   13  C3  UNL     1      -3.758   8.418 -16.811  1.00  0.00     0.102 A
HETATM   14  N7  UNL     1      -3.612   7.225 -17.439  1.00  0.00    -0.352 N
HETATM   15  C22 UNL     1      -3.268   6.101 -16.791  1.00  0.00     0.091 A
ATOM     16  H7  UNL     1      -3.771   7.180 -18.445  1.00  0.00     0.166 HD
HETATM   17  C21 UNL     1      -3.045   6.118 -15.430  1.00  0.00     0.038 A
BRANCH  13  18
HETATM   18  N1  UNL     1      -4.090   9.481 -17.462  1.00  0.00    -0.377 N
ATOM     19  H1  UNL     1      -5.069   9.696 -17.653  1.00  0.00     0.161 HD
BRANCH  18  20
HETATM   20  C2  UNL     1      -3.038  10.353 -17.913  1.00  0.00     0.116 C
HETATM   21  C1  UNL     1      -3.022  10.455 -19.423  1.00  0.00     0.026 C
ENDBRANCH  18  20
ENDBRANCH  13  18
ENDBRANCH  10  11
ENDBRANCH   1   9
BRANCH   2  22
HETATM   22  C10 UNL     1      -4.680   6.639  -9.983  1.00  0.00     0.026 A
HETATM   23  C11 UNL     1      -5.298   6.203 -11.101  1.00  0.00     0.122 A
HETATM   24  N2  UNL     1      -6.525   5.720 -10.769  1.00  0.00    -0.310 N
HETATM   25  N3  UNL     1      -6.724   5.829  -9.473  1.00  0.00    -0.307 N
ATOM     26  H2  UNL     1      -7.195   5.328 -11.431  1.00  0.00     0.186 HD
HETATM   27  C12 UNL     1      -7.887   5.441  -8.694  1.00  0.00     0.177 C
HETATM   28  C13 UNL     1      -5.605   6.391  -8.965  1.00  0.00     0.124 A
ENDBRANCH   2  22
BRANCH   8  29
HETATM   29  N6  UNL     1      -0.410   8.405 -11.345  1.00  0.00    -0.380 N
ATOM     30  H6  UNL     1      -0.546   9.356 -11.688  1.00  0.00     0.160 HD
BRANCH  29  31
HETATM   31  C17 UNL     1       0.629   7.675 -11.984  1.00  0.00     0.019 C
HETATM   32  C18 UNL     1       1.872   7.629 -11.143  1.00  0.00     0.037 C
HETATM   33  C19 UNL     1       0.173   6.215 -12.172  1.00  0.00     0.037 C
HETATM   34  C20 UNL     1       0.943   8.179 -13.374  1.00  0.00     0.037 C
ENDBRANCH  29  31
ENDBRANCH   8  29
TORSDOF 7
ENDMDL