MODEL 4
REMARK VINA RESULT: -9.510114801      3.109      8.890
REMARK  5 active torsions:
REMARK  status: ('A' for Active; 'I' for Inactive)
REMARK    1  A    between atoms: C2_2  and  C3_4
REMARK    2  A    between atoms: C6_7  and  N1_8
REMARK       I    between atoms: N1_8  and  C7_10
REMARK       I    between atoms: C7_10  and  N2_12
REMARK    3  A    between atoms: N2_12  and  C8_14
REMARK    4  A    between atoms: C9_19  and  C10_20
REMARK    5  A    between atoms: N7_31  and  C18_32
ROOT
HETATM    1  C8  UNL     1      -2.877   8.446 -12.375  1.00  0.00     0.154 A
HETATM    2  N3  UNL     1      -4.133   8.902 -12.251  1.00  0.00    -0.283 N
ATOM      3  H3  UNL     1      -4.406   9.688 -11.661  1.00  0.00     0.188 HD
HETATM    4  N4  UNL     1      -4.968   8.203 -12.992  1.00  0.00    -0.296 N
ATOM      5  H4  UNL     1      -5.974   8.355 -13.067  1.00  0.00     0.187 HD
HETATM    6  C9  UNL     1      -4.270   7.264 -13.622  1.00  0.00     0.093 A
HETATM    7  C18 UNL     1      -2.958   7.378 -13.265  1.00  0.00     0.114 A
ENDROOT
BRANCH   1   8
HETATM    8  N2  UNL     1      -1.783   8.856 -11.820  1.00  0.00    -0.291 N
HETATM    9  C7  UNL     1      -1.816   8.927 -10.358  1.00  0.00     0.326 C
HETATM   10  N1  UNL     1      -1.642  10.191  -9.778  1.00  0.00    -0.309 N
HETATM   11  O2  UNL     1      -1.996   7.849  -9.751  1.00  0.00    -0.247 OA
ATOM     12  H1  UNL     1      -1.506  10.970 -10.423  1.00  0.00     0.170 HD
ATOM     13  H2  UNL     1      -0.957   9.111 -12.362  1.00  0.00     0.172 HD
BRANCH  10  14
HETATM   14  C6  UNL     1      -1.633  10.507  -8.409  1.00  0.00     0.036 A
HETATM   15  C5  UNL     1      -0.715  10.048  -7.525  1.00  0.00     0.030 A
HETATM   16  C4  UNL     1      -0.764  10.401  -6.174  1.00  0.00     0.017 A
HETATM   17  C3  UNL     1      -1.736  11.222  -5.680  1.00  0.00     0.009 A
HETATM   18  C20 UNL     1      -2.667  11.683  -6.592  1.00  0.00     0.017 A
HETATM   19  C19 UNL     1      -2.629  11.344  -7.919  1.00  0.00     0.030 A
BRANCH  17  20
HETATM   20  C2  UNL     1      -1.785  11.588  -4.274  1.00  0.00     0.155 C
HETATM   21  C1  UNL     1      -2.963  11.186  -3.470  1.00  0.00     0.096 C
HETATM   22  O1  UNL     1      -0.845  12.228  -3.764  1.00  0.00    -0.293 OA
ENDBRANCH  17  20
ENDBRANCH  10  14
ENDBRANCH   1   8
BRANCH   7  23
HETATM   23  N7  UNL     1      -2.037   6.546 -13.764  1.00  0.00    -0.315 N
HETATM   24  C14 UNL     1      -1.763   6.523 -15.079  1.00  0.00     0.068 A
HETATM   25  C13 UNL     1      -2.422   7.359 -15.958  1.00  0.00     0.089 A
HETATM   26  C15 UNL     1      -0.770   5.569 -15.317  1.00  0.00     0.034 A
HETATM   27  C10 UNL     1      -3.372   8.220 -15.452  1.00  0.00     0.042 A
HETATM   28  N6  UNL     1      -2.390   7.582 -17.273  1.00  0.00    -0.296 N
HETATM   29  C11 UNL     1      -3.893   8.949 -16.507  1.00  0.00     0.126 A
HETATM   30  N5  UNL     1      -3.257   8.522 -17.618  1.00  0.00    -0.306 N
HETATM   31  C12 UNL     1      -3.505   9.032 -18.954  1.00  0.00     0.177 C
ATOM     32  H6  UNL     1      -1.779   7.093 -17.926  1.00  0.00     0.187 HD
HETATM   33  C16 UNL     1      -0.481   5.035 -14.065  1.00  0.00     0.020 A
HETATM   34  C17 UNL     1      -1.265   5.642 -13.114  1.00  0.00     0.098 A
ENDBRANCH   7  23
TORSDOF 5
ENDMDL