MODEL 3
REMARK VINA RESULT: -9.968665612      2.690     10.631
REMARK  5 active torsions:
REMARK  status: ('A' for Active; 'I' for Inactive)
REMARK    1  A    between atoms: C4_4  and  C5_5
REMARK    2  A    between atoms: C8_11  and  C9_12
REMARK    3  A    between atoms: C10_13  and  C11_14
REMARK    4  A    between atoms: C20_30  and  C21_31
REMARK    5  A    between atoms: C22_32  and  N5_33
ROOT
HETATM    1  C5  UNL     1      -1.623   8.835  -9.945  1.00  0.00     0.121 C
HETATM    2  N1  UNL     1      -0.727   7.951 -10.104  1.00  0.00    -0.339 N
ATOM      3  H1  UNL     1      -0.237   7.719  -9.240  1.00  0.00     0.167 HD
HETATM    4  C6  UNL     1      -0.246   7.195 -11.253  1.00  0.00     0.069 A
HETATM    5  C7  UNL     1       0.932   6.504 -11.080  1.00  0.00     0.083 A
HETATM    6  S1  UNL     1       1.170   5.763 -12.595  1.00  0.00    -0.088 SA
HETATM    7  C8  UNL     1      -0.212   6.339 -13.405  1.00  0.00     0.087 A
HETATM    8  C17 UNL     1      -0.829   7.107 -12.451  1.00  0.00     0.089 A
HETATM    9  N2  UNL     1      -2.074   7.755 -12.842  1.00  0.00    -0.305 N
ATOM     10  H2  UNL     1      -2.483   7.420 -13.714  1.00  0.00     0.171 HD
HETATM   11  C18 UNL     1      -2.798   8.780 -12.190  1.00  0.00     0.326 C
HETATM   12  O1  UNL     1      -3.826   9.217 -12.762  1.00  0.00    -0.247 OA
HETATM   13  N3  UNL     1      -2.482   9.372 -10.944  1.00  0.00    -0.294 N
ATOM     14  H3  UNL     1      -2.914  10.273 -10.742  1.00  0.00     0.172 HD
ENDROOT
BRANCH   1  15
HETATM   15  C4  UNL     1      -1.803   9.361  -8.596  1.00  0.00     0.024 A
HETATM   16  C3  UNL     1      -0.926   9.144  -7.567  1.00  0.00     0.026 A
HETATM   17  C2  UNL     1      -1.169   9.678  -6.316  1.00  0.00    -0.025 A
HETATM   18  C1  UNL     1      -0.219   9.439  -5.222  1.00  0.00     0.051 C
HETATM   19  C20 UNL     1      -2.292  10.446  -6.040  1.00  0.00     0.094 A
HETATM   20  N4  UNL     1      -3.140  10.645  -7.068  1.00  0.00    -0.358 N
HETATM   21  C19 UNL     1      -2.927  10.137  -8.295  1.00  0.00     0.104 A
ATOM     22  H4  UNL     1      -3.979  11.204  -6.909  1.00  0.00     0.166 HD
BRANCH  19  23
HETATM   23  C21 UNL     1      -2.545  11.000  -4.736  1.00  0.00    -0.026 C
HETATM   24  C22 UNL     1      -2.778  11.464  -3.643  1.00  0.00     0.010 C
BRANCH  24  25
HETATM   25  N5  UNL     1      -3.063  11.994  -2.381  1.00  0.00    -0.359 N
ATOM     26  H52 UNL     1      -3.334  11.921  -3.361  1.00  0.00     0.166 HD
ATOM     27  H51 UNL     1      -3.261  12.376  -1.455  1.00  0.00     0.166 HD
ENDBRANCH  24  25
ENDBRANCH  19  23
ENDBRANCH   1  15
BRANCH   7  28
HETATM   28  C9  UNL     1      -0.621   6.071 -14.777  1.00  0.00    -0.051 C
HETATM   29  C10 UNL     1      -0.969   5.862 -15.913  1.00  0.00    -0.061 C
BRANCH  29  30
HETATM   30  C11 UNL     1      -1.389   5.627 -17.263  1.00  0.00     0.018 A
HETATM   31  C12 UNL     1      -2.734   5.480 -17.518  1.00  0.00     0.020 A
HETATM   32  C13 UNL     1      -3.164   5.255 -18.804  1.00  0.00     0.001 A
HETATM   33  C14 UNL     1      -2.277   5.170 -19.863  1.00  0.00     0.000 A
HETATM   34  C15 UNL     1      -0.934   5.315 -19.621  1.00  0.00     0.001 A
HETATM   35  C16 UNL     1      -0.524   5.540 -18.329  1.00  0.00     0.020 A
ENDBRANCH  29  30
ENDBRANCH   7  28
TORSDOF 5
ENDMDL