MODEL 5
REMARK VINA RESULT: -5.599793116      2.613      6.958
REMARK  0 active torsions:
REMARK  status: ('A' for Active; 'I' for Inactive)
ROOT
HETATM    1  N1  UNL     1      -4.354   7.439 -12.438  1.00  0.00    -0.384 N
ATOM      2  H11 UNL     1      -4.323   6.610 -11.844  1.00  0.00     0.157 HD
ATOM      3  H12 UNL     1      -4.706   8.286 -11.990  1.00  0.00     0.157 HD
HETATM    4  C1  UNL     1      -3.975   7.407 -13.653  1.00  0.00     0.127 A
HETATM    5  N2  UNL     1      -4.018   8.547 -14.469  1.00  0.00    -0.176 N
ATOM      6  H2  UNL     1      -4.355   9.426 -14.075  1.00  0.00     0.186 HD
HETATM    7  C2  UNL     1      -3.605   8.515 -15.832  1.00  0.00     0.692 A
HETATM    8  N3  UNL     1      -3.577   9.758 -16.240  1.00  0.00    -0.155 N
ATOM      9  H3  UNL     1      -3.835  10.470 -15.558  1.00  0.00     0.187 HD
HETATM   10  C3  UNL     1      -3.221  10.214 -17.537  1.00  0.00     0.270 C
HETATM   11  O1  UNL     1      -2.632  11.268 -17.766  1.00  0.00    -0.267 OA
HETATM   12  C4  UNL     1      -3.552   9.424 -18.757  1.00  0.00     0.043 A
HETATM   13  C5  UNL     1      -4.055  10.253 -19.736  1.00  0.00     0.018 A
HETATM   14  C6  UNL     1      -4.581   9.667 -20.874  1.00  0.00     0.001 A
HETATM   15  C7  UNL     1      -4.583   8.313 -20.979  1.00  0.00     0.001 A
HETATM   16  C8  UNL     1      -4.055   7.509 -19.955  1.00  0.00     0.013 A
HETATM   17  C9  UNL     1      -3.503   8.055 -18.783  1.00  0.00     0.015 A
HETATM   18  C10 UNL     1      -2.831   7.027 -17.864  1.00  0.00     0.224 C
HETATM   19  N4  UNL     1      -1.454   7.413 -18.264  1.00  0.00    -0.351 N
ATOM     20  H4  UNL     1      -0.887   8.161 -17.867  1.00  0.00     0.163 HD
HETATM   21  C11 UNL     1      -1.093   6.540 -19.301  1.00  0.00     0.044 A
HETATM   22  C12 UNL     1       0.038   6.484 -20.102  1.00  0.00     0.030 A
HETATM   23  C13 UNL     1       0.235   5.532 -21.071  1.00  0.00     0.002 A
HETATM   24  C14 UNL     1      -0.730   4.577 -21.272  1.00  0.00     0.001 A
HETATM   25  C15 UNL     1      -1.860   4.611 -20.493  1.00  0.00     0.017 A
HETATM   26  C16 UNL     1      -2.044   5.579 -19.519  1.00  0.00     0.041 A
HETATM   27  C17 UNL     1      -3.173   5.805 -18.548  1.00  0.00     0.216 C
HETATM   28  O2  UNL     1      -4.126   4.969 -18.509  1.00  0.00    -0.287 OA
HETATM   29  N5  UNL     1      -3.117   7.329 -16.514  1.00  0.00    -0.142 N
HETATM   30  C18 UNL     1      -3.072   6.181 -15.630  1.00  0.00     0.069 A
HETATM   31  C19 UNL     1      -2.500   5.002 -16.042  1.00  0.00     0.031 A
HETATM   32  C20 UNL     1      -2.322   3.860 -15.240  1.00  0.00     0.002 A
HETATM   33  C21 UNL     1      -2.737   3.899 -13.942  1.00  0.00     0.001 A
HETATM   34  C22 UNL     1      -3.302   5.065 -13.491  1.00  0.00     0.017 A
HETATM   35  C23 UNL     1      -3.472   6.198 -14.293  1.00  0.00     0.036 A
ENDROOT
TORSDOF 0
ENDMDL