MODEL 2
REMARK VINA RESULT: -9.542186116      2.430      2.588
REMARK  6 active torsions:
REMARK  status: ('A' for Active; 'I' for Inactive)
REMARK    1  A    between atoms: C1_2  and  C2_3
REMARK       I    between atoms: C1_2  and  N2_12
REMARK    2  A    between atoms: C3_4  and  C4_5
REMARK    3  A    between atoms: N2_12  and  N3_14
REMARK    4  A    between atoms: N3_14  and  C9_15
REMARK    5  A    between atoms: C9_15  and  O2_16
REMARK    6  A    between atoms: C9_15  and  C10_18
ROOT
HETATM    1  C9  UNL     1      -3.775   7.264 -11.872  1.00  0.00     0.248 C
ENDROOT
BRANCH   1   2
HETATM    2  N3  UNL     1      -3.563   8.212 -10.964  1.00  0.00    -0.296 NA
BRANCH   2   3
HETATM    3  N2  UNL     1      -3.338   9.143 -10.057  1.00  0.00    -0.189 N
HETATM    4  C1  UNL     1      -3.084   8.677  -8.695  1.00  0.00     0.325 C
HETATM    5  O1  UNL     1      -3.092   7.415  -8.503  1.00  0.00    -0.255 OA
ATOM      6  H2  UNL     1      -3.341  10.136 -10.293  1.00  0.00     0.206 HD
BRANCH   4   7
HETATM    7  C2  UNL     1      -2.836   9.482  -7.567  1.00  0.00     0.003 C
HETATM    8  C3  UNL     1      -2.627  10.106  -6.556  1.00  0.00    -0.055 C
BRANCH   8   9
HETATM    9  C4  UNL     1      -2.373  10.771  -5.322  1.00  0.00     0.033 A
HETATM   10  C5  UNL     1      -3.232  10.929  -4.265  1.00  0.00     0.023 A
HETATM   11  C6  UNL     1      -2.941  11.638  -3.117  1.00  0.00     0.019 A
HETATM   12  C7  UNL     1      -1.700  12.222  -3.036  1.00  0.00     0.087 A
HETATM   13  N1  UNL     1      -0.851  12.076  -4.055  1.00  0.00    -0.374 N
HETATM   14  C8  UNL     1      -1.122  11.397  -5.164  1.00  0.00     0.108 A
ATOM     15  H1  UNL     1       0.066  12.516  -3.978  1.00  0.00     0.164 HD
ENDBRANCH   8   9
ENDBRANCH   4   7
ENDBRANCH   2   3
ENDBRANCH   1   2
BRANCH   1  16
HETATM   16  O2  UNL     1      -4.188   6.019 -11.346  1.00  0.00    -0.333 OA
ATOM     17  H2  UNL     1      -3.626   5.285 -11.568  1.00  0.00     0.220 HD
ENDBRANCH   1  16
BRANCH   1  18
HETATM   18  C10 UNL     1      -3.731   7.078 -13.289  1.00  0.00     0.034 A
HETATM   19  C11 UNL     1      -3.425   5.794 -13.777  1.00  0.00     0.018 A
HETATM   20  C12 UNL     1      -3.249   5.666 -15.165  1.00  0.00     0.022 A
HETATM   21  C13 UNL     1      -3.356   6.697 -15.996  1.00  0.00     0.032 A
HETATM   22  C14 UNL     1      -3.653   7.967 -15.573  1.00  0.00     0.051 A
HETATM   23  S1  UNL     1      -3.096   6.435 -17.753  1.00  0.00    -0.086 SA
HETATM   24  C15 UNL     1      -3.840   8.113 -14.190  1.00  0.00     0.048 A
HETATM   25  N4  UNL     1      -3.664   9.086 -16.427  1.00  0.00    -0.354 N
HETATM   26  C16 UNL     1      -3.389   9.145 -17.806  1.00  0.00     0.050 A
ATOM     27  H4  UNL     1      -3.905   9.974 -15.986  1.00  0.00     0.166 HD
HETATM   28  C17 UNL     1      -3.361  10.364 -18.467  1.00  0.00     0.031 A
HETATM   29  C21 UNL     1      -3.057   8.035 -18.536  1.00  0.00     0.032 A
HETATM   30  C18 UNL     1      -3.007  10.486 -19.817  1.00  0.00     0.002 A
HETATM   31  C19 UNL     1      -2.668   9.359 -20.553  1.00  0.00     0.002 A
HETATM   32  C20 UNL     1      -2.714   8.162 -19.854  1.00  0.00     0.021 A
ENDBRANCH   1  18
TORSDOF 6
ENDMDL