MODEL 2
REMARK VINA RESULT: -11.129059472      1.210      1.319
REMARK  2 active torsions:
REMARK  status: ('A' for Active; 'I' for Inactive)
REMARK    1  A    between atoms: N2_12  and  C11_13
REMARK    2  A    between atoms: C17_20  and  N3_21
ROOT
HETATM    1  C1  UNL     1      -5.027   7.037 -12.093  1.00  0.00     0.070 C
HETATM    2  C2  UNL     1      -3.591   7.221 -11.780  1.00  0.00     0.035 A
HETATM    3  C3  UNL     1      -3.058   7.215 -10.499  1.00  0.00     0.079 A
HETATM    4  C4  UNL     1      -3.720   7.042  -9.246  1.00  0.00     0.102 C
HETATM    5  N1  UNL     1      -4.269   6.885  -8.235  1.00  0.00    -0.191 NA
HETATM    6  C5  UNL     1      -1.677   7.420 -10.645  1.00  0.00     0.014 A
HETATM    7  C6  UNL     1      -0.654   7.505  -9.718  1.00  0.00     0.015 A
HETATM    8  C7  UNL     1       0.641   7.715 -10.132  1.00  0.00     0.001 A
HETATM    9  C8  UNL     1       0.892   7.837 -11.481  1.00  0.00     0.002 A
HETATM   10  C9  UNL     1      -0.125   7.752 -12.406  1.00  0.00     0.031 A
HETATM   11  C10 UNL     1      -1.428   7.541 -11.997  1.00  0.00     0.051 A
HETATM   12  N2  UNL     1      -2.603   7.418 -12.669  1.00  0.00    -0.314 N
ENDROOT
BRANCH  12  13
HETATM   13  C11 UNL     1      -2.687   7.498 -14.110  1.00  0.00     0.042 A
HETATM   14  C12 UNL     1      -3.346   8.546 -14.711  1.00  0.00     0.031 A
HETATM   15  C13 UNL     1      -3.434   8.635 -16.082  1.00  0.00     0.020 A
HETATM   16  C14 UNL     1      -2.860   7.671 -16.884  1.00  0.00     0.042 A
HETATM   17  C15 UNL     1      -3.009   7.861 -18.234  1.00  0.00     0.199 C
HETATM   18  C22 UNL     1      -2.206   6.633 -16.266  1.00  0.00     0.051 A
HETATM   19  O1  UNL     1      -3.787   8.782 -18.551  1.00  0.00    -0.286 OA
HETATM   20  C16 UNL     1      -2.440   7.202 -19.314  1.00  0.00     0.074 A
HETATM   21  C17 UNL     1      -2.743   7.741 -20.541  1.00  0.00     0.114 A
HETATM   22  C20 UNL     1      -1.631   6.096 -19.244  1.00  0.00     0.051 A
HETATM   23  N4  UNL     1      -2.266   7.212 -21.687  1.00  0.00    -0.352 N
HETATM   24  C18 UNL     1      -1.477   6.138 -21.655  1.00  0.00     0.090 A
ATOM     25  H4  UNL     1      -2.509   7.637 -22.582  1.00  0.00     0.166 HD
HETATM   26  C19 UNL     1      -1.157   5.575 -20.432  1.00  0.00     0.035 A
HETATM   27  C21 UNL     1      -1.217   5.418 -18.132  1.00  0.00     0.257 C
HETATM   28  O2  UNL     1      -0.382   4.516 -18.349  1.00  0.00    -0.267 OA
HETATM   29  N5  UNL     1      -1.571   5.577 -16.856  1.00  0.00    -0.322 N
ATOM     30  H5  UNL     1      -1.335   4.804 -16.235  1.00  0.00     0.169 HD
HETATM   31  C23 UNL     1      -2.116   6.540 -14.903  1.00  0.00     0.060 A
BRANCH  21  32
HETATM   32  N3  UNL     1      -3.510   8.781 -20.549  1.00  0.00    -0.385 N
ATOM     33  H32 UNL     1      -4.182   8.951 -19.801  1.00  0.00     0.157 HD
ATOM     34  H31 UNL     1      -3.411   9.422 -21.337  1.00  0.00     0.157 HD
ENDBRANCH  21  32
ENDBRANCH  12  13
TORSDOF 2
ENDMDL