MODEL 4
REMARK VINA RESULT: -9.129350711      2.461     11.322
REMARK  4 active torsions:
REMARK  status: ('A' for Active; 'I' for Inactive)
REMARK    1  A    between atoms: N1_2  and  C2_4
REMARK    2  A    between atoms: C5_9  and  C6_10
REMARK    3  A    between atoms: C7_11  and  C8_12
REMARK    4  A    between atoms: C13_21  and  C14_22
ROOT
HETATM    1  C8  UNL     1      -3.764   6.496 -12.582  1.00  0.00     0.024 A
HETATM    2  C9  UNL     1      -4.929   5.942 -12.124  1.00  0.00     0.069 A
HETATM    3  C10 UNL     1      -5.341   6.031 -10.806  1.00  0.00     0.106 A
HETATM    4  N3  UNL     1      -6.429   5.496 -10.453  1.00  0.00    -0.385 N
ATOM      5  H31 UNL     1      -6.733   5.561  -9.482  1.00  0.00     0.157 HD
ATOM      6  H32 UNL     1      -7.019   4.995 -11.118  1.00  0.00     0.157 HD
HETATM    7  N4  UNL     1      -4.569   6.687  -9.937  1.00  0.00    -0.309 N
HETATM    8  C11 UNL     1      -4.902   6.819  -8.626  1.00  0.00     0.100 A
HETATM    9  C12 UNL     1      -4.091   7.500  -7.740  1.00  0.00     0.030 A
HETATM   10  C13 UNL     1      -2.905   8.085  -8.118  1.00  0.00    -0.020 A
HETATM   11  C18 UNL     1      -2.570   7.951  -9.445  1.00  0.00     0.042 A
HETATM   12  C19 UNL     1      -3.403   7.261 -10.311  1.00  0.00     0.042 A
HETATM   13  C20 UNL     1      -3.003   7.161 -11.647  1.00  0.00     0.050 A
ENDROOT
BRANCH   1  14
HETATM   14  C7  UNL     1      -3.298   6.427 -13.937  1.00  0.00    -0.060 C
HETATM   15  C6  UNL     1      -2.922   6.355 -15.085  1.00  0.00    -0.043 C
BRANCH  15  16
HETATM   16  C5  UNL     1      -2.465   6.283 -16.461  1.00  0.00     0.088 A
HETATM   17  N2  UNL     1      -2.988   6.912 -17.529  1.00  0.00    -0.348 N
HETATM   18  C4  UNL     1      -2.298   6.607 -18.649  1.00  0.00     0.048 A
ATOM     19  H2  UNL     1      -3.795   7.536 -17.497  1.00  0.00     0.167 HD
HETATM   20  C3  UNL     1      -2.398   6.961 -19.985  1.00  0.00     0.078 A
HETATM   21  C22 UNL     1      -1.277   5.740 -18.316  1.00  0.00     0.009 A
HETATM   22  C2  UNL     1      -1.535   6.488 -20.953  1.00  0.00     0.102 A
HETATM   23  N7  UNL     1      -0.537   5.633 -20.595  1.00  0.00    -0.352 N
HETATM   24  C23 UNL     1      -0.435   5.288 -19.313  1.00  0.00     0.103 A
ATOM     25  H7  UNL     1       0.114   5.268 -21.289  1.00  0.00     0.166 HD
HETATM   26  C21 UNL     1      -1.401   5.554 -16.953  1.00  0.00     0.054 A
BRANCH  22  27
HETATM   27  N1  UNL     1      -1.676   6.852 -22.181  1.00  0.00    -0.381 N
HETATM   28  C1  UNL     1      -2.776   7.638 -22.651  1.00  0.00     0.147 C
ATOM     29  H1  UNL     1      -0.964   6.566 -22.854  1.00  0.00     0.160 HD
ENDBRANCH  22  27
ENDBRANCH  15  16
ENDBRANCH   1  14
BRANCH  10  30
HETATM   30  C14 UNL     1      -2.036   8.809  -7.201  1.00  0.00     0.008 A
HETATM   31  C15 UNL     1      -0.753   8.471  -6.909  1.00  0.00     0.120 A
HETATM   32  N5  UNL     1      -0.277   9.360  -6.035  1.00  0.00    -0.310 N
HETATM   33  N6  UNL     1      -1.216  10.239  -5.771  1.00  0.00    -0.307 N
ATOM     34  H5  UNL     1       0.662   9.357  -5.637  1.00  0.00     0.186 HD
HETATM   35  C16 UNL     1      -1.095  11.376  -4.861  1.00  0.00     0.177 C
HETATM   36  C17 UNL     1      -2.327   9.946  -6.466  1.00  0.00     0.123 A
ENDBRANCH  10  30
TORSDOF 4
ENDMDL