MODEL 2
REMARK VINA RESULT: -8.119133216      0.589      1.293
REMARK  10 active torsions:
REMARK  status: ('A' for Active; 'I' for Inactive)
REMARK    1  A    between atoms: C2_2  and  C3_3
REMARK    2  A    between atoms: C3_3  and  S1_4
REMARK    3  A    between atoms: S1_4  and  C4_5
REMARK    4  A    between atoms: C5_10  and  C6_11
REMARK    5  A    between atoms: C7_14  and  C8_15
REMARK    6  A    between atoms: C8_15  and  C10_17
REMARK    7  A    between atoms: C10_17  and  C11_18
REMARK    8  A    between atoms: C13_20  and  C14_21
REMARK    9  A    between atoms: C14_21  and  C15_22
REMARK   10  A    between atoms: C15_22  and  C16_23
ROOT
HETATM    1  C6  UNL     1      56.429 -35.780   0.985  1.00  0.00     0.160 A
HETATM    2  N3  UNL     1      56.327 -36.312   2.223  1.00  0.00    -0.337 N
ATOM      3  H3  UNL     1      57.055 -36.859   2.683  1.00  0.00     0.167 HD
HETATM    4  C7  UNL     1      55.100 -36.011   2.779  1.00  0.00     0.058 A
HETATM    5  C13 UNL     1      54.460 -35.268   1.842  1.00  0.00     0.038 A
HETATM    6  N4  UNL     1      55.278 -35.143   0.770  1.00  0.00    -0.340 N
ATOM      7  H4  UNL     1      55.047 -34.633  -0.082  1.00  0.00     0.167 HD
ENDROOT
BRANCH   1   8
HETATM    8  C5  UNL     1      57.486 -35.902  -0.010  1.00  0.00     0.209 A
HETATM    9  N2  UNL     1      57.761 -37.054  -0.673  1.00  0.00    -0.274 N
HETATM   10  N1  UNL     1      58.761 -36.880  -1.484  1.00  0.00    -0.272 N
ATOM     11  H2  UNL     1      57.254 -37.931  -0.552  1.00  0.00     0.189 HD
HETATM   12  C4  UNL     1      59.146 -35.620  -1.356  1.00  0.00     0.203 A
ATOM     13  H1  UNL     1      59.170 -37.580  -2.102  1.00  0.00     0.189 HD
HETATM   14  O3  UNL     1      58.344 -35.009  -0.437  1.00  0.00    -0.264 OA
BRANCH  12  15
HETATM   15  S1  UNL     1      60.500 -34.911  -2.251  1.00  0.00    -0.085 SA
BRANCH  15  16
HETATM   16  C3  UNL     1      60.534 -33.131  -2.301  1.00  0.00     0.082 C
BRANCH  16  17
HETATM   17  C2  UNL     1      60.962 -32.651  -0.911  1.00  0.00     0.006 C
HETATM   18  C1  UNL     1      62.467 -32.664  -0.869  1.00  0.00     0.006 C
ENDBRANCH  16  17
ENDBRANCH  15  16
ENDBRANCH  12  15
ENDBRANCH   1   8
BRANCH   4  19
HETATM   19  C8  UNL     1      54.561 -36.616   3.971  1.00  0.00    -0.055 C
HETATM   20  C9  UNL     1      53.867 -35.846   5.021  1.00  0.00     0.046 C
BRANCH  19  21
HETATM   21  C10 UNL     1      54.352 -38.097   4.002  1.00  0.00     0.036 C
BRANCH  21  22
HETATM   22  C11 UNL     1      55.517 -38.845   4.689  1.00  0.00    -0.000 C
HETATM   23  C12 UNL     1      54.908 -39.428   5.955  1.00  0.00     0.005 C
ENDBRANCH  21  22
ENDBRANCH  19  21
ENDBRANCH   4  19
BRANCH   5  24
HETATM   24  C14 UNL     1      53.167 -34.626   1.921  1.00  0.00     0.070 C
BRANCH  24  25
HETATM   25  C15 UNL     1      53.272 -33.174   2.445  1.00  0.00     0.119 C
BRANCH  25  26
HETATM   26  C16 UNL     1      53.184 -32.297   1.239  1.00  0.00     0.172 C
HETATM   27  O1  UNL     1      52.236 -31.529   0.995  1.00  0.00    -0.648 OA
HETATM   28  O2  UNL     1      54.264 -32.356   0.317  1.00  0.00    -0.648 OA
ENDBRANCH  25  26
ENDBRANCH  24  25
ENDBRANCH   5  24
TORSDOF 10
ENDMDL