MODEL 2
REMARK VINA RESULT: -7.678660389      1.742      4.258
REMARK  11 active torsions:
REMARK  status: ('A' for Active; 'I' for Inactive)
REMARK    1  A    between atoms: O1_2  and  C2_3
REMARK    2  A    between atoms: C4_5  and  O2_6
REMARK    3  A    between atoms: C6_8  and  O3_9
REMARK    4  A    between atoms: C8_11  and  O4_12
REMARK    5  A    between atoms: C10_14  and  N1_15
REMARK    6  A    between atoms: N1_15  and  C11_17
REMARK    7  A    between atoms: C11_17  and  C12_18
REMARK    8  A    between atoms: C11_17  and  C16_24
REMARK    9  A    between atoms: C12_18  and  C13_19
REMARK   10  A    between atoms: C13_19  and  C14_20
REMARK   11  A    between atoms: C14_20  and  O5_22
ROOT
HETATM    1  C2  UNL     1      53.909 -34.544   3.819  1.00  0.00     0.100 A
HETATM    2  C3  UNL     1      53.301 -34.636   5.052  1.00  0.00     0.079 A
HETATM    3  C4  UNL     1      53.677 -35.618   5.976  1.00  0.00     0.107 A
HETATM    4  C6  UNL     1      54.675 -36.515   5.652  1.00  0.00     0.137 A
HETATM    5  C8  UNL     1      55.287 -36.429   4.421  1.00  0.00     0.133 A
HETATM    6  C10 UNL     1      54.915 -35.455   3.503  1.00  0.00     0.099 A
ENDROOT
BRANCH   6   7
HETATM    7  N1  UNL     1      55.544 -35.355   2.242  1.00  0.00    -0.380 N
ATOM      8  H1  UNL     1      56.082 -34.510   2.052  1.00  0.00     0.160 HD
BRANCH   7   9
HETATM    9  C11 UNL     1      55.485 -36.358   1.197  1.00  0.00     0.085 C
BRANCH   9  10
HETATM   10  C12 UNL     1      56.853 -36.705   0.670  1.00  0.00     0.028 C
BRANCH  10  11
HETATM   11  C13 UNL     1      57.056 -36.401  -0.782  1.00  0.00     0.033 C
BRANCH  11  12
HETATM   12  C14 UNL     1      58.226 -35.431  -0.911  1.00  0.00     0.114 C
HETATM   13  C15 UNL     1      57.884 -34.274  -1.792  1.00  0.00     0.039 C
BRANCH  12  14
HETATM   14  O5  UNL     1      58.634 -34.951   0.330  1.00  0.00    -0.396 OA
ATOM     15  H5  UNL     1      59.562 -35.094   0.474  1.00  0.00     0.210 HD
ENDBRANCH  12  14
ENDBRANCH  11  12
ENDBRANCH  10  11
ENDBRANCH   9  10
BRANCH   9  16
HETATM   16  C16 UNL     1      54.609 -35.923   0.060  1.00  0.00    -0.000 C
HETATM   17  C17 UNL     1      54.586 -34.439  -0.132  1.00  0.00     0.011 C
HETATM   18  C18 UNL     1      53.196 -36.451   0.262  1.00  0.00     0.011 C
ENDBRANCH   9  16
ENDBRANCH   7   9
ENDBRANCH   6   7
BRANCH   1  19
HETATM   19  O1  UNL     1      53.527 -33.562   2.906  1.00  0.00    -0.353 OA
HETATM   20  C1  UNL     1      52.147 -33.328   2.697  1.00  0.00     0.210 C
ENDBRANCH   1  19
BRANCH   5  21
HETATM   21  O4  UNL     1      56.282 -37.354   4.150  1.00  0.00    -0.351 OA
HETATM   22  C9  UNL     1      57.618 -36.995   4.420  1.00  0.00     0.210 C
ENDBRANCH   5  21
BRANCH   4  23
HETATM   23  O3  UNL     1      55.062 -37.481   6.528  1.00  0.00    -0.351 OA
HETATM   24  C7  UNL     1      54.734 -38.828   6.529  1.00  0.00     0.210 C
ENDBRANCH   4  23
BRANCH   3  25
HETATM   25  O2  UNL     1      53.067 -35.710   7.216  1.00  0.00    -0.353 OA
HETATM   26  C5  UNL     1      51.903 -34.983   7.527  1.00  0.00     0.210 C
ENDBRANCH   3  25
TORSDOF 11
ENDMDL