MODEL 5
REMARK VINA RESULT: -7.582418458      2.872      7.139
REMARK  10 active torsions:
REMARK  status: ('A' for Active; 'I' for Inactive)
REMARK    1  A    between atoms: C2_2  and  O1_3
REMARK    2  A    between atoms: O1_3  and  C3_4
REMARK    3  A    between atoms: C4_5  and  N1_6
REMARK    4  A    between atoms: N1_6  and  C5_8
REMARK    5  A    between atoms: C5_8  and  C6_9
REMARK    6  A    between atoms: C5_8  and  C8_11
REMARK    7  A    between atoms: C12_15  and  N2_16
REMARK       I    between atoms: N2_16  and  C13_18
REMARK    8  A    between atoms: C13_18  and  C14_20
REMARK    9  A    between atoms: C14_20  and  S1_21
REMARK   10  A    between atoms: C16_24  and  O3_25
ROOT
HETATM    1  S1  UNL     1      53.899 -36.211   6.037  1.00  0.00    -0.042 SA
HETATM    2  C15 UNL     1      53.205 -34.747   5.363  1.00  0.00     0.134 C
HETATM    3  N3  UNL     1      52.736 -33.788   4.921  1.00  0.00    -0.184 NA
ENDROOT
BRANCH   1   4
HETATM    4  C14 UNL     1      54.240 -37.409   4.750  1.00  0.00     0.193 C
BRANCH   4   5
HETATM    5  C13 UNL     1      55.237 -36.847   3.769  1.00  0.00     0.232 C
HETATM    6  N2  UNL     1      55.140 -37.106   2.401  1.00  0.00    -0.324 N
ATOM      7  H2  UNL     1      54.351 -37.696   2.135  1.00  0.00     0.169 HD
HETATM    8  O2  UNL     1      56.132 -36.146   4.288  1.00  0.00    -0.272 OA
BRANCH   6   9
HETATM    9  C12 UNL     1      55.941 -36.693   1.336  1.00  0.00     0.071 A
HETATM   10  C11 UNL     1      57.178 -37.230   1.117  1.00  0.00     0.035 A
HETATM   11  C10 UNL     1      58.002 -36.828   0.047  1.00  0.00     0.034 A
HETATM   12  C4  UNL     1      57.562 -35.865  -0.811  1.00  0.00     0.065 A
HETATM   13  C3  UNL     1      56.293 -35.301  -0.598  1.00  0.00     0.130 A
HETATM   14  C16 UNL     1      55.493 -35.694   0.442  1.00  0.00     0.130 A
BRANCH  12  15
HETATM   15  N1  UNL     1      58.369 -35.440  -1.898  1.00  0.00    -0.383 N
ATOM     16  H1  UNL     1      58.114 -35.783  -2.824  1.00  0.00     0.160 HD
BRANCH  15  17
HETATM   17  C5  UNL     1      59.500 -34.582  -1.818  1.00  0.00     0.081 C
BRANCH  17  18
HETATM   18  C6  UNL     1      60.742 -35.386  -2.196  1.00  0.00     0.020 C
HETATM   19  C7  UNL     1      61.562 -34.765  -3.271  1.00  0.00     0.007 C
ENDBRANCH  17  18
BRANCH  17  20
HETATM   20  C8  UNL     1      59.695 -34.035  -0.391  1.00  0.00     0.020 C
HETATM   21  C9  UNL     1      59.859 -32.553  -0.458  1.00  0.00     0.007 C
ENDBRANCH  17  20
ENDBRANCH  15  17
ENDBRANCH  12  15
BRANCH  13  22
HETATM   22  O1  UNL     1      55.880 -34.326  -1.490  1.00  0.00    -0.346 OA
BRANCH  22  23
HETATM   23  C2  UNL     1      55.996 -32.951  -1.355  1.00  0.00     0.171 C
HETATM   24  C1  UNL     1      56.603 -32.377  -2.649  1.00  0.00     0.034 C
ENDBRANCH  22  23
ENDBRANCH  13  22
BRANCH  14  25
HETATM   25  O3  UNL     1      54.229 -35.155   0.678  1.00  0.00    -0.351 OA
HETATM   26  C17 UNL     1      53.980 -34.062   1.511  1.00  0.00     0.210 C
ENDBRANCH  14  25
ENDBRANCH   6   9
ENDBRANCH   4   5
ENDBRANCH   1   4
TORSDOF 10
ENDMDL