MODEL 5
REMARK VINA RESULT: -8.995847390      1.317      4.420
REMARK  10 active torsions:
REMARK  status: ('A' for Active; 'I' for Inactive)
REMARK    1  A    between atoms: O1_2  and  C2_3
REMARK    2  A    between atoms: C2_3  and  C3_4
REMARK    3  A    between atoms: C3_4  and  C4_5
REMARK    4  A    between atoms: C3_4  and  N1_9
REMARK    5  A    between atoms: C4_5  and  C5_6
REMARK    6  A    between atoms: N1_9  and  C8_11
REMARK    7  A    between atoms: C14_17  and  N2_18
REMARK    8  A    between atoms: N2_18  and  C15_20
REMARK    9  A    between atoms: C15_20  and  C16_21
REMARK   10  A    between atoms: C16_21  and  C17_22
ROOT
HETATM    1  C8  UNL     1      54.365 -36.344   4.793  1.00  0.00     0.061 A
HETATM    2  C9  UNL     1      54.277 -36.755   6.095  1.00  0.00    -0.033 A
HETATM    3  C10 UNL     1      55.009 -37.954   6.614  1.00  0.00     0.050 C
HETATM    4  C11 UNL     1      53.497 -36.056   6.981  1.00  0.00     0.009 A
HETATM    5  C12 UNL     1      52.807 -34.944   6.554  1.00  0.00     0.003 A
HETATM    6  C13 UNL     1      52.893 -34.526   5.244  1.00  0.00     0.031 A
HETATM    7  C14 UNL     1      53.685 -35.228   4.332  1.00  0.00     0.055 A
ENDROOT
BRANCH   7   8
HETATM    8  N2  UNL     1      53.792 -34.781   2.991  1.00  0.00    -0.388 N
ATOM      9  H2  UNL     1      54.343 -33.943   2.806  1.00  0.00     0.159 HD
BRANCH   8  10
HETATM   10  C15 UNL     1      53.177 -35.435   1.898  1.00  0.00     0.126 C
BRANCH  10  11
HETATM   11  C16 UNL     1      52.088 -34.698   1.197  1.00  0.00     0.081 C
BRANCH  11  12
HETATM   12  C17 UNL     1      52.077 -33.257   1.630  1.00  0.00     0.060 A
HETATM   13  N3  UNL     1      51.229 -32.715   2.540  1.00  0.00    -0.244 N
HETATM   14  O2  UNL     1      51.516 -31.458   2.658  1.00  0.00    -0.157 OA
ATOM     15  H3  UNL     1      50.494 -33.211   3.044  1.00  0.00     0.196 HD
HETATM   16  N4  UNL     1      52.500 -31.107   1.891  1.00  0.00    -0.244 N
HETATM   17  C18 UNL     1      52.887 -32.226   1.220  1.00  0.00     0.055 A
ATOM     18  H4  UNL     1      52.905 -30.175   1.808  1.00  0.00     0.196 HD
HETATM   19  C19 UNL     1      53.979 -32.306   0.231  1.00  0.00     0.072 C
ENDBRANCH  11  12
ENDBRANCH  10  11
ENDBRANCH   8  10
ENDBRANCH   7   8
BRANCH   1  20
HETATM   20  N1  UNL     1      55.186 -37.112   3.927  1.00  0.00    -0.381 N
ATOM     21  H1  UNL     1      54.836 -38.026   3.638  1.00  0.00     0.160 HD
BRANCH  20  22
HETATM   22  C3  UNL     1      56.464 -36.707   3.425  1.00  0.00     0.106 C
BRANCH  22  23
HETATM   23  C2  UNL     1      57.606 -36.871   4.403  1.00  0.00     0.192 C
BRANCH  23  24
HETATM   24  O1  UNL     1      57.948 -35.657   4.995  1.00  0.00    -0.394 OA
HETATM   25  C1  UNL     1      58.744 -34.906   4.133  1.00  0.00     0.201 C
ENDBRANCH  23  24
ENDBRANCH  22  23
BRANCH  22  26
HETATM   26  C4  UNL     1      56.827 -37.487   2.179  1.00  0.00     0.031 C
BRANCH  26  27
HETATM   27  C5  UNL     1      57.213 -36.647   1.011  1.00  0.00    -0.021 C
HETATM   28  C6  UNL     1      55.929 -36.359   0.217  1.00  0.00     0.009 C
HETATM   29  C7  UNL     1      58.130 -37.414   0.070  1.00  0.00     0.009 C
ENDBRANCH  26  27
ENDBRANCH  22  26
ENDBRANCH  20  22
ENDBRANCH   1  20
TORSDOF 10
ENDMDL