MODEL 1
REMARK VINA RESULT: -8.319792356      0.000      0.000
REMARK  11 active torsions:
REMARK  status: ('A' for Active; 'I' for Inactive)
REMARK    1  A    between atoms: C2_2  and  C3_3
REMARK    2  A    between atoms: C3_3  and  N1_4
REMARK    3  A    between atoms: N1_4  and  C4_7
REMARK    4  A    between atoms: C4_7  and  O1_8
REMARK    5  A    between atoms: C4_7  and  C5_10
REMARK    6  A    between atoms: N3_13  and  C6_14
REMARK    7  A    between atoms: C6_14  and  C7_15
REMARK    8  A    between atoms: C6_14  and  C11_20
REMARK    9  A    between atoms: C7_15  and  O2_16
REMARK   10  A    between atoms: O2_16  and  C8_17
REMARK   11  A    between atoms: C11_20  and  C12_21
ROOT
HETATM    1  C5  UNL     1      53.522 -35.816   1.679  1.00  0.00     0.112 A
HETATM    2  N2  UNL     1      54.163 -36.322   2.745  1.00  0.00    -0.294 N
ATOM      3  H2  UNL     1      54.705 -37.186   2.744  1.00  0.00     0.187 HD
HETATM    4  N3  UNL     1      53.991 -35.530   3.809  1.00  0.00    -0.267 N
HETATM    5  C15 UNL     1      53.224 -34.470   3.471  1.00  0.00     0.153 A
HETATM    6  N4  UNL     1      52.637 -33.333   3.881  1.00  0.00    -0.329 N
ATOM      7  H4  UNL     1      52.688 -32.955   4.827  1.00  0.00     0.168 HD
HETATM    8  C16 UNL     1      51.972 -32.768   2.859  1.00  0.00     0.079 A
HETATM    9  C17 UNL     1      51.178 -31.488   2.886  1.00  0.00     0.089 C
HETATM   10  N5  UNL     1      52.162 -33.584   1.807  1.00  0.00    -0.341 N
ATOM     11  H5  UNL     1      51.775 -33.418   0.878  1.00  0.00     0.167 HD
HETATM   12  C18 UNL     1      52.924 -34.644   2.128  1.00  0.00     0.108 A
ENDROOT
BRANCH   4  13
HETATM   13  C6  UNL     1      54.560 -35.815   5.090  1.00  0.00     0.134 C
BRANCH  13  14
HETATM   14  C7  UNL     1      56.066 -35.872   4.975  1.00  0.00     0.195 C
BRANCH  14  15
HETATM   15  O2  UNL     1      56.510 -35.093   3.904  1.00  0.00    -0.385 OA
BRANCH  15  16
HETATM   16  C8  UNL     1      57.685 -35.575   3.375  1.00  0.00     0.113 C
HETATM   17  C9  UNL     1      58.890 -35.193   4.231  1.00  0.00     0.039 C
HETATM   18  C10 UNL     1      57.623 -37.094   3.334  1.00  0.00     0.039 C
ENDBRANCH  15  16
ENDBRANCH  14  15
ENDBRANCH  13  14
BRANCH  13  19
HETATM   19  C11 UNL     1      53.992 -37.057   5.691  1.00  0.00     0.033 C
BRANCH  19  20
HETATM   20  C12 UNL     1      54.881 -37.642   6.739  1.00  0.00    -0.021 C
HETATM   21  C13 UNL     1      54.303 -37.470   8.121  1.00  0.00     0.009 C
HETATM   22  C14 UNL     1      54.958 -39.156   6.498  1.00  0.00     0.009 C
ENDBRANCH  19  20
ENDBRANCH  13  19
ENDBRANCH   4  13
BRANCH   1  23
HETATM   23  C4  UNL     1      53.455 -36.378   0.304  1.00  0.00     0.373 C
BRANCH  23  24
HETATM   24  N1  UNL     1      54.236 -35.624  -0.631  1.00  0.00    -0.043 N
ATOM     25  H12 UNL     1      53.820 -34.706  -0.786  1.00  0.00     0.280 HD
ATOM     26  H11 UNL     1      54.146 -36.016  -1.569  1.00  0.00     0.280 HD
BRANCH  24  27
HETATM   27  C3  UNL     1      55.611 -35.497  -0.271  1.00  0.00     0.235 C
BRANCH  27  28
HETATM   28  C2  UNL     1      56.472 -36.599  -0.854  1.00  0.00     0.023 C
HETATM   29  C1  UNL     1      57.892 -36.496  -0.390  1.00  0.00     0.007 C
ENDBRANCH  27  28
ENDBRANCH  24  27
ENDBRANCH  23  24
BRANCH  23  30
HETATM   30  O1  UNL     1      52.134 -36.410  -0.083  1.00  0.00    -0.365 OA
ATOM     31  H1  UNL     1      51.584 -36.714   0.630  1.00  0.00     0.212 HD
ENDBRANCH  23  30
ENDBRANCH   1  23
TORSDOF 11
ENDMDL