MODEL 3
REMARK VINA RESULT: -8.922610557      2.058      5.240
REMARK  11 active torsions:
REMARK  status: ('A' for Active; 'I' for Inactive)
REMARK    1  A    between atoms: C2_2  and  C3_3
REMARK    2  A    between atoms: C2_2  and  C17_28
REMARK    3  A    between atoms: C3_3  and  C4_4
REMARK    4  A    between atoms: C4_4  and  C5_5
REMARK    5  A    between atoms: C5_5  and  C7_7
REMARK    6  A    between atoms: C7_7  and  O1_8
REMARK    7  A    between atoms: C7_7  and  C8_10
REMARK    8  A    between atoms: C8_10  and  N1_11
REMARK    9  A    between atoms: N1_11  and  C9_14
REMARK   10  A    between atoms: C9_14  and  C10_15
REMARK   11  A    between atoms: C12_18  and  C13_19
ROOT
HETATM    1  N1  UNL     1      54.428 -34.485  -0.419  1.00  0.00    -0.068 N
ATOM      2  H11 UNL     1      54.361 -35.129   0.369  1.00  0.00     0.277 HD
ATOM      3  H12 UNL     1      53.639 -34.817  -0.973  1.00  0.00     0.277 HD
ENDROOT
BRANCH   1   4
HETATM    4  C8  UNL     1      55.668 -34.664  -1.127  1.00  0.00     0.264 C
BRANCH   4   5
HETATM    5  C7  UNL     1      56.715 -35.197  -0.222  1.00  0.00     0.147 C
BRANCH   5   6
HETATM    6  C5  UNL     1      56.992 -36.683  -0.385  1.00  0.00     0.012 C
HETATM    7  C6  UNL     1      58.326 -36.886  -1.103  1.00  0.00     0.012 C
BRANCH   6   8
HETATM    8  C4  UNL     1      57.185 -37.228   1.006  1.00  0.00     0.011 C
BRANCH   8   9
HETATM    9  C3  UNL     1      56.553 -36.469   2.100  1.00  0.00     0.034 C
BRANCH   9  10
HETATM   10  C2  UNL     1      55.513 -37.211   2.818  1.00  0.00    -0.086 C
HETATM   11  C1  UNL     1      54.249 -37.152   2.460  1.00  0.00     0.014 C
BRANCH  10  12
HETATM   12  C17 UNL     1      55.892 -38.063   4.007  1.00  0.00     0.005 C
HETATM   13  C18 UNL     1      56.604 -37.213   5.015  1.00  0.00     0.014 C
HETATM   14  C19 UNL     1      54.679 -38.683   4.654  1.00  0.00     0.014 C
ENDBRANCH  10  12
ENDBRANCH   9  10
ENDBRANCH   8   9
ENDBRANCH   6   8
ENDBRANCH   5   6
BRANCH   5  15
HETATM   15  O1  UNL     1      57.918 -34.470  -0.443  1.00  0.00    -0.394 OA
ATOM     16  H1  UNL     1      57.866 -33.635   0.007  1.00  0.00     0.210 HD
ENDBRANCH   5  15
ENDBRANCH   4   5
ENDBRANCH   1   4
BRANCH   1  17
HETATM   17  C9  UNL     1      54.223 -33.135   0.004  1.00  0.00     0.291 C
BRANCH  17  18
HETATM   18  C10 UNL     1      53.445 -33.097   1.266  1.00  0.00     0.059 A
HETATM   19  C11 UNL     1      52.325 -32.352   1.567  1.00  0.00     0.171 A
HETATM   20  O2  UNL     1      51.959 -32.622   2.800  1.00  0.00    -0.302 OA
HETATM   21  C12 UNL     1      52.774 -33.502   3.331  1.00  0.00     0.176 A
HETATM   22  N3  UNL     1      53.691 -33.806   2.406  1.00  0.00    -0.335 N
ATOM     23  H3  UNL     1      54.457 -34.467   2.534  1.00  0.00     0.168 HD
BRANCH  21  24
HETATM   24  C13 UNL     1      52.733 -34.076   4.675  1.00  0.00     0.108 A
HETATM   25  C14 UNL     1      53.474 -35.139   5.148  1.00  0.00     0.070 A
HETATM   26  C15 UNL     1      53.144 -35.359   6.458  1.00  0.00     0.075 A
HETATM   27  C16 UNL     1      53.716 -36.418   7.347  1.00  0.00     0.079 C
HETATM   28  O3  UNL     1      52.242 -34.458   6.748  1.00  0.00    -0.242 OA
HETATM   29  N2  UNL     1      51.974 -33.690   5.735  1.00  0.00    -0.257 N
ATOM     30  H2  UNL     1      51.302 -32.922   5.735  1.00  0.00     0.195 HD
ENDBRANCH  21  24
ENDBRANCH  17  18
ENDBRANCH   1  17
TORSDOF 11
ENDMDL