MODEL 5
REMARK VINA RESULT: -7.397953021      2.808      3.795
REMARK  11 active torsions:
REMARK  status: ('A' for Active; 'I' for Inactive)
REMARK    1  A    between atoms: C2_2  and  C3_3
REMARK    2  A    between atoms: C3_3  and  C4_4
REMARK    3  A    between atoms: C4_4  and  S1_5
REMARK    4  A    between atoms: S1_5  and  C5_6
REMARK    5  A    between atoms: C6_9  and  N2_10
REMARK    6  A    between atoms: C7_15  and  N4_16
REMARK    7  A    between atoms: N4_16  and  C8_17
REMARK    8  A    between atoms: N4_16  and  C10_19
REMARK    9  A    between atoms: C10_19  and  C11_20
REMARK   10  A    between atoms: C10_19  and  C13_22
REMARK   11  A    between atoms: C15_24  and  N5_25
ROOT
HETATM    1  C5  UNL     1      52.765 -34.486   1.779  1.00  0.00     0.123 A
HETATM    2  N1  UNL     1      52.290 -35.171   0.735  1.00  0.00    -0.183 N
ATOM      3  H1  UNL     1      51.638 -34.729   0.087  1.00  0.00     0.185 HD
HETATM    4  C6  UNL     1      52.670 -36.435   0.541  1.00  0.00     0.678 A
HETATM    5  N3  UNL     1      53.524 -37.010   1.388  1.00  0.00    -0.174 N
ATOM      6  H3  UNL     1      53.797 -37.978   1.212  1.00  0.00     0.186 HD
HETATM    7  C7  UNL     1      54.052 -36.387   2.468  1.00  0.00     0.159 A
HETATM    8  C15 UNL     1      53.664 -35.091   2.674  1.00  0.00     0.181 A
ENDROOT
BRANCH   7   9
HETATM    9  N4  UNL     1      54.986 -37.095   3.322  1.00  0.00    -0.338 N
BRANCH   9  10
HETATM   10  C8  UNL     1      56.288 -37.296   2.745  1.00  0.00     0.126 C
HETATM   11  C9  UNL     1      57.295 -36.232   3.136  1.00  0.00     0.027 C
ENDBRANCH   9  10
BRANCH   9  12
HETATM   12  C10 UNL     1      54.591 -37.568   4.604  1.00  0.00    -0.010 C
BRANCH  12  13
HETATM   13  C11 UNL     1      55.001 -36.788   5.806  1.00  0.00     0.048 C
HETATM   14  C12 UNL     1      53.984 -36.516   6.847  1.00  0.00     0.011 C
ENDBRANCH  12  13
BRANCH  12  15
HETATM   15  C13 UNL     1      54.625 -39.065   4.781  1.00  0.00     0.048 C
HETATM   16  C14 UNL     1      55.456 -39.601   5.870  1.00  0.00     0.011 C
ENDBRANCH  12  15
ENDBRANCH   9  12
ENDBRANCH   7   9
BRANCH   8  17
HETATM   17  N5  UNL     1      54.103 -34.301   3.758  1.00  0.00    -0.109 N
HETATM   18  O1  UNL     1      55.243 -33.822   3.864  1.00  0.00    -0.532 OA
HETATM   19  O2  UNL     1      53.221 -34.030   4.772  1.00  0.00    -0.532 OA
ENDBRANCH   8  17
BRANCH   4  20
HETATM   20  N2  UNL     1      52.252 -37.158  -0.443  1.00  0.00    -0.234 N
ATOM     21  H22 UNL     1      52.922 -37.805  -0.857  1.00  0.00     0.174 HD
ATOM     22  H21 UNL     1      51.301 -37.105  -0.811  1.00  0.00     0.174 HD
ENDBRANCH   4  20
BRANCH   1  23
HETATM   23  S1  UNL     1      52.235 -32.802   2.007  1.00  0.00    -0.109 SA
BRANCH  23  24
HETATM   24  C4  UNL     1      53.042 -31.692   0.791  1.00  0.00     0.081 C
BRANCH  24  25
HETATM   25  C3  UNL     1      54.395 -32.235   0.404  1.00  0.00     0.010 C
BRANCH  25  26
HETATM   26  C2  UNL     1      54.445 -32.819  -0.975  1.00  0.00    -0.004 C
HETATM   27  C1  UNL     1      55.243 -34.109  -1.024  1.00  0.00     0.005 C
ENDBRANCH  25  26
ENDBRANCH  24  25
ENDBRANCH  23  24
ENDBRANCH   1  23
TORSDOF 11
ENDMDL