MODEL 3
REMARK VINA RESULT: -8.129252602      2.583      4.848
REMARK  10 active torsions:
REMARK  status: ('A' for Active; 'I' for Inactive)
REMARK    1  A    between atoms: O1_2  and  C2_3
REMARK    2  A    between atoms: C4_5  and  C5_6
REMARK    3  A    between atoms: C5_6  and  N1_7
REMARK    4  A    between atoms: N1_7  and  C6_9
REMARK    5  A    between atoms: C6_9  and  C7_10
REMARK    6  A    between atoms: C7_10  and  C8_11
REMARK    7  A    between atoms: C11_14  and  O2_15
REMARK    8  A    between atoms: O2_15  and  C12_16
REMARK    9  A    between atoms: C12_16  and  O3_19
REMARK   10  A    between atoms: C15_21  and  O4_22
ROOT
HETATM    1  C2  UNL     1      52.714 -33.320   2.591  1.00  0.00     0.105 A
HETATM    2  C3  UNL     1      53.004 -33.261   1.257  1.00  0.00     0.055 A
HETATM    3  C4  UNL     1      53.994 -34.032   0.693  1.00  0.00     0.018 A
HETATM    4  C11 UNL     1      54.751 -34.956   1.499  1.00  0.00     0.120 A
HETATM    5  C15 UNL     1      54.412 -34.964   2.803  1.00  0.00     0.139 A
HETATM    6  C17 UNL     1      53.461 -34.219   3.411  1.00  0.00     0.138 A
HETATM    7  O5  UNL     1      53.195 -34.276   4.676  1.00  0.00    -0.351 OA
HETATM    8  C18 UNL     1      52.871 -34.405   5.924  1.00  0.00     0.210 C
ENDROOT
BRANCH   1   9
HETATM    9  O1  UNL     1      51.763 -32.589   3.210  1.00  0.00    -0.353 OA
HETATM   10  C1  UNL     1      51.264 -31.358   2.841  1.00  0.00     0.210 C
ENDBRANCH   1   9
BRANCH   5  11
HETATM   11  O4  UNL     1      55.118 -35.848   3.660  1.00  0.00    -0.351 OA
HETATM   12  C16 UNL     1      54.406 -37.133   3.673  1.00  0.00     0.210 C
ENDBRANCH   5  11
BRANCH   4  13
HETATM   13  O2  UNL     1      55.637 -35.662   0.876  1.00  0.00    -0.311 OA
BRANCH  13  14
HETATM   14  C12 UNL     1      56.787 -36.114   0.500  1.00  0.00     0.160 C
HETATM   15  C13 UNL     1      57.277 -37.308   1.372  1.00  0.00     0.078 C
HETATM   16  C14 UNL     1      56.889 -36.623  -0.920  1.00  0.00     0.078 C
BRANCH  14  17
HETATM   17  O3  UNL     1      57.894 -35.200   0.728  1.00  0.00    -0.366 OA
ATOM     18  H3  UNL     1      58.062 -34.601   0.009  1.00  0.00     0.213 HD
ENDBRANCH  14  17
ENDBRANCH  13  14
ENDBRANCH   4  13
BRANCH   3  19
HETATM   19  C5  UNL     1      54.596 -33.677  -0.594  1.00  0.00     0.101 C
BRANCH  19  20
HETATM   20  N1  UNL     1      55.760 -33.100  -0.834  1.00  0.00    -0.378 N
ATOM     21  H1  UNL     1      56.015 -32.584   0.009  1.00  0.00     0.164 HD
BRANCH  20  22
HETATM   22  C6  UNL     1      56.748 -32.910  -1.728  1.00  0.00     0.061 C
BRANCH  22  23
HETATM   23  C7  UNL     1      57.726 -31.759  -1.521  1.00  0.00     0.048 C
BRANCH  23  24
HETATM   24  C8  UNL     1      59.108 -32.247  -1.843  1.00  0.00    -0.018 C
HETATM   25  C9  UNL     1      59.812 -32.559  -0.533  1.00  0.00     0.010 C
HETATM   26  C10 UNL     1      58.877 -33.702  -2.444  1.00  0.00     0.010 C
ENDBRANCH  23  24
ENDBRANCH  22  23
ENDBRANCH  20  22
ENDBRANCH  19  20
ENDBRANCH   3  19
TORSDOF 10
ENDMDL