MODEL 2
REMARK VINA RESULT: -7.304166480      1.792      4.599
REMARK  12 active torsions:
REMARK  status: ('A' for Active; 'I' for Inactive)
REMARK    1  A    between atoms: C2_2  and  O1_3
REMARK    2  A    between atoms: O1_3  and  C3_4
REMARK    3  A    between atoms: C3_4  and  C4_6
REMARK    4  A    between atoms: C5_7  and  O3_8
REMARK    5  A    between atoms: N1_11  and  C7_12
REMARK    6  A    between atoms: C7_12  and  C9_14
REMARK    7  A    between atoms: C9_14  and  C10_15
REMARK    8  A    between atoms: C13_18  and  N2_19
REMARK    9  A    between atoms: N2_19  and  C14_21
REMARK   10  A    between atoms: C14_21  and  C15_22
REMARK   11  A    between atoms: C15_22  and  S1_23
REMARK   12  A    between atoms: S1_23  and  C16_24
ROOT
HETATM    1  C4  UNL     1      53.749 -35.910   6.161  1.00  0.00     0.117 A
HETATM    2  C5  UNL     1      52.593 -35.133   6.465  1.00  0.00     0.101 A
HETATM    3  C6  UNL     1      52.333 -34.315   5.421  1.00  0.00     0.130 A
HETATM    4  N1  UNL     1      53.253 -34.535   4.488  1.00  0.00    -0.336 N
HETATM    5  C13 UNL     1      54.140 -35.513   4.916  1.00  0.00     0.123 A
ENDROOT
BRANCH   5   6
HETATM    6  N2  UNL     1      55.213 -35.954   4.121  1.00  0.00    -0.374 N
ATOM      7  H2  UNL     1      54.947 -36.703   3.482  1.00  0.00     0.161 HD
BRANCH   6   8
HETATM    8  C14 UNL     1      56.565 -35.602   4.007  1.00  0.00     0.131 C
BRANCH   8   9
HETATM    9  C15 UNL     1      57.453 -36.851   3.734  1.00  0.00     0.093 C
BRANCH   9  10
HETATM   10  S1  UNL     1      57.148 -37.497   2.087  1.00  0.00    -0.168 SA
BRANCH  10  11
HETATM   11  C16 UNL     1      57.661 -36.352   0.795  1.00  0.00     0.069 C
HETATM   12  C17 UNL     1      58.024 -37.077  -0.495  1.00  0.00     0.016 C
ENDBRANCH  10  11
ENDBRANCH   9  10
ENDBRANCH   8   9
ENDBRANCH   6   8
ENDBRANCH   5   6
BRANCH   1  13
HETATM   13  C3  UNL     1      54.283 -36.882   7.086  1.00  0.00     0.299 C
HETATM   14  O2  UNL     1      53.970 -37.053   8.241  1.00  0.00    -0.259 OA
BRANCH  13  15
HETATM   15  O1  UNL     1      55.294 -37.756   6.618  1.00  0.00    -0.318 OA
BRANCH  15  16
HETATM   16  C2  UNL     1      54.946 -39.139   6.414  1.00  0.00     0.174 C
HETATM   17  C1  UNL     1      54.843 -39.365   4.944  1.00  0.00     0.034 C
ENDBRANCH  15  16
ENDBRANCH  13  15
ENDBRANCH   1  13
BRANCH   4  18
HETATM   18  C7  UNL     1      53.314 -33.841   3.204  1.00  0.00     0.087 C
HETATM   19  C8  UNL     1      52.231 -32.779   3.227  1.00  0.00     0.033 C
BRANCH  18  20
HETATM   20  C9  UNL     1      53.001 -34.799   2.092  1.00  0.00     0.029 C
BRANCH  20  21
HETATM   21  C10 UNL     1      54.154 -34.924   1.118  1.00  0.00    -0.021 C
HETATM   22  C11 UNL     1      54.026 -36.181   0.313  1.00  0.00     0.009 C
HETATM   23  C12 UNL     1      54.070 -33.741   0.181  1.00  0.00     0.009 C
ENDBRANCH  20  21
ENDBRANCH  18  20
ENDBRANCH   4  18
BRANCH   2  24
HETATM   24  O3  UNL     1      51.857 -35.202   7.633  1.00  0.00    -0.358 OA
ATOM     25  H3  UNL     1      50.961 -34.906   7.743  1.00  0.00     0.217 HD
ENDBRANCH   2  24
TORSDOF 12
ENDMDL