MODEL 4
REMARK VINA RESULT: -7.937750794      2.372      3.597
REMARK  11 active torsions:
REMARK  status: ('A' for Active; 'I' for Inactive)
REMARK    1  A    between atoms: O1_2  and  C2_3
REMARK    2  A    between atoms: C4_5  and  N1_6
REMARK    3  A    between atoms: N1_6  and  C5_8
REMARK    4  A    between atoms: C5_8  and  C6_9
REMARK    5  A    between atoms: C6_9  and  C7_10
REMARK    6  A    between atoms: C7_10  and  C8_11
REMARK    7  A    between atoms: C8_11  and  N2_13
REMARK       I    between atoms: N2_13  and  C10_15
REMARK    8  A    between atoms: C10_15  and  C11_17
REMARK    9  A    between atoms: C14_20  and  N3_21
REMARK   10  A    between atoms: N3_21  and  O3_23
REMARK   11  A    between atoms: C15_25  and  O4_26
ROOT
HETATM    1  C2  UNL     1      54.366 -37.368   4.060  1.00  0.00     0.073 A
HETATM    2  C3  UNL     1      54.834 -37.033   2.774  1.00  0.00     0.068 A
HETATM    3  C4  UNL     1      54.824 -35.725   2.340  1.00  0.00     0.062 A
HETATM    4  C14 UNL     1      54.332 -34.802   3.251  1.00  0.00     0.114 A
HETATM    5  C15 UNL     1      53.867 -35.078   4.507  1.00  0.00     0.101 A
HETATM    6  C17 UNL     1      53.888 -36.397   4.915  1.00  0.00     0.076 A
ENDROOT
BRANCH   3   7
HETATM    7  N1  UNL     1      55.203 -35.302   1.074  1.00  0.00    -0.388 N
ATOM      8  H1  UNL     1      55.557 -34.346   1.081  1.00  0.00     0.159 HD
BRANCH   7   9
HETATM    9  C5  UNL     1      55.221 -35.864  -0.225  1.00  0.00     0.120 C
BRANCH   9  10
HETATM   10  C6  UNL     1      56.446 -36.386  -0.818  1.00  0.00     0.022 C
BRANCH  10  11
HETATM   11  C7  UNL     1      57.705 -36.036  -0.118  1.00  0.00     0.026 C
BRANCH  11  12
HETATM   12  C8  UNL     1      58.749 -35.210  -0.723  1.00  0.00     0.080 C
HETATM   13  C9  UNL     1      59.636 -35.741  -1.784  1.00  0.00     0.032 C
BRANCH  12  14
HETATM   14  N2  UNL     1      58.065 -34.032  -1.322  1.00  0.00    -0.357 N
HETATM   15  C10 UNL     1      58.454 -32.711  -1.090  1.00  0.00     0.221 C
HETATM   16  O2  UNL     1      59.433 -32.398  -0.342  1.00  0.00    -0.273 OA
ATOM     17  H2  UNL     1      57.268 -34.199  -1.937  1.00  0.00     0.162 HD
BRANCH  15  18
HETATM   18  C11 UNL     1      57.690 -31.607  -1.745  1.00  0.00     0.070 C
HETATM   19  C12 UNL     1      58.564 -30.780  -2.646  1.00  0.00     0.019 C
HETATM   20  C13 UNL     1      56.564 -32.274  -2.552  1.00  0.00     0.019 C
ENDBRANCH  15  18
ENDBRANCH  12  14
ENDBRANCH  11  12
ENDBRANCH  10  11
ENDBRANCH   9  10
ENDBRANCH   7   9
ENDBRANCH   3   7
BRANCH   4  21
HETATM   21  N3  UNL     1      54.309 -33.427   2.851  1.00  0.00    -0.264 N
ATOM     22  H3  UNL     1      55.152 -32.904   2.614  1.00  0.00     0.194 HD
BRANCH  21  23
HETATM   23  O3  UNL     1      53.148 -32.918   2.818  1.00  0.00    -0.289 OA
ATOM     24  H3  UNL     1      53.012 -32.222   3.451  1.00  0.00     0.244 HD
ENDBRANCH  21  23
ENDBRANCH   4  21
BRANCH   1  25
HETATM   25  O1  UNL     1      54.378 -38.687   4.481  1.00  0.00    -0.356 OA
HETATM   26  C1  UNL     1      54.836 -39.092   5.725  1.00  0.00     0.210 C
ENDBRANCH   1  25
BRANCH   5  27
HETATM   27  O4  UNL     1      53.388 -34.058   5.352  1.00  0.00    -0.353 OA
HETATM   28  C16 UNL     1      52.487 -34.411   6.369  1.00  0.00     0.210 C
ENDBRANCH   5  27
TORSDOF 11
ENDMDL