MODEL 3
REMARK VINA RESULT: -6.531129314      1.339      1.639
REMARK  4 active torsions:
REMARK  status: ('A' for Active; 'I' for Inactive)
REMARK    1  A    between atoms: N2_4  and  N3_6
REMARK       I    between atoms: N3_6  and  C1_8
REMARK       I    between atoms: C1_8  and  N5_12
REMARK    2  A    between atoms: N5_12  and  N6_14
REMARK    3  A    between atoms: N6_14  and  O1_16
REMARK    4  A    between atoms: O1_16  and  C2_17
ROOT
HETATM    1  N3  UNL     1      58.057  69.932  62.064  1.00  0.00    -0.117 N
ATOM      2  H3  UNL     1      58.984  70.357  62.043  1.00  0.00     0.207 HD
HETATM    3  C1  UNL     1      57.922  68.547  61.760  1.00  0.00     0.707 C
HETATM    4  N4  UNL     1      56.780  68.022  61.564  1.00  0.00    -0.232 N
ATOM      5  H41 UNL     1      56.683  67.031  61.346  1.00  0.00     0.174 HD
ATOM      6  H42 UNL     1      55.936  68.593  61.623  1.00  0.00     0.174 HD
HETATM    7  N5  UNL     1      59.093  67.753  61.677  1.00  0.00    -0.111 N
ATOM      8  H5  UNL     1      59.849  67.882  62.350  1.00  0.00     0.207 HD
ENDROOT
BRANCH   1   9
HETATM    9  N2  UNL     1      56.956  70.720  62.391  1.00  0.00    -0.235 N
HETATM   10  N1  UNL     1      56.986  71.948  62.125  1.00  0.00    -0.330 N
ATOM     11  H12 UNL     1      57.811  72.346  61.677  1.00  0.00     0.178 HD
ATOM     12  H11 UNL     1      56.179  72.526  62.364  1.00  0.00     0.178 HD
ATOM     13  H2  UNL     1      56.139  70.307  62.839  1.00  0.00     0.208 HD
ENDBRANCH   1   9
BRANCH   7  14
HETATM   14  N6  UNL     1      59.199  66.870  60.749  1.00  0.00    -0.184 N
ATOM     15  H6  UNL     1      59.302  65.873  60.941  1.00  0.00     0.217 HD
BRANCH  14  16
HETATM   16  O1  UNL     1      59.159  67.392  59.456  1.00  0.00    -0.189 OA
BRANCH  16  17
HETATM   17  C2  UNL     1      58.114  66.957  58.654  1.00  0.00     0.251 C
HETATM   18  N7  UNL     1      58.037  67.475  57.471  1.00  0.00    -0.366 N
ATOM     19  H72 UNL     1      58.722  68.167  57.167  1.00  0.00     0.159 HD
ATOM     20  H71 UNL     1      57.268  67.156  56.881  1.00  0.00     0.159 HD
HETATM   21  N8  UNL     1      57.160  65.995  59.077  1.00  0.00    -0.055 NA
ENDBRANCH  16  17
ENDBRANCH  14  16
ENDBRANCH   7  14
TORSDOF 4
ENDMDL