MODEL 5
REMARK VINA RESULT: -6.636445910      0.831      2.491
REMARK  1 active torsions:
REMARK  status: ('A' for Active; 'I' for Inactive)
REMARK    1  A    between atoms: C4_13  and  C5_14
ROOT
HETATM    1  N1  UNL     1      56.762  69.258  62.343  1.00  0.00    -0.384 N
ATOM      2  H11 UNL     1      55.900  68.715  62.305  1.00  0.00     0.157 HD
ATOM      3  H12 UNL     1      56.751  70.063  62.969  1.00  0.00     0.157 HD
HETATM    4  C1  UNL     1      57.692  68.842  61.614  1.00  0.00     0.121 A
HETATM    5  N2  UNL     1      58.854  69.574  61.666  1.00  0.00    -0.294 N
ATOM      6  H2  UNL     1      58.890  70.390  62.279  1.00  0.00     0.172 HD
HETATM    7  C2  UNL     1      59.942  69.262  60.947  1.00  0.00     0.327 A
HETATM    8  O1  UNL     1      60.996  69.958  61.019  1.00  0.00    -0.247 OA
HETATM    9  N3  UNL     1      59.948  68.196  60.123  1.00  0.00    -0.296 N
ATOM     10  H3  UNL     1      60.781  67.967  59.581  1.00  0.00     0.171 HD
HETATM   11  C3  UNL     1      58.848  67.439  60.023  1.00  0.00     0.139 A
HETATM   12  N4  UNL     1      58.855  66.306  59.148  1.00  0.00    -0.081 NA
HETATM   13  C4  UNL     1      57.707  67.759  60.773  1.00  0.00     0.114 A
ENDROOT
BRANCH  13  14
HETATM   14  C5  UNL     1      56.538  66.922  60.643  1.00  0.00     0.272 C
HETATM   15  N5  UNL     1      55.636  66.545  61.646  1.00  0.00    -0.057 NA
HETATM   16  O2  UNL     1      56.291  66.466  59.469  1.00  0.00    -0.271 OA
ENDBRANCH  13  14
TORSDOF 1
ENDMDL