MODEL 5
REMARK VINA RESULT: -6.016609695      2.324      4.408
REMARK  3 active torsions:
REMARK  status: ('A' for Active; 'I' for Inactive)
REMARK    1  A    between atoms: C3_4  and  C4_5
REMARK       I    between atoms: C4_5  and  N2_7
REMARK    2  A    between atoms: N2_7  and  N3_9
REMARK    3  A    between atoms: N5_15  and  N6_17
ROOT
HETATM    1  C1  UNL     1      54.499  68.265  62.851  1.00  0.00     0.175 C
HETATM    2  N1  UNL     1      55.752  68.996  62.683  1.00  0.00    -0.194 N
HETATM    3  C2  UNL     1      56.057  70.173  63.251  1.00  0.00     0.144 A
HETATM    4  C3  UNL     1      57.316  70.581  62.885  1.00  0.00     0.134 A
HETATM    5  N4  UNL     1      57.776  69.596  62.060  1.00  0.00    -0.183 N
ATOM      6  H4  UNL     1      58.688  69.580  61.605  1.00  0.00     0.184 HD
HETATM    7  C5  UNL     1      56.819  68.638  61.945  1.00  0.00     0.698 A
HETATM    8  N5  UNL     1      56.859  67.544  61.260  1.00  0.00    -0.138 N
ATOM      9  H5  UNL     1      56.058  66.913  61.266  1.00  0.00     0.205 HD
ENDROOT
BRANCH   4  10
HETATM   10  C4  UNL     1      58.034  71.791  63.270  1.00  0.00     0.288 C
HETATM   11  O1  UNL     1      58.293  71.963  64.488  1.00  0.00    -0.264 OA
HETATM   12  N2  UNL     1      58.449  72.771  62.347  1.00  0.00    -0.271 N
ATOM     13  H2  UNL     1      58.239  72.630  61.359  1.00  0.00     0.189 HD
BRANCH  12  14
HETATM   14  N3  UNL     1      59.137  73.927  62.725  1.00  0.00    -0.342 N
ATOM     15  H32 UNL     1      59.705  73.882  63.571  1.00  0.00     0.176 HD
ATOM     16  H31 UNL     1      59.092  74.798  62.195  1.00  0.00     0.176 HD
ENDBRANCH  12  14
ENDBRANCH   4  10
BRANCH   8  17
HETATM   17  N6  UNL     1      57.989  67.219  60.511  1.00  0.00    -0.331 N
ATOM     18  H62 UNL     1      57.996  67.436  59.515  1.00  0.00     0.177 HD
ATOM     19  H61 UNL     1      58.793  66.772  60.953  1.00  0.00     0.177 HD
ENDBRANCH   8  17
TORSDOF 3
ENDMDL