MODEL 3
REMARK VINA RESULT: -6.652073199      0.688      1.151
REMARK  3 active torsions:
REMARK  status: ('A' for Active; 'I' for Inactive)
REMARK    1  A    between atoms: N1_1  and  C1_4
REMARK    2  A    between atoms: C2_7  and  N3_8
REMARK    3  A    between atoms: N3_8  and  N4_10
ROOT
HETATM    1  C1  UNL     1      59.108  67.118  59.337  1.00  0.00     0.256 A
HETATM    2  N2  UNL     1      58.123  67.906  59.826  1.00  0.00    -0.150 N
ATOM      3  H2  UNL     1      57.335  68.290  59.305  1.00  0.00     0.188 HD
HETATM    4  C2  UNL     1      58.386  68.083  61.130  1.00  0.00     0.720 A
HETATM    5  N7  UNL     1      59.497  67.425  61.426  1.00  0.00    -0.086 N
ATOM      6  H7  UNL     1      59.943  67.376  62.342  1.00  0.00     0.214 HD
HETATM    7  O1  UNL     1      59.911  66.855  60.336  1.00  0.00    -0.186 OA
ENDROOT
BRANCH   4   8
HETATM    8  N3  UNL     1      57.635  68.791  61.904  1.00  0.00    -0.128 N
ATOM      9  H3  UNL     1      56.788  68.359  62.274  1.00  0.00     0.205 HD
BRANCH   8  10
HETATM   10  N4  UNL     1      57.904  70.091  62.260  1.00  0.00    -0.262 N
HETATM   11  C3  UNL     1      57.115  70.841  62.951  1.00  0.00     0.216 C
HETATM   12  N5  UNL     1      55.871  70.308  63.387  1.00  0.00    -0.065 NA
HETATM   13  N6  UNL     1      57.420  72.176  63.303  1.00  0.00    -0.065 NA
ATOM     14  H4  UNL     1      58.792  70.491  61.957  1.00  0.00     0.190 HD
ENDBRANCH   8  10
ENDBRANCH   4   8
BRANCH   1  15
HETATM   15  N1  UNL     1      59.235  66.704  58.118  1.00  0.00    -0.363 N
ATOM     16  H12 UNL     1      59.944  66.061  57.766  1.00  0.00     0.159 HD
ATOM     17  H11 UNL     1      58.648  66.957  57.322  1.00  0.00     0.159 HD
ENDBRANCH   1  15
TORSDOF 3
ENDMDL