MODEL 5
REMARK VINA RESULT: -6.544476353      2.403      3.214
REMARK  3 active torsions:
REMARK  status: ('A' for Active; 'I' for Inactive)
REMARK    1  A    between atoms: N1_1  and  C1_4
REMARK    2  A    between atoms: C2_7  and  C3_8
REMARK       I    between atoms: C3_8  and  N3_10
REMARK    3  A    between atoms: N3_10  and  N4_12
ROOT
HETATM    1  C1  UNL     1      56.712  67.508  61.623  1.00  0.00     0.681 A
HETATM    2  N2  UNL     1      56.551  68.720  62.184  1.00  0.00    -0.171 N
ATOM      3  H2  UNL     1      55.672  68.934  62.655  1.00  0.00     0.186 HD
HETATM    4  C2  UNL     1      57.520  69.667  62.141  1.00  0.00     0.195 A
HETATM    5  N5  UNL     1      58.666  69.402  61.530  1.00  0.00    -0.289 N
ATOM      6  H5  UNL     1      59.406  70.102  61.488  1.00  0.00     0.172 HD
HETATM    7  C4  UNL     1      58.836  68.191  60.966  1.00  0.00     0.340 A
HETATM    8  O2  UNL     1      59.930  67.954  60.389  1.00  0.00    -0.246 OA
HETATM    9  N6  UNL     1      57.865  67.235  61.006  1.00  0.00    -0.141 N
ATOM     10  H6  UNL     1      58.017  66.326  60.570  1.00  0.00     0.189 HD
ENDROOT
BRANCH   4  11
HETATM   11  C3  UNL     1      57.282  70.973  62.773  1.00  0.00     0.304 C
HETATM   12  O1  UNL     1      57.889  71.274  63.828  1.00  0.00    -0.263 OA
HETATM   13  N3  UNL     1      56.362  71.869  62.167  1.00  0.00    -0.270 N
ATOM     14  H3  UNL     1      55.876  71.610  61.309  1.00  0.00     0.189 HD
BRANCH  13  15
HETATM   15  N4  UNL     1      56.134  73.109  62.765  1.00  0.00    -0.342 N
ATOM     16  H42 UNL     1      55.219  73.551  62.674  1.00  0.00     0.176 HD
ATOM     17  H41 UNL     1      56.891  73.554  63.285  1.00  0.00     0.176 HD
ENDBRANCH  13  15
ENDBRANCH   4  11
BRANCH   1  18
HETATM   18  N1  UNL     1      55.756  66.644  61.695  1.00  0.00    -0.234 N
ATOM     19  H12 UNL     1      55.747  65.906  62.398  1.00  0.00     0.174 HD
ATOM     20  H11 UNL     1      54.984  66.696  61.030  1.00  0.00     0.174 HD
ENDBRANCH   1  18
TORSDOF 3
ENDMDL