MODEL 5
REMARK VINA RESULT: -5.211111817      1.543      2.965
REMARK  1 active torsions:
REMARK  status: ('A' for Active; 'I' for Inactive)
REMARK       I    between atoms: C2_4  and  N3_6
REMARK    1  A    between atoms: N6_14  and  N7_15
ROOT
HETATM    1  C1  UNL     1      56.475  70.432  62.678  1.00  0.00     0.148 C
HETATM    2  N1  UNL     1      55.828  69.181  62.930  1.00  0.00    -0.368 N
ATOM      3  H1  UNL     1      55.397  69.058  63.846  1.00  0.00     0.161 HD
HETATM    4  C2  UNL     1      55.741  68.203  62.109  1.00  0.00     0.202 C
HETATM    5  N2  UNL     1      55.049  67.037  62.561  1.00  0.00    -0.063 NA
HETATM    6  N3  UNL     1      56.264  68.174  60.808  1.00  0.00    -0.162 N
ATOM      7  H3  UNL     1      55.689  68.467  60.019  1.00  0.00     0.187 HD
HETATM    8  C3  UNL     1      57.466  67.778  60.614  1.00  0.00     0.698 C
HETATM    9  N4  UNL     1      58.043  67.732  59.291  1.00  0.00    -0.186 N
ATOM     10  H4  UNL     1      57.523  68.013  58.459  1.00  0.00     0.185 HD
HETATM   11  C4  UNL     1      59.259  67.313  59.231  1.00  0.00     0.213 C
HETATM   12  N5  UNL     1      60.001  66.915  60.379  1.00  0.00    -0.278 N
ATOM     13  H5  UNL     1      60.764  66.241  60.310  1.00  0.00     0.185 HD
HETATM   14  N6  UNL     1      59.645  67.485  61.607  1.00  0.00    -0.031 NA
HETATM   15  N8  UNL     1      58.253  67.371  61.712  1.00  0.00    -0.115 N
ATOM     16  H8  UNL     1      57.820  67.003  62.560  1.00  0.00     0.203 HD
ENDROOT
BRANCH  14  17
HETATM   17  N7  UNL     1      59.927  68.874  61.563  1.00  0.00    -0.327 NA
ATOM     18  H72 UNL     1      60.867  68.963  61.178  1.00  0.00     0.174 HD
ATOM     19  H71 UNL     1      59.968  69.230  62.518  1.00  0.00     0.174 HD
ENDBRANCH  14  17
TORSDOF 1
ENDMDL