MODEL 1
REMARK VINA RESULT: -5.788602017      0.000      0.000
REMARK  5 active torsions:
REMARK  status: ('A' for Active; 'I' for Inactive)
REMARK    1  A    between atoms: C1_4  and  C2_6
REMARK    2  A    between atoms: C2_6  and  N3_7
REMARK    3  A    between atoms: C3_10  and  O1_11
REMARK    4  A    between atoms: C3_10  and  N4_13
REMARK    5  A    between atoms: N4_13  and  N5_15
ROOT
HETATM    1  C2  UNL     1      57.803  67.482  60.612  1.00  0.00     0.132 C
HETATM    2  C3  UNL     1      57.456  67.227  59.257  1.00  0.00     0.185 C
ENDROOT
BRANCH   1   3
HETATM    3  C1  UNL     1      59.100  67.875  61.098  1.00  0.00     0.141 C
HETATM    4  N1  UNL     1      59.782  67.454  62.041  1.00  0.00    -0.386 N
ATOM      5  H12 UNL     1      60.701  67.733  62.385  1.00  0.00     0.157 HD
ATOM      6  H11 UNL     1      59.317  66.696  62.541  1.00  0.00     0.157 HD
HETATM    7  N2  UNL     1      59.775  68.976  60.371  1.00  0.00    -0.081 NA
ENDBRANCH   1   3
BRANCH   1   8
HETATM    8  N3  UNL     1      56.884  67.357  61.531  1.00  0.00    -0.313 N
HETATM    9  S1  UNL     1      56.037  68.633  62.324  1.00  0.00     0.043 SA
ATOM     10  H3  UNL     1      56.642  66.406  61.809  1.00  0.00     0.175 HD
ENDBRANCH   1   8
BRANCH   2  11
HETATM   11  O1  UNL     1      56.227  66.876  58.974  1.00  0.00    -0.343 OA
ATOM     12  H1  UNL     1      55.645  67.517  58.584  1.00  0.00     0.219 HD
ENDBRANCH   2  11
BRANCH   2  13
HETATM   13  N4  UNL     1      58.294  67.304  58.120  1.00  0.00    -0.285 N
ATOM     14  H4  UNL     1      57.967  67.785  57.282  1.00  0.00     0.188 HD
BRANCH  13  15
HETATM   15  N5  UNL     1      59.581  66.721  58.136  1.00  0.00    -0.343 N
ATOM     16  H52 UNL     1      59.722  65.830  57.661  1.00  0.00     0.176 HD
ATOM     17  H51 UNL     1      60.353  67.185  58.615  1.00  0.00     0.176 HD
ENDBRANCH  13  15
ENDBRANCH   2  13
TORSDOF 5
ENDMDL