MODEL 3
REMARK VINA RESULT: -6.319978306      1.129      1.129
REMARK  3 active torsions:
REMARK  status: ('A' for Active; 'I' for Inactive)
REMARK    1  A    between atoms: N1_1  and  C1_4
REMARK    2  A    between atoms: C2_9  and  C3_10
REMARK       I    between atoms: C3_10  and  N4_12
REMARK    3  A    between atoms: N4_12  and  N5_14
ROOT
HETATM    1  C1  UNL     1      57.001  70.406  62.856  1.00  0.00     0.693 A
HETATM    2  N2  UNL     1      58.184  70.492  62.221  1.00  0.00    -0.132 N
ATOM      3  H2  UNL     1      58.747  71.335  62.334  1.00  0.00     0.205 HD
HETATM    4  N3  UNL     1      58.643  69.503  61.447  1.00  0.00    -0.277 N
ATOM      5  H3  UNL     1      59.545  69.611  60.985  1.00  0.00     0.188 HD
HETATM    6  C2  UNL     1      57.943  68.367  61.261  1.00  0.00     0.187 A
HETATM    7  C4  UNL     1      56.730  68.275  61.910  1.00  0.00     0.293 A
HETATM    8  O2  UNL     1      56.068  67.233  61.750  1.00  0.00    -0.265 OA
HETATM    9  N6  UNL     1      56.276  69.286  62.693  1.00  0.00    -0.153 N
ATOM     10  H6  UNL     1      55.375  69.195  63.163  1.00  0.00     0.187 HD
ENDROOT
BRANCH   6  11
HETATM   11  C3  UNL     1      58.450  67.285  60.411  1.00  0.00     0.293 C
HETATM   12  O1  UNL     1      59.665  67.042  60.366  1.00  0.00    -0.264 OA
HETATM   13  N4  UNL     1      57.583  66.488  59.626  1.00  0.00    -0.271 N
ATOM     14  H4  UNL     1      56.580  66.674  59.652  1.00  0.00     0.189 HD
BRANCH  13  15
HETATM   15  N5  UNL     1      58.047  65.474  58.830  1.00  0.00    -0.342 N
ATOM     16  H52 UNL     1      57.567  65.303  57.947  1.00  0.00     0.176 HD
ATOM     17  H51 UNL     1      58.846  64.899  59.096  1.00  0.00     0.176 HD
ENDBRANCH  13  15
ENDBRANCH   6  11
BRANCH   1  18
HETATM   18  N1  UNL     1      56.575  71.379  63.603  1.00  0.00    -0.233 N
ATOM     19  H12 UNL     1      56.949  72.323  63.505  1.00  0.00     0.174 HD
ATOM     20  H11 UNL     1      55.855  71.219  64.308  1.00  0.00     0.174 HD
ENDBRANCH   1  18
TORSDOF 3
ENDMDL