MODEL 1
REMARK VINA RESULT: -6.157460027      0.000      0.000
REMARK  4 active torsions:
REMARK  status: ('A' for Active; 'I' for Inactive)
REMARK    1  A    between atoms: N1_1  and  C1_4
REMARK    2  A    between atoms: C3_8  and  C4_9
REMARK       I    between atoms: C4_9  and  N3_11
REMARK    3  A    between atoms: N3_11  and  N4_13
REMARK    4  A    between atoms: N4_13  and  N5_15
ROOT
HETATM    1  C1  UNL     1      55.764  70.099  63.330  1.00  0.00     0.675 A
HETATM    2  N2  UNL     1      55.225  68.940  62.869  1.00  0.00    -0.201 N
ATOM      3  H2  UNL     1      54.266  68.667  63.081  1.00  0.00     0.183 HD
HETATM    4  C2  UNL     1      56.037  68.177  62.118  1.00  0.00     0.124 A
HETATM    5  C3  UNL     1      57.341  68.512  61.811  1.00  0.00     0.065 A
HETATM    6  C5  UNL     1      57.830  69.697  62.306  1.00  0.00     0.124 A
HETATM    7  N6  UNL     1      57.020  70.467  63.060  1.00  0.00    -0.201 N
ATOM      8  H6  UNL     1      57.374  71.349  63.432  1.00  0.00     0.183 HD
ENDROOT
BRANCH   5   9
HETATM    9  C4  UNL     1      58.186  67.646  60.989  1.00  0.00     0.273 C
HETATM   10  O1  UNL     1      59.430  67.609  61.255  1.00  0.00    -0.266 OA
HETATM   11  N3  UNL     1      57.646  66.878  59.934  1.00  0.00    -0.252 N
ATOM     12  H3  UNL     1      56.642  66.944  59.766  1.00  0.00     0.191 HD
BRANCH  11  13
HETATM   13  N4  UNL     1      58.379  66.044  59.113  1.00  0.00    -0.246 N
ATOM     14  H4  UNL     1      58.276  65.029  59.129  1.00  0.00     0.207 HD
BRANCH  13  15
HETATM   15  N5  UNL     1      59.268  66.695  58.262  1.00  0.00    -0.331 N
ATOM     16  H52 UNL     1      59.545  67.664  58.417  1.00  0.00     0.178 HD
ATOM     17  H51 UNL     1      59.612  66.128  57.487  1.00  0.00     0.178 HD
ENDBRANCH  13  15
ENDBRANCH  11  13
ENDBRANCH   5   9
BRANCH   1  18
HETATM   18  N1  UNL     1      54.986  70.846  64.065  1.00  0.00    -0.234 N
ATOM     19  H12 UNL     1      55.365  71.424  64.815  1.00  0.00     0.174 HD
ATOM     20  H11 UNL     1      53.990  70.812  63.847  1.00  0.00     0.174 HD
ENDBRANCH   1  18
TORSDOF 4
ENDMDL