MODEL 5
REMARK VINA RESULT: -5.370751304      2.251      3.082
REMARK  3 active torsions:
REMARK  status: ('A' for Active; 'I' for Inactive)
REMARK       I    between atoms: C1_4  and  N2_5
REMARK       I    between atoms: C1_4  and  N4_10
REMARK    1  A    between atoms: N2_5  and  N3_7
REMARK    2  A    between atoms: N4_10  and  S1_12
REMARK    3  A    between atoms: S1_12  and  N5_13
ROOT
HETATM    1  N1  UNL     1      57.301  67.124  60.955  1.00  0.00    -0.233 N
ATOM      2  H11 UNL     1      57.858  67.243  61.801  1.00  0.00     0.174 HD
ATOM      3  H12 UNL     1      56.418  66.614  60.939  1.00  0.00     0.174 HD
HETATM    4  C1  UNL     1      57.729  67.640  59.852  1.00  0.00     0.700 C
HETATM    5  N2  UNL     1      56.955  67.475  58.678  1.00  0.00    -0.138 N
ATOM      6  H2  UNL     1      56.263  68.192  58.460  1.00  0.00     0.205 HD
HETATM    7  N4  UNL     1      58.959  68.350  59.875  1.00  0.00    -0.099 N
ATOM      8  H4  UNL     1      59.468  68.492  59.002  1.00  0.00     0.199 HD
ENDROOT
BRANCH   5   9
HETATM    9  N3  UNL     1      57.074  66.403  57.800  1.00  0.00    -0.331 N
ATOM     10  H32 UNL     1      57.004  65.470  58.205  1.00  0.00     0.177 HD
ATOM     11  H31 UNL     1      57.224  66.492  56.795  1.00  0.00     0.177 HD
ENDBRANCH   5   9
BRANCH   7  12
HETATM   12  S1  UNL     1      59.613  68.978  61.341  1.00  0.00     0.330 S
HETATM   13  O1  UNL     1      60.690  69.986  61.052  1.00  0.00    -0.182 OA
HETATM   14  O2  UNL     1      58.525  69.659  62.081  1.00  0.00    -0.182 OA
BRANCH  12  15
HETATM   15  N5  UNL     1      60.237  67.678  62.286  1.00  0.00    -0.311 N
ATOM     16  H52 UNL     1      60.697  66.852  61.902  1.00  0.00     0.170 HD
ATOM     17  H51 UNL     1      60.072  67.871  63.273  1.00  0.00     0.170 HD
ENDBRANCH  12  15
ENDBRANCH   7  12
TORSDOF 3
ENDMDL