MODEL 1
REMARK VINA RESULT: -6.220901974      0.000      0.000
REMARK  5 active torsions:
REMARK  status: ('A' for Active; 'I' for Inactive)
REMARK    1  A    between atoms: C2_2  and  O1_3
REMARK    2  A    between atoms: O1_3  and  C3_4
REMARK    3  A    between atoms: C3_4  and  C4_5
REMARK    4  A    between atoms: C4_5  and  C5_6
REMARK    5  A    between atoms: C11_18  and  N4_19
ROOT
HETATM    1  C5  UNL     1      17.001   3.946  14.306  1.00  0.00    -0.028 A
HETATM    2  C6  UNL     1      17.016   5.297  13.943  1.00  0.00    -0.005 A
HETATM    3  C7  UNL     1      16.808   5.781  12.682  1.00  0.00     0.109 A
HETATM    4  N1  UNL     1      16.569   4.922  11.692  1.00  0.00    -0.328 N
ATOM      5  H1  UNL     1      16.411   5.265  10.744  1.00  0.00     0.169 HD
HETATM    6  C8  UNL     1      16.537   3.611  11.943  1.00  0.00     0.122 A
HETATM    7  N2  UNL     1      16.300   2.765  10.921  1.00  0.00    -0.332 N
ATOM      8  H2  UNL     1      16.145   3.131   9.982  1.00  0.00     0.168 HD
HETATM    9  C9  UNL     1      16.266   1.440  11.136  1.00  0.00     0.080 A
HETATM   10  C10 UNL     1      15.997   0.549   9.968  1.00  0.00     0.089 C
HETATM   11  N3  UNL     1      16.459   0.893  12.327  1.00  0.00    -0.332 N
ATOM     12  H3  UNL     1      16.427  -0.119  12.452  1.00  0.00     0.168 HD
HETATM   13  C11 UNL     1      16.703   1.730  13.391  1.00  0.00     0.114 A
HETATM   14  C12 UNL     1      16.747   3.081  13.228  1.00  0.00     0.059 A
HETATM   15  N5  UNL     1      16.904   7.231  12.679  1.00  0.00    -0.376 N
ATOM     16  H5  UNL     1      16.500   7.881  12.004  1.00  0.00     0.161 HD
HETATM   17  C13 UNL     1      17.695   7.545  13.839  1.00  0.00     0.126 C
HETATM   18  C14 UNL     1      17.280   6.470  14.807  1.00  0.00     0.062 C
ENDROOT
BRANCH   1  19
HETATM   19  C4  UNL     1      17.189   3.411  15.652  1.00  0.00     0.066 C
BRANCH  19  20
HETATM   20  C3  UNL     1      16.020   3.144  16.509  1.00  0.00     0.172 C
BRANCH  20  21
HETATM   21  O1  UNL     1      16.006   2.164  17.456  1.00  0.00    -0.391 OA
BRANCH  21  22
HETATM   22  C2  UNL     1      14.852   1.399  17.344  1.00  0.00     0.163 C
HETATM   23  C1  UNL     1      13.694   2.239  16.817  1.00  0.00     0.033 C
ENDBRANCH  21  22
ENDBRANCH  20  21
ENDBRANCH  19  20
ENDBRANCH   1  19
BRANCH  13  24
HETATM   24  N4  UNL     1      16.896   1.175  14.521  1.00  0.00    -0.385 N
ATOM     25  H42 UNL     1      17.376   1.649  15.286  1.00  0.00     0.157 HD
ATOM     26  H41 UNL     1      16.553   0.220  14.625  1.00  0.00     0.157 HD
ENDBRANCH  13  24
TORSDOF 5
ENDMDL