MODEL 3
REMARK VINA RESULT: -6.631757183      2.138      5.168
REMARK  8 active torsions:
REMARK  status: ('A' for Active; 'I' for Inactive)
REMARK    1  A    between atoms: C4_4  and  C5_5
REMARK    2  A    between atoms: C5_5  and  C6_6
REMARK    3  A    between atoms: C7_7  and  C8_8
REMARK    4  A    between atoms: C9_10  and  C10_11
REMARK    5  A    between atoms: C10_11  and  O2_12
REMARK    6  A    between atoms: C11_14  and  O3_15
REMARK    7  A    between atoms: C12_17  and  O4_18
REMARK    8  A    between atoms: C14_22  and  O6_23
ROOT
HETATM    1  C6  UNL     1      16.954   4.467  11.973  1.00  0.00     0.014 A
HETATM    2  C7  UNL     1      16.439   3.489  12.767  1.00  0.00     0.007 A
HETATM    3  C13 UNL     1      16.183   2.419  11.937  1.00  0.00     0.155 A
HETATM    4  O5  UNL     1      16.530   2.754  10.719  1.00  0.00    -0.299 OA
HETATM    5  C14 UNL     1      17.002   3.973  10.663  1.00  0.00     0.190 A
ENDROOT
BRANCH   2   6
HETATM    6  C8  UNL     1      16.193   3.521  14.202  1.00  0.00     0.189 C
HETATM    7  O1  UNL     1      16.285   2.295  14.835  1.00  0.00    -0.368 OA
HETATM    8  C9  UNL     1      15.804   2.627  16.122  1.00  0.00     0.177 C
HETATM    9  C11 UNL     1      14.547   3.429  15.882  1.00  0.00     0.180 C
HETATM   10  C12 UNL     1      14.886   4.146  14.587  1.00  0.00     0.183 C
BRANCH   8  11
HETATM   11  C10 UNL     1      15.499   1.397  16.934  1.00  0.00     0.198 C
BRANCH  11  12
HETATM   12  O2  UNL     1      14.162   1.094  16.764  1.00  0.00    -0.398 OA
ATOM     13  H2  UNL     1      14.089   0.490  16.034  1.00  0.00     0.209 HD
ENDBRANCH  11  12
ENDBRANCH   8  11
BRANCH   9  14
HETATM   14  O3  UNL     1      14.334   4.291  16.932  1.00  0.00    -0.390 OA
ATOM     15  H3  UNL     1      14.552   3.863  17.751  1.00  0.00     0.210 HD
ENDBRANCH   9  14
BRANCH  10  16
HETATM   16  O4  UNL     1      15.008   5.498  14.901  1.00  0.00    -0.390 OA
ATOM     17  H4  UNL     1      14.272   5.826  15.404  1.00  0.00     0.210 HD
ENDBRANCH  10  16
ENDBRANCH   2   6
BRANCH   1  18
HETATM   18  C5  UNL     1      17.377   5.798  12.420  1.00  0.00     0.071 C
BRANCH  18  19
HETATM   19  C4  UNL     1      16.340   6.853  12.201  1.00  0.00    -0.020 C
HETATM   20  C2  UNL     1      16.547   7.892  11.403  1.00  0.00    -0.091 C
HETATM   21  C1  UNL     1      15.510   8.934  11.195  1.00  0.00     0.042 C
HETATM   22  C3  UNL     1      17.852   8.017  10.699  1.00  0.00     0.042 C
ENDBRANCH  18  19
ENDBRANCH   1  18
BRANCH   5  23
HETATM   23  O6  UNL     1      17.471   4.680   9.560  1.00  0.00    -0.340 OA
ATOM     24  H6  UNL     1      16.953   4.903   8.796  1.00  0.00     0.220 HD
ENDBRANCH   5  23
TORSDOF 8
ENDMDL