MODEL 2
REMARK VINA RESULT: -5.569893869      3.187      4.577
REMARK  6 active torsions:
REMARK  status: ('A' for Active; 'I' for Inactive)
REMARK    1  A    between atoms: C2_2  and  C4_4
REMARK    2  A    between atoms: C5_6  and  N1_7
REMARK    3  A    between atoms: C6_12  and  C7_13
REMARK    4  A    between atoms: C10_19  and  C11_20
REMARK    5  A    between atoms: C11_20  and  C12_21
REMARK    6  A    between atoms: C12_21  and  O1_22
ROOT
HETATM    1  C4  UNL     1      19.445   5.813  10.137  1.00  0.00     0.019 A
HETATM    2  S1  UNL     1      20.958   6.486   9.906  1.00  0.00    -0.056 SA
HETATM    3  C5  UNL     1      21.725   6.064  11.369  1.00  0.00     0.143 A
HETATM    4  N2  UNL     1      20.734   5.375  12.030  1.00  0.00    -0.334 N
ATOM      5  H2  UNL     1      20.893   4.981  12.958  1.00  0.00     0.168 HD
HETATM    6  C6  UNL     1      19.573   5.242  11.424  1.00  0.00     0.079 A
ENDROOT
BRANCH   6   7
HETATM    7  C7  UNL     1      18.317   4.808  12.089  1.00  0.00     0.100 C
HETATM    8  C8  UNL     1      17.642   5.682  13.030  1.00  0.00     0.298 C
HETATM    9  N3  UNL     1      17.251   4.969  14.273  1.00  0.00    -0.067 N
HETATM   10  C9  UNL     1      16.682   3.673  14.025  1.00  0.00     0.265 C
ATOM     11  H32 UNL     1      18.039   4.903  14.917  1.00  0.00     0.277 HD
ATOM     12  H31 UNL     1      16.621   5.540  14.837  1.00  0.00     0.277 HD
HETATM   13  C10 UNL     1      16.952   3.176  12.614  1.00  0.00     0.156 C
HETATM   14  O2  UNL     1      18.292   3.413  12.358  1.00  0.00    -0.344 OA
BRANCH  13  15
HETATM   15  C11 UNL     1      16.454   1.825  12.344  1.00  0.00     0.060 C
BRANCH  15  16
HETATM   16  C12 UNL     1      16.072   1.500  10.929  1.00  0.00     0.166 C
BRANCH  16  17
HETATM   17  O1  UNL     1      16.404   2.591  10.122  1.00  0.00    -0.401 OA
ATOM     18  H1  UNL     1      16.714   2.261   9.286  1.00  0.00     0.209 HD
ENDBRANCH  16  17
ENDBRANCH  15  16
ENDBRANCH  13  15
ENDBRANCH   6   7
BRANCH   1  19
HETATM   19  C2  UNL     1      18.343   5.551   9.191  1.00  0.00     0.020 C
HETATM   20  C1  UNL     1      17.378   6.687   9.033  1.00  0.00     0.015 C
HETATM   21  C3  UNL     1      19.058   5.595   7.767  1.00  0.00     0.015 C
ENDBRANCH   1  19
BRANCH   3  22
HETATM   22  N1  UNL     1      22.930   6.276  11.787  1.00  0.00    -0.380 N
ATOM     23  H12 UNL     1      23.757   6.433  11.211  1.00  0.00     0.158 HD
ATOM     24  H11 UNL     1      23.306   6.362  12.732  1.00  0.00     0.158 HD
ENDBRANCH   3  22
TORSDOF 6
ENDMDL