MODEL 1
REMARK VINA RESULT: -6.408253058      0.000      0.000
REMARK  8 active torsions:
REMARK  status: ('A' for Active; 'I' for Inactive)
REMARK    1  A    between atoms: O1_1  and  C1_3
REMARK    2  A    between atoms: C1_3  and  C2_4
REMARK    3  A    between atoms: C2_4  and  C3_5
REMARK    4  A    between atoms: C3_5  and  C4_6
REMARK    5  A    between atoms: C5_8  and  N1_9
REMARK    6  A    between atoms: N1_9  and  C6_11
REMARK    7  A    between atoms: C11_16  and  O2_17
REMARK    8  A    between atoms: C12_21  and  O3_22
ROOT
HETATM    1  C4  UNL     1      16.445   2.942  15.265  1.00  0.00     0.037 A
HETATM    2  S1  UNL     1      16.721   4.414  14.446  1.00  0.00    -0.054 SA
HETATM    3  C5  UNL     1      16.995   3.772  12.864  1.00  0.00     0.147 A
HETATM    4  N2  UNL     1      16.857   2.467  13.063  1.00  0.00    -0.317 N
ATOM      5  H2  UNL     1      16.967   1.815  12.287  1.00  0.00     0.170 HD
HETATM    6  C12 UNL     1      16.581   2.025  14.260  1.00  0.00     0.155 A
ENDROOT
BRANCH   3   7
HETATM    7  N1  UNL     1      17.259   4.466  11.815  1.00  0.00    -0.363 N
ATOM      8  H1  UNL     1      16.447   4.903  11.379  1.00  0.00     0.162 HD
BRANCH   7   9
HETATM    9  C6  UNL     1      18.478   4.723  11.170  1.00  0.00     0.112 C
HETATM   10  C7  UNL     1      18.517   5.916  10.252  1.00  0.00     0.028 C
HETATM   11  C8  UNL     1      19.845   5.862   9.505  1.00  0.00     0.002 C
HETATM   12  C9  UNL     1      21.022   5.880  10.434  1.00  0.00     0.003 C
HETATM   13  C10 UNL     1      20.543   5.953  11.864  1.00  0.00     0.034 C
HETATM   14  C11 UNL     1      19.584   4.822  12.186  1.00  0.00     0.140 C
BRANCH  14  15
HETATM   15  O2  UNL     1      20.290   3.598  12.236  1.00  0.00    -0.394 OA
ATOM     16  H2  UNL     1      19.946   3.062  12.940  1.00  0.00     0.210 HD
ENDBRANCH  14  15
ENDBRANCH   7   9
ENDBRANCH   3   7
BRANCH   1  17
HETATM   17  C3  UNL     1      16.131   2.703  16.724  1.00  0.00     0.053 C
BRANCH  17  18
HETATM   18  C2  UNL     1      14.637   2.904  16.844  1.00  0.00     0.031 C
BRANCH  18  19
HETATM   19  C1  UNL     1      13.918   1.631  17.137  1.00  0.00     0.164 C
BRANCH  19  20
HETATM   20  O1  UNL     1      14.865   0.600  17.217  1.00  0.00    -0.401 OA
ATOM     21  H1  UNL     1      15.514   0.739  16.538  1.00  0.00     0.209 HD
ENDBRANCH  19  20
ENDBRANCH  18  19
ENDBRANCH  17  18
ENDBRANCH   1  17
BRANCH   6  22
HETATM   22  O3  UNL     1      16.414   0.646  14.583  1.00  0.00    -0.345 OA
ATOM     23  H3  UNL     1      16.074   0.426  15.442  1.00  0.00     0.219 HD
ENDBRANCH   6  22
TORSDOF 8
ENDMDL