MODEL 3
REMARK VINA RESULT: -7.445958863      3.458      4.419
REMARK  7 active torsions:
REMARK  status: ('A' for Active; 'I' for Inactive)
REMARK    1  A    between atoms: O1_1  and  N1_3
REMARK    2  A    between atoms: C1_5  and  N2_6
REMARK    3  A    between atoms: C1_5  and  C12_24
REMARK    4  A    between atoms: N2_6  and  C2_8
REMARK    5  A    between atoms: C2_8  and  C3_9
REMARK    6  A    between atoms: C4_14  and  C5_15
REMARK    7  A    between atoms: C5_15  and  C6_16
ROOT
HETATM    1  C3  UNL     1      17.435   5.858  14.021  1.00  0.00     0.115 A
HETATM    2  N3  UNL     1      18.072   7.047  14.001  1.00  0.00    -0.286 N
ATOM      3  H3  UNL     1      18.804   7.336  14.650  1.00  0.00     0.188 HD
HETATM    4  N4  UNL     1      17.596   7.783  12.998  1.00  0.00    -0.287 N
ATOM      5  H4  UNL     1      17.902   8.726  12.756  1.00  0.00     0.188 HD
HETATM    6  C4  UNL     1      16.637   7.075  12.352  1.00  0.00     0.097 A
HETATM    7  N5  UNL     1      16.562   5.903  13.003  1.00  0.00    -0.332 N
ATOM      8  H5  UNL     1      15.925   5.146  12.757  1.00  0.00     0.168 HD
ENDROOT
BRANCH   1   9
HETATM    9  C2  UNL     1      17.657   4.733  14.978  1.00  0.00     0.199 C
BRANCH   9  10
HETATM   10  N2  UNL     1      16.444   3.990  15.233  1.00  0.00    -0.364 N
ATOM     11  H2  UNL     1      15.618   4.484  15.571  1.00  0.00     0.161 HD
BRANCH  10  12
HETATM   12  C1  UNL     1      16.373   2.587  15.021  1.00  0.00     0.176 C
HETATM   13  N1  UNL     1      16.791   2.079  13.916  1.00  0.00    -0.249 N
ATOM     14  H1  UNL     1      17.172   2.700  13.202  1.00  0.00     0.196 HD
BRANCH  13  15
HETATM   15  O1  UNL     1      16.746   0.730  13.662  1.00  0.00    -0.288 OA
ATOM     16  H1  UNL     1      17.518   0.179  13.698  1.00  0.00     0.244 HD
ENDBRANCH  13  15
BRANCH  12  17
HETATM   17  C12 UNL     1      15.836   1.678  16.025  1.00  0.00     0.226 A
HETATM   18  N6  UNL     1      15.308   1.899  17.253  1.00  0.00    -0.253 N
HETATM   19  N7  UNL     1      15.125   0.591  17.377  1.00  0.00     0.030 NA
ATOM     20  H6  UNL     1      15.129   2.719  17.833  1.00  0.00     0.187 HD
HETATM   21  O2  UNL     1      15.635   0.398  16.199  1.00  0.00    -0.200 OA
ENDBRANCH  12  17
ENDBRANCH  10  12
ENDBRANCH   9  10
ENDBRANCH   1   9
BRANCH   6  22
HETATM   22  C5  UNL     1      15.857   7.541  11.175  1.00  0.00     0.082 C
BRANCH  22  23
HETATM   23  C6  UNL     1      15.145   8.844  11.436  1.00  0.00    -0.007 C
HETATM   24  C7  UNL     1      13.687   8.787  11.095  1.00  0.00     0.005 C
HETATM   25  C8  UNL     1      13.574   8.811   9.570  1.00  0.00     0.000 C
HETATM   26  C9  UNL     1      13.827  10.242   9.145  1.00  0.00     0.000 C
HETATM   27  C10 UNL     1      14.834  10.898  10.027  1.00  0.00     0.000 C
HETATM   28  C11 UNL     1      15.809   9.923  10.646  1.00  0.00     0.005 C
ENDBRANCH  22  23
ENDBRANCH   6  22
TORSDOF 7
ENDMDL