MODEL 5
REMARK VINA RESULT: -6.228450580      1.761      5.324
REMARK  6 active torsions:
REMARK  status: ('A' for Active; 'I' for Inactive)
REMARK    1  A    between atoms: C2_2  and  S1_4
REMARK    2  A    between atoms: S1_4  and  C4_5
REMARK    3  A    between atoms: C6_7  and  C7_8
REMARK    4  A    between atoms: C7_8  and  N1_9
REMARK    5  A    between atoms: C7_8  and  O1_13
REMARK    6  A    between atoms: C8_18  and  C9_19
ROOT
HETATM    1  C4  UNL     1      15.667   4.575  15.191  1.00  0.00     0.051 C
HETATM    2  C5  UNL     1      15.456   3.559  14.071  1.00  0.00     0.052 C
HETATM    3  C6  UNL     1      16.595   3.846  13.098  1.00  0.00     0.243 C
HETATM    4  N2  UNL     1      16.308   5.121  12.501  1.00  0.00    -0.062 N
ATOM      5  H21 UNL     1      15.402   5.103  12.032  1.00  0.00     0.278 HD
ATOM      6  H22 UNL     1      16.912   5.287  11.696  1.00  0.00     0.278 HD
HETATM    7  C8  UNL     1      16.380   6.228  13.433  1.00  0.00     0.191 C
HETATM    8  C14 UNL     1      15.473   5.935  14.582  1.00  0.00     0.048 C
ENDROOT
BRANCH   3   9
HETATM    9  C7  UNL     1      16.708   2.804  12.026  1.00  0.00     0.347 C
BRANCH   9  10
HETATM   10  N1  UNL     1      17.158   1.524  12.566  1.00  0.00    -0.051 N
ATOM     11  H13 UNL     1      17.826   1.655  13.326  1.00  0.00     0.277 HD
ATOM     12  H12 UNL     1      16.414   1.058  13.086  1.00  0.00     0.277 HD
ATOM     13  H11 UNL     1      17.536   0.921  11.837  1.00  0.00     0.277 HD
ENDBRANCH   9  10
BRANCH   9  14
HETATM   14  O1  UNL     1      15.556   2.658  11.268  1.00  0.00    -0.368 OA
ATOM     15  H1  UNL     1      15.695   2.197  10.449  1.00  0.00     0.212 HD
ENDBRANCH   9  14
ENDBRANCH   3   9
BRANCH   1  16
HETATM   16  S1  UNL     1      14.550   4.323  16.570  1.00  0.00    -0.160 SA
BRANCH  16  17
HETATM   17  C2  UNL     1      14.843   2.785  17.461  1.00  0.00     0.039 C
HETATM   18  C1  UNL     1      14.787   3.077  18.940  1.00  0.00     0.021 C
HETATM   19  C3  UNL     1      13.736   1.826  17.038  1.00  0.00     0.021 C
ENDBRANCH  16  17
ENDBRANCH   1  16
BRANCH   7  20
HETATM   20  C9  UNL     1      17.764   6.645  13.773  1.00  0.00     0.016 C
HETATM   21  C10 UNL     1      18.539   7.141  12.557  1.00  0.00     0.007 C
HETATM   22  C11 UNL     1      18.919   8.569  12.930  1.00  0.00     0.000 C
HETATM   23  C12 UNL     1      19.201   8.385  14.416  1.00  0.00     0.000 C
HETATM   24  C13 UNL     1      17.914   7.676  14.832  1.00  0.00     0.007 C
ENDBRANCH   7  20
TORSDOF 6
ENDMDL