MODEL 2
REMARK VINA RESULT: -7.299711465      1.101      1.651
REMARK  7 active torsions:
REMARK  status: ('A' for Active; 'I' for Inactive)
REMARK    1  A    between atoms: C2_2  and  O1_5
REMARK    2  A    between atoms: O1_5  and  C5_6
REMARK    3  A    between atoms: C7_9  and  C8_10
REMARK    4  A    between atoms: C8_10  and  C9_11
REMARK       I    between atoms: C9_11  and  N1_13
REMARK    5  A    between atoms: C10_16  and  C11_17
REMARK    6  A    between atoms: C11_17  and  O5_18
REMARK    7  A    between atoms: N2_20  and  O6_22
ROOT
HETATM    1  C9  UNL     1      15.463   2.560  16.464  1.00  0.00     0.323 C
HETATM    2  O3  UNL     1      14.851   2.743  17.537  1.00  0.00    -0.254 OA
HETATM    3  N1  UNL     1      15.877   1.339  16.007  1.00  0.00    -0.244 NA
HETATM    4  O4  UNL     1      16.256   0.224  15.589  1.00  0.00    -0.215 OA
ATOM      5  H4  UNL     1      16.543  -0.624  15.271  1.00  0.00     0.261 HD
ENDROOT
BRANCH   1   6
HETATM    6  C8  UNL     1      15.792   3.736  15.574  1.00  0.00     0.154 C
BRANCH   6   7
HETATM    7  C7  UNL     1      16.591   3.423  14.387  1.00  0.00     0.146 C
HETATM    8  O2  UNL     1      17.866   4.012  14.577  1.00  0.00    -0.382 OA
HETATM    9  C6  UNL     1      17.696   5.354  14.285  1.00  0.00     0.201 C
HETATM   10  C5  UNL     1      16.927   5.327  12.954  1.00  0.00     0.160 C
HETATM   11  C10 UNL     1      16.192   4.012  13.078  1.00  0.00     0.122 C
BRANCH  10  12
HETATM   12  O1  UNL     1      15.978   6.320  12.904  1.00  0.00    -0.373 OA
BRANCH  12  13
HETATM   13  C2  UNL     1      16.103   7.291  11.977  1.00  0.00     0.050 C
HETATM   14  C1  UNL     1      17.246   8.234  12.083  1.00  0.00     0.045 C
HETATM   15  C3  UNL     1      16.306   6.555  10.624  1.00  0.00     0.045 C
HETATM   16  C4  UNL     1      14.818   8.065  11.842  1.00  0.00     0.045 C
ENDBRANCH  12  13
ENDBRANCH  10  12
BRANCH  11  17
HETATM   17  C11 UNL     1      16.595   3.045  12.025  1.00  0.00     0.144 C
HETATM   18  N2  UNL     1      15.961   2.850  10.922  1.00  0.00    -0.251 N
ATOM     19  H2  UNL     1      15.116   3.389  10.733  1.00  0.00     0.196 HD
BRANCH  17  20
HETATM   20  O5  UNL     1      17.738   2.288  12.233  1.00  0.00    -0.348 OA
ATOM     21  H5  UNL     1      17.918   1.573  11.634  1.00  0.00     0.219 HD
ENDBRANCH  17  20
BRANCH  18  22
HETATM   22  O6  UNL     1      16.391   1.937   9.992  1.00  0.00    -0.288 OA
ATOM     23  H6  UNL     1      17.085   2.139   9.374  1.00  0.00     0.244 HD
ENDBRANCH  18  22
ENDBRANCH  11  17
ENDBRANCH   6   7
ENDBRANCH   1   6
TORSDOF 7
ENDMDL