MODEL 5
REMARK VINA RESULT: -6.329205637      2.792      6.818
REMARK  6 active torsions:
REMARK  status: ('A' for Active; 'I' for Inactive)
REMARK    1  A    between atoms: C2_2  and  C4_4
REMARK    2  A    between atoms: C4_4  and  C5_5
REMARK    3  A    between atoms: N3_12  and  C7_13
REMARK    4  A    between atoms: C9_15  and  C10_16
REMARK    5  A    between atoms: C10_16  and  O1_18
REMARK    6  A    between atoms: C13_22  and  O3_23
ROOT
HETATM    1  C5  UNL     1      18.368   5.918  10.158  1.00  0.00     0.078 A
HETATM    2  N1  UNL     1      19.442   5.521  10.843  1.00  0.00    -0.191 N
ATOM      3  H1  UNL     1      20.402   5.834  10.698  1.00  0.00     0.184 HD
HETATM    4  C6  UNL     1      19.022   4.628  11.761  1.00  0.00     0.682 A
HETATM    5  N2  UNL     1      19.839   4.052  12.590  1.00  0.00    -0.234 N
ATOM      6  H21 UNL     1      19.521   3.376  13.285  1.00  0.00     0.174 HD
ATOM      7  H22 UNL     1      20.848   4.182  12.664  1.00  0.00     0.174 HD
HETATM    8  N3  UNL     1      17.696   4.457  11.663  1.00  0.00    -0.133 N
HETATM    9  C13 UNL     1      17.252   5.248  10.672  1.00  0.00     0.184 A
ENDROOT
BRANCH   8  10
HETATM   10  C7  UNL     1      16.896   3.591  12.467  1.00  0.00     0.248 C
HETATM   11  C8  UNL     1      16.736   4.080  13.901  1.00  0.00     0.064 C
HETATM   12  C9  UNL     1      16.257   2.817  14.583  1.00  0.00     0.042 C
HETATM   13  C12 UNL     1      16.832   1.745  13.717  1.00  0.00     0.177 C
HETATM   14  O2  UNL     1      17.488   2.346  12.668  1.00  0.00    -0.365 OA
BRANCH  12  15
HETATM   15  C10 UNL     1      16.725   2.723  16.017  1.00  0.00     0.120 C
HETATM   16  C11 UNL     1      15.578   2.737  16.994  1.00  0.00     0.040 C
BRANCH  15  17
HETATM   17  O1  UNL     1      17.569   1.636  16.214  1.00  0.00    -0.396 OA
ATOM     18  H1  UNL     1      17.127   0.812  16.051  1.00  0.00     0.210 HD
ENDBRANCH  15  17
ENDBRANCH  12  15
ENDBRANCH   8  10
BRANCH   9  19
HETATM   19  O3  UNL     1      15.934   5.363  10.253  1.00  0.00    -0.344 OA
ATOM     20  H3  UNL     1      15.334   6.079  10.426  1.00  0.00     0.219 HD
ENDBRANCH   9  19
BRANCH   1  21
HETATM   21  C4  UNL     1      18.242   6.874   9.050  1.00  0.00     0.066 C
BRANCH  21  22
HETATM   22  C2  UNL     1      18.369   6.280   7.692  1.00  0.00    -0.017 C
HETATM   23  C1  UNL     1      17.084   6.253   6.918  1.00  0.00     0.010 C
HETATM   24  C3  UNL     1      19.491   6.944   6.909  1.00  0.00     0.010 C
ENDBRANCH  21  22
ENDBRANCH   1  21
TORSDOF 6
ENDMDL