MODEL 3
REMARK VINA RESULT: -5.994356101      1.507      1.857
REMARK  6 active torsions:
REMARK  status: ('A' for Active; 'I' for Inactive)
REMARK    1  A    between atoms: C6_9  and  C7_10
REMARK    2  A    between atoms: C7_10  and  O1_11
REMARK    3  A    between atoms: C7_10  and  C8_13
REMARK    4  A    between atoms: N3_18  and  C11_19
REMARK    5  A    between atoms: C11_19  and  C12_20
REMARK    6  A    between atoms: C12_20  and  O2_21
ROOT
HETATM    1  N1  UNL     1      15.637   1.337  17.797  1.00  0.00    -0.405 N
ATOM      2  H11 UNL     1      16.540   0.900  17.985  1.00  0.00     0.155 HD
ATOM      3  H12 UNL     1      14.853   1.463  18.436  1.00  0.00     0.155 HD
HETATM    4  C1  UNL     1      15.433   1.801  16.594  1.00  0.00    -0.016 C
HETATM    5  C2  UNL     1      14.150   2.423  16.327  1.00  0.00     0.052 C
HETATM    6  C3  UNL     1      14.133   3.920  16.661  1.00  0.00     0.006 C
HETATM    7  C4  UNL     1      14.701   4.633  15.444  1.00  0.00     0.002 C
HETATM    8  C5  UNL     1      16.179   4.720  15.621  1.00  0.00     0.028 C
HETATM    9  C6  UNL     1      17.006   4.380  14.447  1.00  0.00     0.115 C
HETATM   10  N4  UNL     1      16.876   3.191  13.784  1.00  0.00    -0.394 N
ATOM     11  H4  UNL     1      17.207   3.176  12.819  1.00  0.00     0.159 HD
HETATM   12  C13 UNL     1      16.351   2.010  14.266  1.00  0.00     0.061 C
HETATM   13  C14 UNL     1      16.570   1.618  15.668  1.00  0.00     0.096 C
ENDROOT
BRANCH   9  14
HETATM   14  C7  UNL     1      16.800   5.519  13.444  1.00  0.00     0.192 C
BRANCH  14  15
HETATM   15  O1  UNL     1      16.583   5.005  12.145  1.00  0.00    -0.387 OA
ATOM     16  H1  UNL     1      17.178   4.286  11.967  1.00  0.00     0.210 HD
ENDBRANCH  14  15
BRANCH  14  17
HETATM   17  C8  UNL     1      17.877   6.491  13.431  1.00  0.00     0.059 A
HETATM   18  C9  UNL     1      18.066   7.506  14.329  1.00  0.00     0.116 A
HETATM   19  N2  UNL     1      19.164   8.195  13.992  1.00  0.00    -0.360 N
HETATM   20  C10 UNL     1      19.647   7.601  12.884  1.00  0.00     0.183 A
ATOM     21  H2  UNL     1      19.555   9.004  14.474  1.00  0.00     0.166 HD
HETATM   22  N3  UNL     1      18.867   6.566  12.539  1.00  0.00    -0.341 N
BRANCH  22  23
HETATM   23  C11 UNL     1      19.119   5.710  11.377  1.00  0.00     0.155 C
BRANCH  23  24
HETATM   24  C12 UNL     1      20.110   4.626  11.805  1.00  0.00     0.184 C
BRANCH  24  25
HETATM   25  O2  UNL     1      19.423   3.492  12.195  1.00  0.00    -0.399 OA
ATOM     26  H2  UNL     1      19.970   2.725  12.069  1.00  0.00     0.209 HD
ENDBRANCH  24  25
ENDBRANCH  23  24
ENDBRANCH  22  23
ENDBRANCH  14  17
ENDBRANCH   9  14
TORSDOF 6
ENDMDL