MODEL 4
REMARK VINA RESULT: -7.598534131      0.479      1.387
REMARK  15 active torsions:
REMARK  status: ('A' for Active; 'I' for Inactive)
REMARK    1  A    between atoms: C3_4  and  C4_5
REMARK    2  A    between atoms: C4_5  and  O1_6
REMARK    3  A    between atoms: C4_5  and  C5_8
REMARK    4  A    between atoms: C5_8  and  N1_9
REMARK    5  A    between atoms: C5_8  and  N2_12
REMARK       I    between atoms: N2_12  and  C6_14
REMARK    6  A    between atoms: C6_14  and  C7_16
REMARK    7  A    between atoms: C7_16  and  N3_17
REMARK    8  A    between atoms: C7_16  and  C13_28
REMARK    9  A    between atoms: N3_17  and  O3_18
REMARK   10  A    between atoms: O3_18  and  C8_19
REMARK   11  A    between atoms: C8_19  and  C9_20
REMARK   12  A    between atoms: C8_19  and  C12_25
REMARK   13  A    between atoms: C9_20  and  O4_21
REMARK   14  A    between atoms: O4_21  and  C10_22
REMARK   15  A    between atoms: C15_31  and  N4_32
ROOT
HETATM    1  C7  UNL     1      29.338  -5.201  48.783  1.00  0.00     0.234 C
ENDROOT
BRANCH   1   2
HETATM    2  C6  UNL     1      28.490  -6.390  48.597  1.00  0.00     0.293 C
HETATM    3  N2  UNL     1      28.878  -7.680  48.339  1.00  0.00    -0.305 N
ATOM      4  H2  UNL     1      29.882  -7.824  48.228  1.00  0.00     0.171 HD
HETATM    5  O2  UNL     1      27.240  -6.061  48.724  1.00  0.00    -0.264 OA
BRANCH   3   6
HETATM    6  C5  UNL     1      28.080  -8.829  48.206  1.00  0.00     0.137 C
BRANCH   6   7
HETATM    7  C4  UNL     1      28.177 -10.128  48.777  1.00  0.00     0.130 C
BRANCH   7   8
HETATM    8  C3  UNL     1      27.234 -10.497  49.680  1.00  0.00     0.082 A
HETATM    9  S1  UNL     1      25.879 -11.521  49.465  1.00  0.00    -0.067 SA
HETATM   10  C2  UNL     1      25.238 -11.433  51.032  1.00  0.00     0.068 A
HETATM   11  C1  UNL     1      24.142 -12.035  51.522  1.00  0.00     0.051 C
HETATM   12  N6  UNL     1      26.087 -10.619  51.666  1.00  0.00    -0.336 N
HETATM   13  C16 UNL     1      27.105 -10.137  50.989  1.00  0.00     0.123 A
HETATM   14  C17 UNL     1      25.870 -10.272  53.106  1.00  0.00     0.158 C
HETATM   15  S3  UNL     1      28.227  -9.098  51.677  1.00  0.00    -0.059 SA
ENDBRANCH   7   8
BRANCH   7  16
HETATM   16  O1  UNL     1      29.124 -11.055  48.516  1.00  0.00    -0.356 OA
ATOM     17  H1  UNL     1      29.945 -10.716  48.179  1.00  0.00     0.218 HD
ENDBRANCH   7  16
ENDBRANCH   6   7
BRANCH   6  18
HETATM   18  N1  UNL     1      27.031  -8.619  47.384  1.00  0.00    -0.383 N
ATOM     19  H12 UNL     1      26.270  -8.132  47.858  1.00  0.00     0.157 HD
ATOM     20  H11 UNL     1      27.130  -8.968  46.432  1.00  0.00     0.157 HD
ENDBRANCH   6  18
ENDBRANCH   3   6
ENDBRANCH   1   2
BRANCH   1  21
HETATM   21  N3  UNL     1      30.172  -4.968  47.944  1.00  0.00    -0.272 NA
BRANCH  21  22
HETATM   22  O3  UNL     1      31.010  -4.732  47.095  1.00  0.00    -0.190 OA
BRANCH  22  23
HETATM   23  C8  UNL     1      31.571  -5.509  45.990  1.00  0.00     0.292 C
BRANCH  23  24
HETATM   24  C9  UNL     1      32.341  -4.552  45.155  1.00  0.00     0.225 C
BRANCH  24  25
HETATM   25  O4  UNL     1      31.723  -3.342  44.926  1.00  0.00    -0.319 OA
BRANCH  25  26
HETATM   26  C10 UNL     1      31.286  -2.819  43.736  1.00  0.00     0.254 C
HETATM   27  C11 UNL     1      31.997  -3.096  42.435  1.00  0.00     0.126 C
HETATM   28  O5  UNL     1      30.271  -2.091  43.716  1.00  0.00    -0.266 OA
ENDBRANCH  25  26
ENDBRANCH  24  25
ENDBRANCH  23  24
BRANCH  23  29
HETATM   29  C12 UNL     1      30.534  -6.329  45.425  1.00  0.00     0.209 C
HETATM   30  O6  UNL     1      29.663  -5.861  44.650  1.00  0.00    -0.646 OA
HETATM   31  O7  UNL     1      30.466  -7.684  45.725  1.00  0.00    -0.646 OA
ENDBRANCH  23  29
ENDBRANCH  22  23
ENDBRANCH  21  22
ENDBRANCH   1  21
BRANCH   1  32
HETATM   32  C13 UNL     1      29.265  -4.267  49.952  1.00  0.00     0.090 A
HETATM   33  C14 UNL     1      28.928  -4.673  51.208  1.00  0.00     0.086 A
HETATM   34  S2  UNL     1      29.127  -3.241  52.137  1.00  0.00    -0.064 SA
HETATM   35  C15 UNL     1      29.618  -2.213  50.886  1.00  0.00     0.142 A
HETATM   36  N5  UNL     1      29.614  -2.997  49.815  1.00  0.00    -0.334 N
ATOM     37  H5  UNL     1      29.876  -2.628  48.901  1.00  0.00     0.168 HD
BRANCH  35  38
HETATM   38  N4  UNL     1      29.941  -0.931  50.921  1.00  0.00    -0.380 N
ATOM     39  H42 UNL     1      30.860  -0.532  50.730  1.00  0.00     0.158 HD
ATOM     40  H41 UNL     1      29.365  -0.118  51.137  1.00  0.00     0.158 HD
ENDBRANCH  35  38
ENDBRANCH   1  32
TORSDOF 15
ENDMDL