MODEL 2
REMARK VINA RESULT: -8.478401212      2.678      4.257
REMARK  10 active torsions:
REMARK  status: ('A' for Active; 'I' for Inactive)
REMARK    1  A    between atoms: C2_2  and  C3_7
REMARK    2  A    between atoms: N1_3  and  O1_5
REMARK       I    between atoms: C3_7  and  N2_9
REMARK    3  A    between atoms: N2_9  and  C4_11
REMARK    4  A    between atoms: C6_13  and  S1_14
REMARK    5  A    between atoms: S1_14  and  C7_15
REMARK    6  A    between atoms: C9_17  and  N3_18
REMARK    7  A    between atoms: N3_18  and  C10_20
REMARK    8  A    between atoms: C13_28  and  C14_29
REMARK    9  A    between atoms: C15_33  and  C16_34
REMARK   10  A    between atoms: N7_41  and  O8_43
ROOT
HETATM    1  C4  UNL     1      30.285  -4.563  49.104  1.00  0.00     0.170 C
HETATM    2  C5  UNL     1      30.536  -5.644  50.051  1.00  0.00     0.097 C
HETATM    3  C6  UNL     1      29.526  -5.842  51.207  1.00  0.00     0.016 C
HETATM    4  C15 UNL     1      29.138  -4.584  51.605  1.00  0.00     0.114 C
HETATM    5  N6  UNL     1      29.673  -3.698  50.708  1.00  0.00    -0.159 NA
HETATM    6  C17 UNL     1      30.291  -3.120  49.720  1.00  0.00     0.246 C
HETATM    7  O7  UNL     1      30.780  -2.093  49.191  1.00  0.00    -0.276 OA
HETATM    8  C18 UNL     1      28.915  -4.107  49.221  1.00  0.00     0.129 C
HETATM    9  N7  UNL     1      27.853  -3.966  48.707  1.00  0.00    -0.258 N
ATOM     10  H7  UNL     1      27.153  -3.541  49.315  1.00  0.00     0.195 HD
ENDROOT
BRANCH   3  11
HETATM   11  S1  UNL     1      29.211  -7.430  51.606  1.00  0.00    -0.085 SA
BRANCH  11  12
HETATM   12  C7  UNL     1      28.284  -8.606  50.752  1.00  0.00     0.049 A
HETATM   13  C8  UNL     1      28.042  -8.672  49.390  1.00  0.00     0.057 A
HETATM   14  C9  UNL     1      27.269  -9.651  48.929  1.00  0.00     0.059 A
HETATM   15  C13 UNL     1      26.752 -10.542  49.825  1.00  0.00     0.109 A
HETATM   16  S2  UNL     1      27.388  -9.956  51.323  1.00  0.00    -0.074 SA
BRANCH  14  17
HETATM   17  N3  UNL     1      26.975  -9.776  47.505  1.00  0.00    -0.343 N
ATOM     18  H3  UNL     1      26.212  -9.241  47.091  1.00  0.00     0.167 HD
BRANCH  17  19
HETATM   19  C10 UNL     1      27.760 -10.650  46.696  1.00  0.00     0.104 C
HETATM   20  N4  UNL     1      27.283 -11.708  46.146  1.00  0.00    -0.355 N
HETATM   21  C11 UNL     1      28.320 -12.386  45.390  1.00  0.00     0.356 C
ATOM     22  H4  UNL     1      26.317 -12.025  46.228  1.00  0.00     0.162 HD
HETATM   23  N5  UNL     1      29.561 -11.787  45.798  1.00  0.00    -0.053 N
HETATM   24  C12 UNL     1      29.192 -10.501  46.364  1.00  0.00     0.309 C
ATOM     25  H52 UNL     1      30.114 -12.371  46.426  1.00  0.00     0.279 HD
ATOM     26  H51 UNL     1      30.255 -11.726  45.053  1.00  0.00     0.279 HD
ENDBRANCH  17  19
ENDBRANCH  14  17
BRANCH  15  27
HETATM   27  C14 UNL     1      25.881 -11.715  49.665  1.00  0.00     0.219 C
HETATM   28  O3  UNL     1      26.298 -12.647  48.935  1.00  0.00    -0.643 OA
HETATM   29  O4  UNL     1      24.678 -11.807  50.269  1.00  0.00    -0.643 OA
ENDBRANCH  15  27
ENDBRANCH  11  12
ENDBRANCH   3  11
BRANCH   4  30
HETATM   30  C16 UNL     1      28.210  -4.332  52.714  1.00  0.00     0.223 C
HETATM   31  O5  UNL     1      27.270  -5.010  53.070  1.00  0.00    -0.643 OA
HETATM   32  O6  UNL     1      28.402  -3.162  53.492  1.00  0.00    -0.643 OA
ENDBRANCH   4  30
BRANCH   1  33
HETATM   33  N2  UNL     1      30.936  -4.685  47.863  1.00  0.00    -0.332 N
HETATM   34  C3  UNL     1      30.707  -5.491  46.758  1.00  0.00     0.266 C
HETATM   35  O2  UNL     1      29.783  -6.322  46.704  1.00  0.00    -0.266 OA
ATOM     36  H2  UNL     1      31.732  -4.057  47.754  1.00  0.00     0.164 HD
BRANCH  34  37
HETATM   37  C2  UNL     1      31.566  -5.389  45.585  1.00  0.00     0.095 C
HETATM   38  C1  UNL     1      30.971  -5.574  44.211  1.00  0.00     0.076 C
HETATM   39  N1  UNL     1      32.819  -5.144  45.725  1.00  0.00    -0.268 N
ATOM     40  H1  UNL     1      33.214  -5.019  46.657  1.00  0.00     0.194 HD
BRANCH  39  41
HETATM   41  O1  UNL     1      33.626  -5.048  44.617  1.00  0.00    -0.290 OA
ATOM     42  H1  UNL     1      34.434  -4.551  44.661  1.00  0.00     0.244 HD
ENDBRANCH  39  41
ENDBRANCH  34  37
ENDBRANCH   1  33
BRANCH   9  43
HETATM   43  O8  UNL     1      27.397  -4.260  47.473  1.00  0.00    -0.289 OA
ATOM     44  H8  UNL     1      26.524  -4.421  47.137  1.00  0.00     0.244 HD
ENDBRANCH   9  43
TORSDOF 10
ENDMDL