MODEL 3
REMARK VINA RESULT: -7.919353757      0.984      1.865
REMARK  14 active torsions:
REMARK  status: ('A' for Active; 'I' for Inactive)
REMARK    1  A    between atoms: C2_2  and  O1_3
REMARK    2  A    between atoms: C2_2  and  C3_5
REMARK    3  A    between atoms: C3_5  and  C9_28
REMARK    4  A    between atoms: N1_6  and  O2_8
REMARK    5  A    between atoms: O2_8  and  C4_9
REMARK    6  A    between atoms: C4_9  and  C5_11
REMARK    7  A    between atoms: C5_11  and  S1_12
REMARK    8  A    between atoms: S1_12  and  C6_13
REMARK    9  A    between atoms: C7_16  and  N3_17
REMARK   10  A    between atoms: C8_22  and  N5_23
REMARK   11  A    between atoms: N8_32  and  C11_33
REMARK   12  A    between atoms: C11_33  and  C12_34
REMARK       I    between atoms: C12_34  and  N9_36
REMARK   13  A    between atoms: N9_36  and  N10_37
REMARK       I    between atoms: N10_37  and  C13_39
REMARK   14  A    between atoms: C13_39  and  C14_41
ROOT
HETATM    1  C3  UNL     1      29.146  -4.884  50.234  1.00  0.00     0.090 C
HETATM    2  N1  UNL     1      28.582  -4.678  51.307  1.00  0.00    -0.257 N
ATOM      3  H1  UNL     1      27.622  -5.022  51.323  1.00  0.00     0.195 HD
ENDROOT
BRANCH   1   4
HETATM    4  C2  UNL     1      30.537  -4.533  49.830  1.00  0.00     0.168 C
HETATM    5  C1  UNL     1      30.736  -3.104  49.448  1.00  0.00     0.046 C
BRANCH   4   6
HETATM    6  O1  UNL     1      30.786  -5.357  48.654  1.00  0.00    -0.390 OA
ATOM      7  H1  UNL     1      31.651  -5.741  48.739  1.00  0.00     0.210 HD
ENDBRANCH   4   6
ENDBRANCH   1   4
BRANCH   1   8
HETATM    8  C9  UNL     1      28.370  -5.723  49.249  1.00  0.00     0.093 A
HETATM    9  C10 UNL     1      27.551  -5.252  48.221  1.00  0.00     0.142 A
HETATM   10  N7  UNL     1      27.308  -6.340  47.455  1.00  0.00    -0.293 N
HETATM   11  N8  UNL     1      27.942  -7.436  47.984  1.00  0.00    -0.224 N
ATOM     12  H7  UNL     1      26.738  -6.345  46.609  1.00  0.00     0.187 HD
HETATM   13  N11 UNL     1      28.528  -6.991  49.031  1.00  0.00    -0.280 N
ATOM     14  H11 UNL     1      29.077  -7.590  49.647  1.00  0.00     0.189 HD
BRANCH  11  15
HETATM   15  C11 UNL     1      27.863  -8.708  47.331  1.00  0.00     0.290 C
BRANCH  15  16
HETATM   16  C12 UNL     1      29.266  -9.268  47.221  1.00  0.00     0.333 C
HETATM   17  O4  UNL     1      29.613 -10.273  47.620  1.00  0.00    -0.253 OA
HETATM   18  N9  UNL     1      30.074  -8.266  46.519  1.00  0.00    -0.282 NA
BRANCH  18  19
HETATM   19  N10 UNL     1      30.751  -7.458  45.945  1.00  0.00    -0.195 N
HETATM   20  C13 UNL     1      30.400  -6.193  45.309  1.00  0.00     0.287 C
HETATM   21  O5  UNL     1      29.238  -5.831  45.266  1.00  0.00    -0.264 OA
ATOM     22  H10 UNL     1      31.741  -7.696  45.894  1.00  0.00     0.205 HD
BRANCH  20  23
HETATM   23  C14 UNL     1      31.463  -5.362  44.734  1.00  0.00     0.075 A
HETATM   24  C15 UNL     1      32.663  -5.013  45.325  1.00  0.00     0.025 A
HETATM   25  C16 UNL     1      33.488  -4.236  44.639  1.00  0.00     0.009 A
HETATM   26  C17 UNL     1      33.098  -3.834  43.396  1.00  0.00     0.050 A
HETATM   27  S2  UNL     1      31.570  -4.576  43.253  1.00  0.00    -0.097 SA
ENDBRANCH  20  23
ENDBRANCH  18  19
ENDBRANCH  15  16
ENDBRANCH  11  15
ENDBRANCH   1   8
BRANCH   2  28
HETATM   28  O2  UNL     1      28.948  -4.103  52.456  1.00  0.00    -0.199 OA
BRANCH  28  29
HETATM   29  C4  UNL     1      28.087  -4.237  53.575  1.00  0.00     0.290 C
HETATM   30  O3  UNL     1      27.363  -3.367  53.882  1.00  0.00    -0.262 OA
BRANCH  29  31
HETATM   31  C5  UNL     1      28.229  -5.605  54.257  1.00  0.00     0.195 C
BRANCH  31  32
HETATM   32  S1  UNL     1      26.950  -6.714  53.882  1.00  0.00    -0.083 SA
BRANCH  32  33
HETATM   33  C6  UNL     1      27.354  -8.345  53.435  1.00  0.00     0.174 A
HETATM   34  N2  UNL     1      27.853  -8.643  52.147  1.00  0.00    -0.170 N
HETATM   35  C7  UNL     1      28.015  -9.916  51.813  1.00  0.00     0.692 A
ATOM     36  H2  UNL     1      28.082  -7.897  51.490  1.00  0.00     0.186 HD
HETATM   37  N4  UNL     1      27.738 -10.938  52.623  1.00  0.00    -0.023 N
HETATM   38  C8  UNL     1      27.264 -10.654  53.865  1.00  0.00     0.692 A
ATOM     39  H4  UNL     1      27.877 -11.902  52.321  1.00  0.00     0.203 HD
HETATM   40  N6  UNL     1      27.104  -9.389  54.200  1.00  0.00    -0.170 N
ATOM     41  H6  UNL     1      26.755  -9.200  55.139  1.00  0.00     0.186 HD
BRANCH  35  42
HETATM   42  N3  UNL     1      28.470 -10.236  50.623  1.00  0.00    -0.234 N
ATOM     43  H32 UNL     1      28.317  -9.545  49.889  1.00  0.00     0.174 HD
ATOM     44  H31 UNL     1      28.944 -11.127  50.476  1.00  0.00     0.174 HD
ENDBRANCH  35  42
BRANCH  38  45
HETATM   45  N5  UNL     1      26.988 -11.654  54.639  1.00  0.00    -0.234 N
ATOM     46  H52 UNL     1      26.868 -12.614  54.317  1.00  0.00     0.174 HD
ATOM     47  H51 UNL     1      26.895 -11.462  55.637  1.00  0.00     0.174 HD
ENDBRANCH  38  45
ENDBRANCH  32  33
ENDBRANCH  31  32
ENDBRANCH  29  31
ENDBRANCH  28  29
ENDBRANCH   2  28
TORSDOF 14
ENDMDL