MODEL 5
REMARK VINA RESULT: -9.325251523      1.853      3.994
REMARK  11 active torsions:
REMARK  status: ('A' for Active; 'I' for Inactive)
REMARK    1  A    between atoms: O1_2  and  N1_3
REMARK    2  A    between atoms: C2_5  and  C3_6
REMARK    3  A    between atoms: C2_5  and  C14_43
REMARK    4  A    between atoms: N2_8  and  C5_9
REMARK    5  A    between atoms: C6_12  and  N4_13
REMARK    6  A    between atoms: C7_18  and  N6_19
REMARK    7  A    between atoms: N7_21  and  N8_23
REMARK    8  A    between atoms: N8_23  and  C8_25
REMARK    9  A    between atoms: C11_28  and  S1_29
REMARK   10  A    between atoms: S1_29  and  N9_30
REMARK   11  A    between atoms: C16_47  and  N14_48
ROOT
HETATM    1  C5  UNL     1      29.120  -4.404  50.884  1.00  0.00     0.733 A
HETATM    2  N3  UNL     1      29.579  -3.125  50.966  1.00  0.00    -0.020 N
ATOM      3  H3  UNL     1      30.163  -2.750  50.219  1.00  0.00     0.203 HD
HETATM    4  C6  UNL     1      29.272  -2.351  52.022  1.00  0.00     0.705 A
HETATM    5  N5  UNL     1      28.506  -2.823  53.018  1.00  0.00    -0.020 N
ATOM      6  H5  UNL     1      28.279  -2.226  53.813  1.00  0.00     0.203 HD
HETATM    7  C7  UNL     1      28.035  -4.087  52.965  1.00  0.00     0.727 A
HETATM    8  N10 UNL     1      28.360  -4.847  51.889  1.00  0.00    -0.018 N
ATOM      9  H10 UNL     1      28.008  -5.803  51.846  1.00  0.00     0.203 HD
ENDROOT
BRANCH   1  10
HETATM   10  N2  UNL     1      29.477  -5.172  49.747  1.00  0.00    -0.080 N
HETATM   11  C4  UNL     1      28.779  -6.154  49.113  1.00  0.00     0.170 A
HETATM   12  C3  UNL     1      29.505  -6.622  48.065  1.00  0.00     0.097 A
HETATM   13  N12 UNL     1      30.664  -5.876  48.103  1.00  0.00    -0.282 N
HETATM   14  N11 UNL     1      30.605  -5.051  49.090  1.00  0.00    -0.221 N
ATOM     15  H12 UNL     1      31.445  -5.964  47.452  1.00  0.00     0.188 HD
ATOM     16  H11 UNL     1      31.342  -4.388  49.329  1.00  0.00     0.209 HD
BRANCH  12  17
HETATM   17  C2  UNL     1      29.311  -7.687  47.106  1.00  0.00     0.101 C
HETATM   18  N1  UNL     1      29.427  -7.295  45.824  1.00  0.00    -0.264 N
ATOM     19  H1  UNL     1      29.307  -7.979  45.077  1.00  0.00     0.194 HD
BRANCH  18  20
HETATM   20  O1  UNL     1      29.698  -6.026  45.516  1.00  0.00    -0.285 OA
HETATM   21  C1  UNL     1      30.578  -5.750  44.433  1.00  0.00     0.237 C
ENDBRANCH  18  20
BRANCH  17  22
HETATM   22  C14 UNL     1      29.008  -9.064  47.244  1.00  0.00     0.079 A
HETATM   23  C15 UNL     1      28.008  -9.618  46.422  1.00  0.00     0.125 A
HETATM   24  N13 UNL     1      27.588 -10.874  46.544  1.00  0.00    -0.201 N
HETATM   25  C16 UNL     1      28.114 -11.669  47.474  1.00  0.00     0.678 A
ATOM     26  H13 UNL     1      26.860 -11.229  45.924  1.00  0.00     0.183 HD
HETATM   27  N15 UNL     1      29.065 -11.196  48.279  1.00  0.00    -0.156 N
HETATM   28  C17 UNL     1      29.529  -9.904  48.184  1.00  0.00     0.273 A
ATOM     29  H15 UNL     1      29.462 -11.812  48.989  1.00  0.00     0.187 HD
HETATM   30  O4  UNL     1      30.441  -9.577  48.992  1.00  0.00    -0.267 OA
BRANCH  25  31
HETATM   31  N14 UNL     1      27.722 -12.911  47.623  1.00  0.00    -0.234 N
ATOM     32 2H14 UNL     1      26.763 -13.156  47.376  1.00  0.00     0.174 HD
ATOM     33 1H14 UNL     1      28.349 -13.634  47.977  1.00  0.00     0.174 HD
ENDBRANCH  25  31
ENDBRANCH  17  22
ENDBRANCH  12  17
ENDBRANCH   1  10
BRANCH   4  34
HETATM   34  N4  UNL     1      29.734  -1.136  52.054  1.00  0.00    -0.234 N
ATOM     35  H42 UNL     1      30.214  -0.738  51.247  1.00  0.00     0.174 HD
ATOM     36  H41 UNL     1      29.606  -0.590  52.905  1.00  0.00     0.174 HD
ENDBRANCH   4  34
BRANCH   7  37
HETATM   37  N6  UNL     1      27.222  -4.618  54.001  1.00  0.00    -0.116 N
HETATM   38  N7  UNL     1      27.292  -5.778  54.453  1.00  0.00    -0.228 N
ATOM     39  H7  UNL     1      26.644  -6.028  55.199  1.00  0.00     0.209 HD
ATOM     40  H6  UNL     1      26.522  -3.999  54.410  1.00  0.00     0.207 HD
BRANCH  38  41
HETATM   41  N8  UNL     1      28.183  -6.764  54.024  1.00  0.00    -0.286 N
ATOM     42  H8  UNL     1      29.181  -6.672  54.213  1.00  0.00     0.188 HD
BRANCH  41  43
HETATM   43  C8  UNL     1      27.697  -7.887  53.328  1.00  0.00     0.049 A
HETATM   44  C9  UNL     1      28.174  -8.150  52.072  1.00  0.00     0.032 A
HETATM   45  C10 UNL     1      27.721  -9.235  51.368  1.00  0.00     0.027 A
HETATM   46  C11 UNL     1      26.769 -10.081  51.926  1.00  0.00     0.079 A
HETATM   47  C12 UNL     1      26.309  -9.799  53.178  1.00  0.00     0.027 A
HETATM   48  C13 UNL     1      26.740  -8.720  53.915  1.00  0.00     0.032 A
BRANCH  46  49
HETATM   49  S1  UNL     1      26.230 -11.448  50.982  1.00  0.00     0.256 S
HETATM   50  O2  UNL     1      24.831 -11.875  51.409  1.00  0.00    -0.201 OA
HETATM   51  O3  UNL     1      26.147 -11.046  49.554  1.00  0.00    -0.201 OA
BRANCH  49  52
HETATM   52  N9  UNL     1      27.283 -12.772  51.221  1.00  0.00    -0.324 N
ATOM     53  H92 UNL     1      28.012 -12.805  51.935  1.00  0.00     0.169 HD
ATOM     54  H91 UNL     1      27.071 -13.510  50.550  1.00  0.00     0.169 HD
ENDBRANCH  49  52
ENDBRANCH  46  49
ENDBRANCH  41  43
ENDBRANCH  38  41
ENDBRANCH   7  37
TORSDOF 11
ENDMDL