MODEL 4
REMARK VINA RESULT: -7.612305367      0.961      1.676
REMARK  12 active torsions:
REMARK  status: ('A' for Active; 'I' for Inactive)
REMARK    1  A    between atoms: C5_5  and  O1_6
REMARK    2  A    between atoms: O1_6  and  C6_7
REMARK    3  A    between atoms: C6_7  and  C7_8
REMARK    4  A    between atoms: C7_8  and  C8_9
REMARK    5  A    between atoms: C8_9  and  N1_10
REMARK       I    between atoms: N1_10  and  C9_12
REMARK    6  A    between atoms: C9_12  and  C10_14
REMARK    7  A    between atoms: C10_14  and  S1_15
REMARK    8  A    between atoms: S1_15  and  C11_16
REMARK    9  A    between atoms: N5_22  and  C12_23
REMARK   10  A    between atoms: C13_29  and  N8_30
REMARK   11  A    between atoms: N9_33  and  N10_35
REMARK   12  A    between atoms: N10_35  and  C14_37
ROOT
HETATM    1  C7  UNL     1      30.455  -9.133  48.115  1.00  0.00     0.105 C
ENDROOT
BRANCH   1   2
HETATM    2  C6  UNL     1      29.756  -8.879  46.841  1.00  0.00     0.134 C
HETATM    3  N9  UNL     1      30.228  -8.072  45.935  1.00  0.00    -0.281 N
ATOM      4  H9  UNL     1      29.692  -7.942  45.077  1.00  0.00     0.189 HD
BRANCH   2   5
HETATM    5  O1  UNL     1      28.543  -9.474  46.501  1.00  0.00    -0.332 OA
BRANCH   5   6
HETATM    6  C5  UNL     1      28.517 -10.840  46.061  1.00  0.00     0.135 C
HETATM    7  C4  UNL     1      27.705 -11.642  47.030  1.00  0.00     0.062 C
HETATM    8  C2  UNL     1      27.226 -12.951  46.494  1.00  0.00     0.021 C
HETATM    9  C1  UNL     1      28.164 -14.073  46.916  1.00  0.00     0.037 C
HETATM   10  C3  UNL     1      25.870 -13.294  47.067  1.00  0.00     0.037 C
HETATM   11  N13 UNL     1      27.123 -13.006  45.068  1.00  0.00    -0.405 N
HETATM   12  C18 UNL     1      26.946 -11.773  44.394  1.00  0.00     0.021 C
ATOM     13  H13 UNL     1      27.173 -13.890  44.561  1.00  0.00     0.154 HD
HETATM   14  C17 UNL     1      28.108 -10.881  44.646  1.00  0.00     0.062 C
HETATM   15  C19 UNL     1      26.958 -12.133  42.889  1.00  0.00     0.037 C
HETATM   16  C20 UNL     1      25.614 -11.101  44.601  1.00  0.00     0.037 C
ENDBRANCH   5   6
ENDBRANCH   2   5
BRANCH   3  17
HETATM   17  N10 UNL     1      31.420  -7.379  46.075  1.00  0.00    -0.270 N
ATOM     18  H10 UNL     1      32.135  -7.724  46.715  1.00  0.00     0.190 HD
BRANCH  17  19
HETATM   19  C14 UNL     1      31.649  -6.201  45.338  1.00  0.00     0.190 C
HETATM   20  N11 UNL     1      30.818  -5.685  44.494  1.00  0.00    -0.360 N
HETATM   21  C15 UNL     1      31.348  -4.486  43.911  1.00  0.00     0.142 C
ATOM     22  H11 UNL     1      29.904  -6.078  44.272  1.00  0.00     0.162 HD
HETATM   23  C16 UNL     1      32.828  -4.575  44.218  1.00  0.00     0.142 C
HETATM   24  N12 UNL     1      32.822  -5.402  45.404  1.00  0.00    -0.360 N
ATOM     25  H12 UNL     1      33.523  -5.410  46.144  1.00  0.00     0.162 HD
ENDBRANCH  17  19
ENDBRANCH   3  17
ENDBRANCH   1   2
BRANCH   1  26
HETATM   26  C8  UNL     1      29.495  -9.249  49.279  1.00  0.00     0.130 C
BRANCH  26  27
HETATM   27  N1  UNL     1      29.900  -8.375  50.360  1.00  0.00    -0.360 N
HETATM   28  C9  UNL     1      29.041  -7.316  50.745  1.00  0.00     0.227 C
HETATM   29  O2  UNL     1      27.925  -7.160  50.116  1.00  0.00    -0.273 OA
ATOM     30  H1  UNL     1      30.789  -8.519  50.837  1.00  0.00     0.162 HD
BRANCH  28  31
HETATM   31  C10 UNL     1      29.281  -6.336  51.810  1.00  0.00     0.185 C
BRANCH  31  32
HETATM   32  S1  UNL     1      28.371  -4.801  51.646  1.00  0.00    -0.082 SA
BRANCH  32  33
HETATM   33  C11 UNL     1      29.328  -3.515  50.907  1.00  0.00     0.182 A
HETATM   34  N2  UNL     1      29.968  -2.514  51.481  1.00  0.00    -0.261 N
HETATM   35  N3  UNL     1      30.567  -1.778  50.548  1.00  0.00    -0.004 NA
ATOM     36  H2  UNL     1      29.999  -2.332  52.484  1.00  0.00     0.186 HD
HETATM   37  N4  UNL     1      30.312  -2.306  49.363  1.00  0.00    -0.216 N
HETATM   38  N5  UNL     1      29.566  -3.354  49.572  1.00  0.00    -0.198 N
ATOM     39  H4  UNL     1      30.637  -1.960  48.460  1.00  0.00     0.206 HD
BRANCH  38  40
HETATM   40  C12 UNL     1      29.038  -4.246  48.598  1.00  0.00     0.198 A
HETATM   41  N6  UNL     1      29.628  -5.326  48.058  1.00  0.00    -0.220 N
HETATM   42  O3  UNL     1      28.823  -5.880  47.204  1.00  0.00    -0.153 OA
ATOM     43  H6  UNL     1      30.565  -5.660  48.284  1.00  0.00     0.198 HD
HETATM   44  N7  UNL     1      27.711  -5.208  47.153  1.00  0.00    -0.222 N
HETATM   45  C13 UNL     1      27.794  -4.179  48.002  1.00  0.00     0.169 A
ATOM     46  H7  UNL     1      26.909  -5.430  46.563  1.00  0.00     0.198 HD
BRANCH  45  47
HETATM   47  N8  UNL     1      26.934  -3.284  48.257  1.00  0.00    -0.381 N
ATOM     48  H82 UNL     1      26.834  -2.708  49.094  1.00  0.00     0.157 HD
ATOM     49  H81 UNL     1      26.188  -3.011  47.617  1.00  0.00     0.157 HD
ENDBRANCH  45  47
ENDBRANCH  38  40
ENDBRANCH  32  33
ENDBRANCH  31  32
ENDBRANCH  28  31
ENDBRANCH  26  27
ENDBRANCH   1  26
TORSDOF 12
ENDMDL