MODEL 4
REMARK VINA RESULT: -8.443590281      3.727      5.786
REMARK  12 active torsions:
REMARK  status: ('A' for Active; 'I' for Inactive)
REMARK    1  A    between atoms: C2_4  and  N2_5
REMARK    2  A    between atoms: C2_4  and  C16_33
REMARK    3  A    between atoms: N2_5  and  N3_7
REMARK    4  A    between atoms: N3_7  and  C3_9
REMARK    5  A    between atoms: C6_12  and  S1_13
REMARK    6  A    between atoms: S1_13  and  N4_15
REMARK    7  A    between atoms: N4_15  and  N5_17
REMARK       I    between atoms: N5_17  and  C7_19
REMARK    8  A    between atoms: C7_19  and  C8_21
REMARK    9  A    between atoms: C16_33  and  C17_38
REMARK   10  A    between atoms: N9_34  and  O4_36
REMARK   11  A    between atoms: N10_40  and  O5_42
REMARK   12  A    between atoms: O5_42  and  C19_43
ROOT
HETATM    1  C3  UNL     1      28.127  -8.779  51.239  1.00  0.00     0.048 A
HETATM    2  C4  UNL     1      29.014  -7.756  51.121  1.00  0.00     0.032 A
HETATM    3  C5  UNL     1      29.352  -7.282  49.845  1.00  0.00     0.025 A
HETATM    4  C6  UNL     1      28.797  -7.845  48.726  1.00  0.00     0.053 A
HETATM    5  C14 UNL     1      27.893  -8.893  48.887  1.00  0.00     0.025 A
HETATM    6  C15 UNL     1      27.549  -9.371  50.129  1.00  0.00     0.032 A
ENDROOT
BRANCH   1   7
HETATM    7  N3  UNL     1      27.719  -9.322  52.513  1.00  0.00    -0.299 N
ATOM      8  H3  UNL     1      28.239  -9.121  53.367  1.00  0.00     0.187 HD
BRANCH   7   9
HETATM    9  N2  UNL     1      26.585 -10.133  52.528  1.00  0.00    -0.283 N
ATOM     10  H2  UNL     1      26.059 -10.225  51.659  1.00  0.00     0.188 HD
BRANCH   9  11
HETATM   11  C2  UNL     1      26.104 -10.849  53.679  1.00  0.00     0.146 C
HETATM   12  N1  UNL     1      26.554 -12.012  53.917  1.00  0.00    -0.378 N
HETATM   13  C1  UNL     1      27.525 -12.714  53.136  1.00  0.00     0.148 C
ATOM     14  H1  UNL     1      26.190 -12.489  54.741  1.00  0.00     0.160 HD
BRANCH  11  15
HETATM   15  C16 UNL     1      25.084 -10.183  54.494  1.00  0.00     0.123 C
HETATM   16  N9  UNL     1      25.526  -9.256  55.255  1.00  0.00    -0.264 N
ATOM     17  H9  UNL     1      26.532  -9.097  55.196  1.00  0.00     0.194 HD
BRANCH  16  18
HETATM   18  O4  UNL     1      24.886  -8.460  56.116  1.00  0.00    -0.289 OA
ATOM     19  H4  UNL     1      23.957  -8.359  56.289  1.00  0.00     0.244 HD
ENDBRANCH  16  18
BRANCH  15  20
HETATM   20  C17 UNL     1      23.654 -10.563  54.413  1.00  0.00     0.061 C
HETATM   21  C18 UNL     1      23.233 -11.072  53.041  1.00  0.00     0.073 C
HETATM   22  N10 UNL     1      22.795 -10.533  55.267  1.00  0.00    -0.260 N
ATOM     23  H10 UNL     1      21.975 -10.879  54.769  1.00  0.00     0.194 HD
BRANCH  22  24
HETATM   24  O5  UNL     1      22.335 -10.310  56.445  1.00  0.00    -0.200 OA
BRANCH  24  25
HETATM   25  C19 UNL     1      21.209 -10.958  56.949  1.00  0.00     0.277 C
HETATM   26  C20 UNL     1      20.779 -10.831  58.361  1.00  0.00     0.128 C
HETATM   27  O6  UNL     1      20.553 -11.670  56.155  1.00  0.00    -0.264 OA
ENDBRANCH  24  25
ENDBRANCH  22  24
ENDBRANCH  15  20
ENDBRANCH  11  15
ENDBRANCH   9  11
ENDBRANCH   7   9
ENDBRANCH   1   7
BRANCH   4  28
HETATM   28  S1  UNL     1      29.118  -7.330  47.081  1.00  0.00     0.165 S
HETATM   29  O1  UNL     1      28.269  -6.209  46.625  1.00  0.00    -0.229 OA
BRANCH  28  30
HETATM   30  N4  UNL     1      30.609  -6.887  47.021  1.00  0.00    -0.242 N
ATOM     31  H4  UNL     1      31.199  -6.977  47.848  1.00  0.00     0.198 HD
BRANCH  30  32
HETATM   32  N5  UNL     1      31.142  -6.368  45.844  1.00  0.00    -0.258 N
HETATM   33  C7  UNL     1      31.524  -5.046  45.690  1.00  0.00     0.278 C
HETATM   34  O2  UNL     1      31.365  -4.306  46.740  1.00  0.00    -0.266 OA
ATOM     35  H5  UNL     1      31.258  -6.998  45.050  1.00  0.00     0.191 HD
BRANCH  33  36
HETATM   36  C8  UNL     1      32.067  -4.395  44.525  1.00  0.00     0.126 A
HETATM   37  C9  UNL     1      31.207  -4.121  43.440  1.00  0.00     0.070 A
HETATM   38  N6  UNL     1      29.820  -4.483  43.580  1.00  0.00    -0.101 NA
HETATM   39  C10 UNL     1      31.669  -3.531  42.295  1.00  0.00     0.073 A
HETATM   40  C11 UNL     1      32.989  -3.205  42.212  1.00  0.00     0.122 A
HETATM   41  N7  UNL     1      33.453  -2.598  41.032  1.00  0.00    -0.082 NA
HETATM   42  N8  UNL     1      33.845  -3.443  43.214  1.00  0.00    -0.306 N
HETATM   43  C12 UNL     1      35.258  -3.108  43.128  1.00  0.00     0.161 C
HETATM   44  C13 UNL     1      33.384  -4.032  44.354  1.00  0.00     0.266 A
HETATM   45  O3  UNL     1      34.213  -4.248  45.291  1.00  0.00    -0.267 OA
ENDBRANCH  33  36
ENDBRANCH  30  32
ENDBRANCH  28  30
ENDBRANCH   4  28
TORSDOF 12
ENDMDL