MODEL 1
REMARK VINA RESULT: -7.705740461      0.000      0.000
REMARK  10 active torsions:
REMARK  status: ('A' for Active; 'I' for Inactive)
REMARK       I    between atoms: N2_3  and  C2_4
REMARK    1  A    between atoms: C2_4  and  C3_6
REMARK    2  A    between atoms: C3_6  and  N3_7
REMARK    3  A    between atoms: C3_6  and  C17_42
REMARK    4  A    between atoms: N3_7  and  C4_9
REMARK    5  A    between atoms: C4_9  and  C5_10
REMARK    6  A    between atoms: C4_9  and  C11_24
REMARK    7  A    between atoms: N7_17  and  C6_18
REMARK    8  A    between atoms: C6_18  and  C7_19
REMARK    9  A    between atoms: C16_37  and  N12_38
REMARK   10  A    between atoms: C20_45  and  O4_46
ROOT
HETATM    1  N1  UNL     1      27.444  -9.802  47.358  1.00  0.00    -0.156 NA
HETATM    2  C1  UNL     1      27.771  -9.445  48.412  1.00  0.00     0.271 C
HETATM    3  N2  UNL     1      28.097  -9.038  49.614  1.00  0.00    -0.289 NA
HETATM    4  C2  UNL     1      28.438  -8.611  50.874  1.00  0.00     0.329 C
HETATM    5  O1  UNL     1      29.587  -8.444  51.285  1.00  0.00    -0.254 OA
ENDROOT
BRANCH   4   6
HETATM    6  C3  UNL     1      27.247  -8.331  51.787  1.00  0.00     0.220 C
BRANCH   6   7
HETATM    7  N3  UNL     1      27.023  -9.257  52.789  1.00  0.00    -0.389 N
ATOM      8  H3  UNL     1      27.742  -9.378  53.502  1.00  0.00     0.155 HD
BRANCH   7   9
HETATM    9  C4  UNL     1      25.841 -10.052  52.883  1.00  0.00     0.204 C
BRANCH   9  10
HETATM   10  C5  UNL     1      25.107  -9.947  54.160  1.00  0.00     0.144 A
HETATM   11  N4  UNL     1      25.530  -9.322  55.278  1.00  0.00    -0.270 N
HETATM   12  N5  UNL     1      24.693  -9.455  56.273  1.00  0.00    -0.227 N
ATOM     13  H4  UNL     1      26.407  -8.804  55.340  1.00  0.00     0.190 HD
HETATM   14  N6  UNL     1      23.700 -10.174  55.808  1.00  0.00    -0.224 N
ATOM     15  H5  UNL     1      24.792  -9.076  57.215  1.00  0.00     0.210 HD
HETATM   16  N7  UNL     1      23.944 -10.480  54.503  1.00  0.00    -0.255 N
ATOM     17  H6  UNL     1      22.877 -10.459  56.338  1.00  0.00     0.210 HD
BRANCH  16  18
HETATM   18  C6  UNL     1      22.933 -11.191  53.784  1.00  0.00     0.217 C
BRANCH  18  19
HETATM   19  C7  UNL     1      23.280 -12.648  53.570  1.00  0.00     0.072 A
HETATM   20  C8  UNL     1      23.641 -13.518  54.529  1.00  0.00     0.036 A
HETATM   21  C9  UNL     1      23.866 -14.750  53.890  1.00  0.00     0.027 A
HETATM   22  C10 UNL     1      23.612 -14.505  52.555  1.00  0.00     0.142 A
HETATM   23  O2  UNL     1      23.266 -13.253  52.386  1.00  0.00    -0.325 OA
ENDBRANCH  18  19
ENDBRANCH  16  18
ENDBRANCH   9  10
BRANCH   9  24
HETATM   24  C11 UNL     1      26.412 -11.462  52.801  1.00  0.00     0.120 A
HETATM   25  C12 UNL     1      26.955 -12.142  53.870  1.00  0.00     0.156 A
HETATM   26  C13 UNL     1      27.148 -11.736  55.248  1.00  0.00     0.120 C
HETATM   27  N9  UNL     1      27.381 -13.365  53.468  1.00  0.00    -0.178 N
HETATM   28  N8  UNL     1      27.332 -11.405  56.353  1.00  0.00    -0.190 NA
HETATM   29  C14 UNL     1      27.109 -13.453  52.148  1.00  0.00     0.709 A
ATOM     30  H9  UNL     1      27.821 -14.079  54.049  1.00  0.00     0.185 HD
HETATM   31  N10 UNL     1      27.319 -14.418  51.234  1.00  0.00    -0.139 N
HETATM   32  N13 UNL     1      26.516 -12.284  51.744  1.00  0.00     0.024 N
HETATM   33  C15 UNL     1      26.983 -14.303  49.947  1.00  0.00     0.352 A
ATOM     34  H10 UNL     1      27.761 -15.284  51.541  1.00  0.00     0.189 HD
HETATM   35  O3  UNL     1      27.220 -15.261  49.165  1.00  0.00    -0.246 OA
HETATM   36  N11 UNL     1      26.405 -13.158  49.570  1.00  0.00    -0.140 N
HETATM   37  C16 UNL     1      26.181 -12.172  50.465  1.00  0.00     0.701 A
ATOM     38  H11 UNL     1      26.131 -13.029  48.597  1.00  0.00     0.189 HD
BRANCH  37  39
HETATM   39  N12 UNL     1      25.625 -11.112  50.030  1.00  0.00    -0.233 N
ATOM     40 2H12 UNL     1      25.856 -10.745  49.107  1.00  0.00     0.174 HD
ATOM     41 1H12 UNL     1      24.950 -10.657  50.645  1.00  0.00     0.174 HD
ENDBRANCH  37  39
ENDBRANCH   9  24
ENDBRANCH   7   9
ENDBRANCH   6   7
BRANCH   6  42
HETATM   42  C17 UNL     1      27.542  -7.004  52.371  1.00  0.00    -0.025 A
HETATM   43  C18 UNL     1      27.439  -6.741  53.732  1.00  0.00     0.012 A
HETATM   44  C19 UNL     1      27.719  -5.490  54.244  1.00  0.00     0.037 A
HETATM   45  C20 UNL     1      28.110  -4.455  53.409  1.00  0.00     0.065 A
HETATM   46  C21 UNL     1      28.217  -4.695  52.066  1.00  0.00     0.037 A
HETATM   47  C22 UNL     1      27.934  -5.967  51.556  1.00  0.00     0.012 A
BRANCH  45  48
HETATM   48  O4  UNL     1      28.391  -3.173  53.942  1.00  0.00    -0.361 OA
ATOM     49  H4  UNL     1      29.148  -3.042  54.502  1.00  0.00     0.217 HD
ENDBRANCH  45  48
ENDBRANCH   6  42
ENDBRANCH   4   6
TORSDOF 10
ENDMDL