MODEL 5
REMARK VINA RESULT: -9.775957526      2.479      5.009
REMARK  13 active torsions:
REMARK  status: ('A' for Active; 'I' for Inactive)
REMARK    1  A    between atoms: O1_2  and  C2_3
REMARK    2  A    between atoms: C3_4  and  O2_5
REMARK    3  A    between atoms: C7_10  and  C8_11
REMARK    4  A    between atoms: C8_11  and  O4_13
REMARK    5  A    between atoms: O4_13  and  C9_14
REMARK    6  A    between atoms: C9_14  and  C10_15
REMARK    7  A    between atoms: C10_15  and  N1_16
REMARK    8  A    between atoms: C12_18  and  C13_19
REMARK    9  A    between atoms: C13_19  and  N2_21
REMARK   10  A    between atoms: N2_21  and  N3_22
REMARK       I    between atoms: N3_22  and  C15_24
REMARK   11  A    between atoms: C15_24  and  C16_26
REMARK   12  A    between atoms: C17_27  and  O6_28
REMARK   13  A    between atoms: N6_40  and  O10_41
ROOT
HETATM    1  N1  UNL     1      28.068  -9.973  48.465  1.00  0.00    -0.305 N
HETATM    2  C11 UNL     1      28.135  -8.693  48.117  1.00  0.00     0.116 A
HETATM    3  C12 UNL     1      28.669  -8.228  46.897  1.00  0.00     0.088 A
HETATM    4  C20 UNL     1      29.137  -9.178  46.030  1.00  0.00     0.290 A
HETATM    5  O9  UNL     1      29.633  -8.884  44.921  1.00  0.00    -0.265 OA
HETATM    6  N6  UNL     1      29.049 -10.485  46.417  1.00  0.00    -0.133 N
HETATM    7  C21 UNL     1      28.540 -10.892  47.579  1.00  0.00     0.355 A
HETATM    8  O11 UNL     1      28.503 -12.137  47.848  1.00  0.00    -0.244 OA
ENDROOT
BRANCH   3   9
HETATM    9  C13 UNL     1      28.812  -6.800  46.687  1.00  0.00     0.122 C
HETATM   10  C14 UNL     1      27.941  -5.925  47.593  1.00  0.00     0.088 C
BRANCH   9  11
HETATM   11  N2  UNL     1      29.529  -6.219  45.908  1.00  0.00    -0.327 NA
BRANCH  11  12
HETATM   12  N3  UNL     1      30.252  -5.636  45.126  1.00  0.00    -0.198 N
HETATM   13  C15 UNL     1      31.219  -4.595  45.086  1.00  0.00     0.290 C
HETATM   14  O5  UNL     1      31.491  -4.137  46.267  1.00  0.00    -0.265 OA
ATOM     15  H3  UNL     1      30.124  -6.021  44.190  1.00  0.00     0.205 HD
BRANCH  13  16
HETATM   16  C16 UNL     1      31.899  -4.007  43.988  1.00  0.00     0.153 A
HETATM   17  C17 UNL     1      31.165  -3.300  43.007  1.00  0.00     0.165 A
HETATM   18  N4  UNL     1      31.696  -2.773  41.919  1.00  0.00    -0.288 N
HETATM   19  C18 UNL     1      33.008  -2.890  41.690  1.00  0.00     0.329 A
ATOM     20  H4  UNL     1      31.104  -2.275  41.254  1.00  0.00     0.172 HD
HETATM   21  O7  UNL     1      33.525  -2.398  40.667  1.00  0.00    -0.247 OA
HETATM   22  N5  UNL     1      33.746  -3.537  42.569  1.00  0.00    -0.274 N
HETATM   23  C19 UNL     1      33.240  -4.103  43.713  1.00  0.00     0.269 A
ATOM     24  H5  UNL     1      34.746  -3.622  42.390  1.00  0.00     0.173 HD
HETATM   25  O8  UNL     1      34.032  -4.689  44.466  1.00  0.00    -0.267 OA
BRANCH  17  26
HETATM   26  O6  UNL     1      29.785  -3.148  43.204  1.00  0.00    -0.345 OA
ATOM     27  H6  UNL     1      29.210  -3.810  42.841  1.00  0.00     0.219 HD
ENDBRANCH  17  26
ENDBRANCH  13  16
ENDBRANCH  11  12
ENDBRANCH   9  11
ENDBRANCH   3   9
BRANCH   1  28
HETATM   28  C10 UNL     1      27.645 -10.376  49.776  1.00  0.00     0.160 C
BRANCH  28  29
HETATM   29  C9  UNL     1      27.225  -9.310  50.739  1.00  0.00     0.199 C
BRANCH  29  30
HETATM   30  O4  UNL     1      28.404  -9.073  51.550  1.00  0.00    -0.316 OA
BRANCH  30  31
HETATM   31  C8  UNL     1      29.196  -7.958  51.395  1.00  0.00     0.296 C
HETATM   32  O3  UNL     1      30.266  -8.075  50.747  1.00  0.00    -0.259 OA
BRANCH  31  33
HETATM   33  C7  UNL     1      28.845  -6.640  51.938  1.00  0.00     0.075 A
HETATM   34  C2  UNL     1      28.235  -6.557  53.150  1.00  0.00     0.117 A
HETATM   35  C3  UNL     1      27.922  -5.250  53.587  1.00  0.00     0.100 A
HETATM   36  C4  UNL     1      28.217  -4.154  52.831  1.00  0.00     0.039 A
HETATM   37  C5  UNL     1      28.845  -4.277  51.594  1.00  0.00     0.004 A
HETATM   38  C6  UNL     1      29.154  -5.523  51.153  1.00  0.00     0.021 A
BRANCH  34  39
HETATM   39  O1  UNL     1      27.908  -7.619  53.966  1.00  0.00    -0.352 OA
HETATM   40  C1  UNL     1      26.622  -8.126  54.177  1.00  0.00     0.210 C
ENDBRANCH  34  39
BRANCH  35  41
HETATM   41  O2  UNL     1      27.302  -5.108  54.809  1.00  0.00    -0.358 OA
ATOM     42  H2  UNL     1      26.366  -4.942  54.819  1.00  0.00     0.217 HD
ENDBRANCH  35  41
ENDBRANCH  31  33
ENDBRANCH  30  31
ENDBRANCH  29  30
ENDBRANCH  28  29
ENDBRANCH   1  28
BRANCH   6  43
HETATM   43  O10 UNL     1      29.509 -11.435  45.513  1.00  0.00    -0.276 OA
ATOM     44  H10 UNL     1      29.242 -12.334  45.667  1.00  0.00     0.245 HD
ENDBRANCH   6  43
TORSDOF 13
ENDMDL