MODEL 3
REMARK VINA RESULT: -8.718174716      1.286      1.647
REMARK  10 active torsions:
REMARK  status: ('A' for Active; 'I' for Inactive)
REMARK    1  A    between atoms: C2_2  and  C3_4
REMARK    2  A    between atoms: C3_4  and  N1_5
REMARK    3  A    between atoms: C3_4  and  C11_25
REMARK       I    between atoms: N1_5  and  C4_7
REMARK    4  A    between atoms: C4_7  and  C5_9
REMARK    5  A    between atoms: C5_9  and  N2_10
REMARK       I    between atoms: N2_10  and  C6_11
REMARK    6  A    between atoms: C6_11  and  C7_13
REMARK    7  A    between atoms: C8_15  and  N3_16
REMARK       I    between atoms: N3_16  and  C9_18
REMARK    8  A    between atoms: C11_25  and  O6_27
REMARK    9  A    between atoms: O6_27  and  C12_28
REMARK   10  A    between atoms: C15_31  and  N7_32
ROOT
HETATM    1  C3  UNL     1      28.502 -10.386  49.365  1.00  0.00     0.254 C
ENDROOT
BRANCH   1   2
HETATM    2  C2  UNL     1      27.946 -10.821  48.084  1.00  0.00     0.155 C
HETATM    3  C1  UNL     1      26.651 -10.333  47.557  1.00  0.00     0.093 C
HETATM    4  O1  UNL     1      28.576 -11.637  47.401  1.00  0.00    -0.296 OA
ENDBRANCH   1   2
BRANCH   1   5
HETATM    5  N1  UNL     1      27.457  -9.781  50.196  1.00  0.00    -0.335 N
HETATM    6  C4  UNL     1      27.336 -10.244  51.533  1.00  0.00     0.271 C
HETATM    7  O2  UNL     1      28.084 -11.140  51.944  1.00  0.00    -0.266 OA
ATOM      8  H1  UNL     1      26.841  -9.056  49.829  1.00  0.00     0.164 HD
BRANCH   6   9
HETATM    9  C5  UNL     1      26.293  -9.597  52.393  1.00  0.00     0.260 C
BRANCH   9  10
HETATM   10  N2  UNL     1      26.683  -8.438  53.054  1.00  0.00    -0.373 NA
HETATM   11  C6  UNL     1      27.056  -7.328  53.688  1.00  0.00     0.336 C
HETATM   12  O3  UNL     1      26.826  -6.974  54.906  1.00  0.00    -0.250 OA
BRANCH  11  13
HETATM   13  C7  UNL     1      27.856  -6.311  52.930  1.00  0.00     0.132 A
HETATM   14  S1  UNL     1      29.131  -6.572  51.828  1.00  0.00    -0.044 SA
HETATM   15  C8  UNL     1      29.441  -4.936  51.418  1.00  0.00     0.154 A
HETATM   16  N5  UNL     1      28.551  -4.270  52.148  1.00  0.00    -0.324 N
HETATM   17  C10 UNL     1      27.732  -4.953  52.927  1.00  0.00     0.142 A
ATOM     18  H5  UNL     1      28.502  -3.252  52.107  1.00  0.00     0.169 HD
HETATM   19  N6  UNL     1      26.715  -4.327  53.764  1.00  0.00    -0.081 NA
BRANCH  15  20
HETATM   20  N3  UNL     1      30.330  -4.450  50.580  1.00  0.00    -0.291 N
HETATM   21  C9  UNL     1      30.013  -3.229  49.944  1.00  0.00     0.334 C
HETATM   22  N4  UNL     1      30.828  -2.114  50.099  1.00  0.00    -0.040 NA
HETATM   23  O4  UNL     1      28.978  -3.166  49.232  1.00  0.00    -0.251 OA
ATOM     24  H3  UNL     1      31.209  -4.932  50.398  1.00  0.00     0.172 HD
ENDBRANCH  15  20
ENDBRANCH  11  13
ENDBRANCH   9  10
ENDBRANCH   6   9
ENDBRANCH   1   5
BRANCH   1  25
HETATM   25  C11 UNL     1      29.573  -9.354  49.131  1.00  0.00     0.294 C
HETATM   26  O5  UNL     1      30.783  -9.664  49.225  1.00  0.00    -0.262 OA
BRANCH  25  27
HETATM   27  O6  UNL     1      29.217  -8.078  48.810  1.00  0.00    -0.277 OA
BRANCH  27  28
HETATM   28  C12 UNL     1      29.757  -7.402  47.711  1.00  0.00     0.079 A
HETATM   29  C13 UNL     1      29.635  -7.889  46.428  1.00  0.00     0.039 A
HETATM   30  C14 UNL     1      30.171  -7.210  45.351  1.00  0.00     0.034 A
HETATM   31  C15 UNL     1      30.851  -6.018  45.499  1.00  0.00     0.059 A
HETATM   32  C18 UNL     1      30.969  -5.532  46.795  1.00  0.00     0.034 A
HETATM   33  C19 UNL     1      30.441  -6.199  47.871  1.00  0.00     0.039 A
BRANCH  31  34
HETATM   34  N7  UNL     1      31.369  -5.276  44.403  1.00  0.00    -0.225 N
HETATM   35  N8  UNL     1      30.648  -5.095  43.281  1.00  0.00    -0.264 N
HETATM   36  C16 UNL     1      31.302  -4.361  42.387  1.00  0.00     0.210 A
ATOM     37  H8  UNL     1      29.713  -5.474  43.135  1.00  0.00     0.190 HD
HETATM   38  N9  UNL     1      30.883  -3.937  41.086  1.00  0.00    -0.062 NA
HETATM   39  N10 UNL     1      32.497  -4.061  42.970  1.00  0.00    -0.302 N
HETATM   40  C17 UNL     1      32.512  -4.634  44.204  1.00  0.00     0.216 A
ATOM     41  H10 UNL     1      33.246  -3.507  42.556  1.00  0.00     0.171 HD
HETATM   42  N11 UNL     1      33.588  -4.534  45.122  1.00  0.00    -0.061 NA
ENDBRANCH  31  34
ENDBRANCH  27  28
ENDBRANCH  25  27
ENDBRANCH   1  25
TORSDOF 10
ENDMDL