MODEL 4
REMARK VINA RESULT: -9.407144829      2.221     11.684
REMARK  9 active torsions:
REMARK  status: ('A' for Active; 'I' for Inactive)
REMARK    1  A    between atoms: N1_1  and  C1_4
REMARK    2  A    between atoms: C3_6  and  N2_7
REMARK    3  A    between atoms: C4_8  and  C5_9
REMARK    4  A    between atoms: C5_9  and  N3_10
REMARK    5  A    between atoms: N3_10  and  C6_11
REMARK    6  A    between atoms: N4_15  and  C9_16
REMARK    7  A    between atoms: C11_18  and  C12_19
REMARK    8  A    between atoms: C15_22  and  C16_23
REMARK    9  A    between atoms: N5_25  and  C18_26
ROOT
HETATM    1  C9  UNL     1      27.135  -9.808  53.225  1.00  0.00     0.140 A
HETATM    2  C10 UNL     1      27.779  -9.422  52.046  1.00  0.00     0.081 A
HETATM    3  C11 UNL     1      28.039  -8.126  51.708  1.00  0.00     0.064 A
HETATM    4  N12 UNL     1      27.631  -7.190  52.605  1.00  0.00    -0.191 N
ATOM      5  H12 UNL     1      27.799  -6.204  52.406  1.00  0.00     0.184 HD
HETATM    6  C21 UNL     1      27.009  -7.538  53.754  1.00  0.00     0.677 A
HETATM    7  N13 UNL     1      26.613  -6.662  54.624  1.00  0.00    -0.234 N
ATOM      8 1H13 UNL     1      26.143  -6.924  55.491  1.00  0.00     0.174 HD
ATOM      9 2H13 UNL     1      26.797  -5.686  54.395  1.00  0.00     0.174 HD
HETATM   10  N14 UNL     1      26.762  -8.846  54.061  1.00  0.00    -0.175 N
ATOM     11  H14 UNL     1      26.291  -9.084  54.934  1.00  0.00     0.186 HD
ENDROOT
BRANCH   3  12
HETATM   12  C12 UNL     1      28.635  -7.675  50.469  1.00  0.00     0.007 A
HETATM   13  C13 UNL     1      29.382  -8.558  49.705  1.00  0.00     0.017 A
HETATM   14  C14 UNL     1      29.911  -8.187  48.497  1.00  0.00     0.033 A
HETATM   15  C15 UNL     1      29.692  -6.896  48.027  1.00  0.00     0.061 A
HETATM   16  N11 UNL     1      28.976  -6.090  48.789  1.00  0.00    -0.363 N
HETATM   17  C20 UNL     1      28.435  -6.394  49.978  1.00  0.00     0.102 A
ATOM     18  H11 UNL     1      28.820  -5.144  48.440  1.00  0.00     0.165 HD
BRANCH  15  19
HETATM   19  C16 UNL     1      30.224  -6.568  46.711  1.00  0.00     0.093 A
HETATM   20  C17 UNL     1      31.186  -5.607  46.436  1.00  0.00     0.153 A
HETATM   21  N5  UNL     1      31.351  -5.584  45.127  1.00  0.00    -0.229 N
HETATM   22  N9  UNL     1      30.526  -6.499  44.599  1.00  0.00    -0.234 N
HETATM   23  N10 UNL     1      29.847  -7.093  45.529  1.00  0.00    -0.282 N
ATOM     24  H9  UNL     1      30.445  -6.700  43.602  1.00  0.00     0.209 HD
ATOM     25  H10 UNL     1      29.151  -7.827  45.391  1.00  0.00     0.188 HD
BRANCH  21  26
HETATM   26  C18 UNL     1      32.182  -4.759  44.326  1.00  0.00     0.195 A
HETATM   27  N6  UNL     1      33.550  -4.769  44.355  1.00  0.00    -0.220 N
HETATM   28  O2  UNL     1      33.960  -3.904  43.514  1.00  0.00    -0.153 OA
ATOM     29  H6  UNL     1      34.135  -5.363  44.943  1.00  0.00     0.198 HD
HETATM   30  N7  UNL     1      33.007  -3.307  42.917  1.00  0.00    -0.222 N
HETATM   31  C19 UNL     1      31.850  -3.814  43.399  1.00  0.00     0.169 A
ATOM     32  H7  UNL     1      33.099  -2.582  42.206  1.00  0.00     0.198 HD
HETATM   33  N8  UNL     1      30.665  -3.446  43.025  1.00  0.00    -0.381 N
ATOM     34  H82 UNL     1      29.793  -3.828  43.389  1.00  0.00     0.157 HD
ATOM     35  H81 UNL     1      30.417  -2.740  42.333  1.00  0.00     0.157 HD
ENDBRANCH  21  26
ENDBRANCH  15  19
ENDBRANCH   3  12
BRANCH   1  36
HETATM   36  N4  UNL     1      26.835 -11.159  53.448  1.00  0.00    -0.272 N
HETATM   37  N2  UNL     1      25.709 -11.827  54.030  1.00  0.00    -0.262 N
HETATM   38  C4  UNL     1      25.519 -12.937  53.195  1.00  0.00     0.164 C
HETATM   39  C7  UNL     1      26.970 -13.476  53.088  1.00  0.00     0.056 C
HETATM   40  C8  UNL     1      27.768 -12.234  52.994  1.00  0.00     0.153 C
BRANCH  37  41
HETATM   41  C3  UNL     1      25.099 -11.285  55.197  1.00  0.00     0.127 A
HETATM   42  C2  UNL     1      25.685 -11.200  56.417  1.00  0.00     0.098 A
HETATM   43  C1  UNL     1      25.038 -10.623  57.471  1.00  0.00     0.103 A
HETATM   44  N16 UNL     1      23.783 -10.102  57.372  1.00  0.00    -0.339 N
HETATM   45  C22 UNL     1      23.223 -10.192  56.167  1.00  0.00     0.183 A
ATOM     46  H16 UNL     1      23.306  -9.673  58.164  1.00  0.00     0.168 HD
HETATM   47  N15 UNL     1      23.825 -10.749  55.122  1.00  0.00    -0.337 N
ATOM     48  H15 UNL     1      23.330 -10.783  54.231  1.00  0.00     0.168 HD
BRANCH  43  49
HETATM   49  N1  UNL     1      25.600 -10.546  58.629  1.00  0.00    -0.385 N
ATOM     50  H12 UNL     1      26.080 -11.385  58.957  1.00  0.00     0.157 HD
ATOM     51  H11 UNL     1      25.557  -9.685  59.174  1.00  0.00     0.157 HD
ENDBRANCH  43  49
ENDBRANCH  37  41
BRANCH  38  52
HETATM   52  C5  UNL     1      24.694 -14.103  53.468  1.00  0.00     0.185 C
BRANCH  52  53
HETATM   53  N3  UNL     1      23.627 -14.109  54.346  1.00  0.00    -0.393 NA
BRANCH  53  54
HETATM   54  C6  UNL     1      22.590 -14.114  55.198  1.00  0.00     0.440 C
HETATM   55  O1  UNL     1      21.652 -13.226  55.332  1.00  0.00    -0.268 OA
ENDBRANCH  53  54
ENDBRANCH  52  53
ENDBRANCH  38  52
ENDBRANCH   1  36
TORSDOF 9
ENDMDL