MODEL 1
REMARK VINA RESULT: -5.977427632      0.000      0.000
REMARK  6 active torsions:
REMARK  status: ('A' for Active; 'I' for Inactive)
REMARK    1  A    between atoms: C2_2  and  C3_3
REMARK    2  A    between atoms: C3_3  and  C6_6
REMARK    3  A    between atoms: C7_7  and  C8_8
REMARK    4  A    between atoms: C9_9  and  C10_10
REMARK    5  A    between atoms: C14_14  and  C15_15
REMARK    6  A    between atoms: C23_27  and  C24_28
ROOT
HETATM    1  C10 UNL     1       2.319  16.180 -58.600  1.00  0.00     0.031 C
HETATM    2  C11 UNL     1       2.561  15.534 -57.452  1.00  0.00    -0.000 C
HETATM    3  C12 UNL     1       1.893  14.334 -56.968  1.00  0.00     0.071 C
HETATM    4  C13 UNL     1       1.305  13.538 -58.070  1.00  0.00    -0.000 C
HETATM    5  C14 UNL     1       1.068  12.251 -57.914  1.00  0.00     0.060 C
HETATM    6  C19 UNL     1       0.983  14.240 -59.303  1.00  0.00     0.192 C
HETATM    7  O1  UNL     1       0.248  13.676 -60.114  1.00  0.00    -0.287 OA
HETATM    8  C20 UNL     1       1.494  15.610 -59.628  1.00  0.00     0.060 C
HETATM    9  C21 UNL     1       1.061  16.234 -60.696  1.00  0.00     0.051 A
HETATM   10  C22 UNL     1       1.235  17.593 -61.149  1.00  0.00     0.054 A
HETATM   11  C23 UNL     1       0.708  17.794 -62.386  1.00  0.00     0.110 A
HETATM   12  C25 UNL     1       0.135  16.563 -62.845  1.00  0.00     0.263 A
HETATM   13  O4  UNL     1      -0.439  16.362 -63.932  1.00  0.00    -0.267 OA
HETATM   14  N3  UNL     1       0.364  15.611 -61.787  1.00  0.00    -0.322 N
ATOM     15  H3  UNL     1       0.072  14.635 -61.810  1.00  0.00     0.169 HD
ENDROOT
BRANCH   1  16
HETATM   16  C9  UNL     1       3.114  17.369 -58.858  1.00  0.00    -0.052 C
HETATM   17  C8  UNL     1       3.808  18.345 -59.121  1.00  0.00    -0.009 C
BRANCH  17  18
HETATM   18  C7  UNL     1       4.606  19.464 -59.449  1.00  0.00    -0.014 C
HETATM   19  C6  UNL     1       5.298  20.413 -59.747  1.00  0.00    -0.083 C
BRANCH  19  20
HETATM   20  C3  UNL     1       6.131  21.534 -60.124  1.00  0.00     0.017 C
HETATM   21  C4  UNL     1       5.809  22.795 -59.384  1.00  0.00     0.029 C
HETATM   22  C5  UNL     1       7.601  21.249 -60.012  1.00  0.00     0.029 C
BRANCH  20  23
HETATM   23  C2  UNL     1       5.854  21.806 -61.608  1.00  0.00     0.017 C
HETATM   24  C1  UNL     1       4.563  22.578 -61.669  1.00  0.00     0.006 C
ENDBRANCH  20  23
ENDBRANCH  19  20
ENDBRANCH  17  18
ENDBRANCH   1  16
BRANCH   5  25
HETATM   25  C15 UNL     1       0.532  11.258 -58.775  1.00  0.00     0.107 A
HETATM   26  N1  UNL     1       1.123  10.388 -59.600  1.00  0.00    -0.351 N
HETATM   27  C16 UNL     1       0.184   9.662 -60.216  1.00  0.00     0.107 A
ATOM     28  H1  UNL     1       2.129  10.293 -59.738  1.00  0.00     0.166 HD
HETATM   29  C17 UNL     1      -1.038  10.085 -59.765  1.00  0.00     0.109 A
HETATM   30  N2  UNL     1      -0.816  11.058 -58.887  1.00  0.00    -0.346 N
HETATM   31  C18 UNL     1      -1.864  11.794 -58.159  1.00  0.00     0.157 C
ENDBRANCH   5  25
BRANCH  11  32
HETATM   32  C24 UNL     1       0.722  19.057 -63.119  1.00  0.00     0.215 C
HETATM   33  O2  UNL     1       1.534  19.956 -62.828  1.00  0.00    -0.644 OA
HETATM   34  O3  UNL     1      -0.168  19.270 -64.147  1.00  0.00    -0.644 OA
ENDBRANCH  11  32
TORSDOF 6
ENDMDL