MODEL 2
REMARK VINA RESULT: -5.503720854      2.655      3.760
REMARK  2 active torsions:
REMARK  status: ('A' for Active; 'I' for Inactive)
REMARK    1  A    between atoms: C2_2  and  N1_3
REMARK    2  A    between atoms: C7_8  and  N2_9
REMARK       I    between atoms: N2_9  and  C8_11
REMARK       I    between atoms: C8_11  and  N3_13
REMARK       I    between atoms: N6_21  and  C12_23
REMARK       I    between atoms: C12_23  and  N7_25
ROOT
HETATM    1  N2  UNL     1       1.066  16.762 -57.889  1.00  0.00    -0.329 N
ATOM      2  H2  UNL     1       2.072  16.817 -58.045  1.00  0.00     0.165 HD
HETATM    3  C8  UNL     1       0.210  17.391 -58.822  1.00  0.00     0.319 C
HETATM    4  O1  UNL     1      -1.027  17.331 -58.644  1.00  0.00    -0.247 OA
HETATM    5  N3  UNL     1       0.712  18.085 -59.950  1.00  0.00    -0.324 N
HETATM    6  C9  UNL     1       2.098  18.277 -60.346  1.00  0.00     0.187 C
HETATM    7  C10 UNL     1       2.098  19.594 -61.015  1.00  0.00     0.055 A
HETATM    8  N4  UNL     1       2.874  20.616 -61.407  1.00  0.00    -0.301 N
ATOM      9  H4  UNL     1       3.882  20.697 -61.282  1.00  0.00     0.186 HD
HETATM   10  N5  UNL     1       2.080  21.495 -61.984  1.00  0.00    -0.285 N
ATOM     11  H5  UNL     1       2.401  22.379 -62.380  1.00  0.00     0.188 HD
HETATM   12  C11 UNL     1       0.803  21.092 -61.989  1.00  0.00     0.134 A
HETATM   13  N6  UNL     1      -0.237  21.687 -62.463  1.00  0.00    -0.293 N
ATOM     14  H6  UNL     1      -1.160  21.257 -62.397  1.00  0.00     0.172 HD
HETATM   15  C12 UNL     1      -0.070  22.956 -63.081  1.00  0.00     0.324 C
HETATM   16  O2  UNL     1      -0.085  23.969 -62.354  1.00  0.00    -0.247 OA
HETATM   17  N7  UNL     1       0.109  23.101 -64.471  1.00  0.00    -0.334 N
HETATM   18  C13 UNL     1       0.275  24.398 -65.067  1.00  0.00     0.128 C
HETATM   19  C14 UNL     1       0.048  24.290 -66.567  1.00  0.00     0.024 C
HETATM   20  C15 UNL     1      -1.182  23.457 -66.871  1.00  0.00    -0.015 C
HETATM   21  C16 UNL     1      -1.279  23.381 -68.392  1.00  0.00     0.010 C
HETATM   22  C17 UNL     1      -1.076  22.085 -66.271  1.00  0.00     0.024 C
HETATM   23  C18 UNL     1       0.135  21.951 -65.371  1.00  0.00     0.128 C
HETATM   24  C19 UNL     1       0.804  19.875 -61.371  1.00  0.00     0.031 A
HETATM   25  C20 UNL     1      -0.095  18.754 -60.950  1.00  0.00     0.172 C
ENDROOT
BRANCH   1  26
HETATM   26  C7  UNL     1       0.594  16.043 -56.725  1.00  0.00     0.188 C
HETATM   27  C6  UNL     1      -0.915  16.397 -56.516  1.00  0.00     0.115 C
HETATM   28  C5  UNL     1      -1.539  15.164 -56.690  1.00  0.00    -0.179 C
HETATM   29  C4  UNL     1      -2.267  13.979 -56.845  1.00  0.00     0.100 C
HETATM   30  C3  UNL     1      -1.141  12.929 -57.099  1.00  0.00     0.137 C
HETATM   31  N1  UNL     1       0.166  13.448 -57.258  1.00  0.00    -0.350 N
HETATM   32  C21 UNL     1       0.883  14.630 -56.913  1.00  0.00     0.243 C
HETATM   33  O3  UNL     1       2.119  14.391 -56.710  1.00  0.00    -0.271 OA
BRANCH  31  34
HETATM   34  C2  UNL     1       1.019  12.490 -57.983  1.00  0.00     0.121 C
HETATM   35  C1  UNL     1       0.388  12.005 -59.243  1.00  0.00     0.026 C
ENDBRANCH  31  34
ENDBRANCH   1  26
TORSDOF 2
ENDMDL