MODEL 2
REMARK VINA RESULT: -6.483055311      2.259     10.743
REMARK  5 active torsions:
REMARK  status: ('A' for Active; 'I' for Inactive)
REMARK       I    between atoms: C2_2  and  N1_4
REMARK    1  A    between atoms: N1_4  and  C3_6
REMARK    2  A    between atoms: C3_6  and  C5_8
REMARK    3  A    between atoms: C5_8  and  C6_9
REMARK    4  A    between atoms: C6_9  and  C7_10
REMARK    5  A    between atoms: C13_19  and  C14_20
ROOT
HETATM    1  C7  UNL     1       0.723  12.947 -61.736  1.00  0.00     0.089 A
HETATM    2  C8  UNL     1       0.918  12.015 -60.745  1.00  0.00     0.040 A
HETATM    3  C9  UNL     1       0.701  12.417 -59.445  1.00  0.00     0.021 A
HETATM    4  C10 UNL     1       0.298  13.723 -59.171  1.00  0.00     0.043 A
HETATM    5  C11 UNL     1       0.126  13.955 -57.820  1.00  0.00     0.211 C
HETATM    6  O2  UNL     1      -0.009  12.936 -57.107  1.00  0.00    -0.285 OA
HETATM    7  C12 UNL     1       0.090  15.184 -57.191  1.00  0.00     0.095 A
HETATM    8  N2  UNL     1       0.218  15.327 -55.859  1.00  0.00    -0.350 N
ATOM      9  H2  UNL     1       0.350  14.543 -55.220  1.00  0.00     0.166 HD
HETATM   10  C13 UNL     1       0.153  16.602 -55.460  1.00  0.00     0.062 A
HETATM   11  C19 UNL     1      -0.029  17.329 -56.634  1.00  0.00     0.046 A
HETATM   12  C20 UNL     1      -0.068  16.459 -57.693  1.00  0.00     0.003 A
HETATM   13  C21 UNL     1      -0.235  16.804 -59.017  1.00  0.00    -0.047 C
HETATM   14  C22 UNL     1      -0.375  18.230 -59.307  1.00  0.00     0.049 C
HETATM   15  C23 UNL     1      -0.285  15.961 -60.097  1.00  0.00     0.038 C
HETATM   16  C24 UNL     1       0.115  14.625 -60.210  1.00  0.00     0.049 A
HETATM   17  N5  UNL     1       0.329  14.224 -61.468  1.00  0.00    -0.344 N
HETATM   18  C25 UNL     1       0.132  15.189 -62.534  1.00  0.00     0.157 C
ENDROOT
BRANCH   1  19
HETATM   19  C6  UNL     1       0.943  12.560 -63.106  1.00  0.00    -0.046 C
BRANCH  19  20
HETATM   20  C5  UNL     1       1.149  12.232 -64.263  1.00  0.00    -0.074 C
BRANCH  20  21
HETATM   21  C3  UNL     1       1.420  11.850 -65.654  1.00  0.00     0.160 C
HETATM   22  C4  UNL     1       0.548  12.628 -66.614  1.00  0.00     0.046 C
BRANCH  21  23
HETATM   23  N1  UNL     1       2.832  12.121 -65.892  1.00  0.00    -0.347 N
HETATM   24  C2  UNL     1       3.849  11.386 -65.238  1.00  0.00     0.214 C
HETATM   25  C1  UNL     1       5.264  11.692 -65.508  1.00  0.00     0.117 C
HETATM   26  O1  UNL     1       3.518  10.481 -64.438  1.00  0.00    -0.274 OA
ATOM     27  H1  UNL     1       3.094  12.859 -66.545  1.00  0.00     0.163 HD
ENDBRANCH  21  23
ENDBRANCH  20  21
ENDBRANCH  19  20
ENDBRANCH   1  19
BRANCH  10  28
HETATM   28  C14 UNL     1       0.248  17.157 -54.116  1.00  0.00     0.082 A
HETATM   29  N3  UNL     1       1.396  17.096 -53.380  1.00  0.00    -0.349 N
HETATM   30  C15 UNL     1       1.183  17.684 -52.193  1.00  0.00     0.183 A
ATOM     31  H3  UNL     1       2.274  16.673 -53.683  1.00  0.00     0.167 HD
HETATM   32  N4  UNL     1      -0.080  18.128 -52.133  1.00  0.00    -0.349 N
HETATM   33  C16 UNL     1      -0.695  18.815 -51.023  1.00  0.00     0.156 C
HETATM   34  C17 UNL     1      -0.646  17.800 -53.320  1.00  0.00     0.037 A
HETATM   35  C18 UNL     1      -2.046  18.107 -53.676  1.00  0.00     0.071 C
ENDBRANCH  10  28
TORSDOF 5
ENDMDL