MODEL 3
REMARK VINA RESULT: -7.037220504      1.465      2.343
REMARK  7 active torsions:
REMARK  status: ('A' for Active; 'I' for Inactive)
REMARK    1  A    between atoms: C8_8  and  C9_9
REMARK    2  A    between atoms: C10_10  and  O1_11
REMARK    3  A    between atoms: C13_15  and  N3_32
REMARK    4  A    between atoms: C18_20  and  C19_21
REMARK    5  A    between atoms: C20_22  and  C21_23
REMARK    6  A    between atoms: C22_24  and  C23_25
REMARK    7  A    between atoms: C23_25  and  N1_27
REMARK       I    between atoms: N1_27  and  C25_29
ROOT
HETATM    1  C1  UNL     1       4.100  16.273 -58.364  1.00  0.00     0.014 C
HETATM    2  C2  UNL     1       3.033  15.895 -57.936  1.00  0.00    -0.092 C
HETATM    3  C3  UNL     1       1.722  15.452 -57.413  1.00  0.00     0.168 C
HETATM    4  C4  UNL     1       1.773  13.940 -57.076  1.00  0.00     0.058 C
HETATM    5  C5  UNL     1       0.973  13.244 -58.164  1.00  0.00     0.048 C
HETATM    6  C6  UNL     1       1.342  11.839 -58.507  1.00  0.00     0.020 C
HETATM    7  C7  UNL     1      -0.153  11.679 -58.875  1.00  0.00     0.008 C
HETATM    8  C8  UNL     1      -0.364  12.778 -57.879  1.00  0.00     0.016 C
HETATM    9  N3  UNL     1       0.730  15.358 -58.506  1.00  0.00    -0.328 N
HETATM   10  C26 UNL     1       1.148  14.250 -59.270  1.00  0.00     0.230 C
HETATM   11  O3  UNL     1       1.553  13.921 -60.402  1.00  0.00    -0.272 OA
ENDROOT
BRANCH   9  12
HETATM   12  C13 UNL     1      -0.351  16.316 -58.409  1.00  0.00     0.119 C
HETATM   13  C11 UNL     1       0.094  17.623 -59.035  1.00  0.00    -0.037 C
HETATM   14  C10 UNL     1       0.937  17.817 -60.244  1.00  0.00     0.159 C
HETATM   15  C12 UNL     1      -0.295  18.643 -58.377  1.00  0.00     0.019 C
HETATM   16  C9  UNL     1       0.891  16.680 -61.195  1.00  0.00     0.014 A
HETATM   17  C17 UNL     1      -0.477  16.423 -61.684  1.00  0.00     0.015 A
HETATM   18  C18 UNL     1       0.462  17.046 -62.658  1.00  0.00     0.083 A
HETATM   19  C16 UNL     1      -1.571  17.336 -61.242  1.00  0.00     0.007 C
HETATM   20  C15 UNL     1      -2.250  16.951 -59.953  1.00  0.00     0.003 C
HETATM   21  C14 UNL     1      -1.537  15.876 -59.208  1.00  0.00     0.030 C
BRANCH  14  22
HETATM   22  O1  UNL     1       2.229  18.230 -59.907  1.00  0.00    -0.390 OA
ATOM     23  H1  UNL     1       2.718  17.598 -59.392  1.00  0.00     0.210 HD
ENDBRANCH  14  22
BRANCH  18  24
HETATM   24  C19 UNL     1       0.383  18.455 -62.932  1.00  0.00    -0.086 C
HETATM   25  C20 UNL     1       0.299  19.653 -63.189  1.00  0.00    -0.015 C
BRANCH  25  26
HETATM   26  C21 UNL     1       0.186  21.038 -63.468  1.00  0.00    -0.013 C
HETATM   27  C22 UNL     1       0.072  22.215 -63.714  1.00  0.00    -0.067 C
BRANCH  27  28
HETATM   28  C23 UNL     1      -0.073  23.644 -64.039  1.00  0.00     0.162 C
HETATM   29  C24 UNL     1       0.203  24.433 -62.777  1.00  0.00     0.046 C
BRANCH  28  30
HETATM   30  N1  UNL     1       0.761  24.039 -65.130  1.00  0.00    -0.331 N
HETATM   31  C25 UNL     1       0.262  24.176 -66.449  1.00  0.00     0.329 C
HETATM   32  N2  UNL     1       1.097  24.568 -67.520  1.00  0.00    -0.040 NA
HETATM   33  O2  UNL     1      -0.964  23.946 -66.701  1.00  0.00    -0.251 OA
ATOM     34  H1  UNL     1       1.748  24.229 -64.953  1.00  0.00     0.165 HD
ENDBRANCH  28  30
ENDBRANCH  27  28
ENDBRANCH  25  26
ENDBRANCH  18  24
ENDBRANCH   9  12
TORSDOF 7
ENDMDL