MODEL 1
REMARK VINA RESULT: -7.258550326      0.000      0.000
REMARK  6 active torsions:
REMARK  status: ('A' for Active; 'I' for Inactive)
REMARK    1  A    between atoms: C3_3  and  C4_4
REMARK    2  A    between atoms: C4_4  and  N8_30
REMARK    3  A    between atoms: N1_5  and  C5_7
REMARK    4  A    between atoms: C5_7  and  N2_9
REMARK    5  A    between atoms: N2_9  and  C6_11
REMARK    6  A    between atoms: C9_14  and  N3_15
REMARK       I    between atoms: N4_18  and  C12_19
REMARK       I    between atoms: C12_19  and  N5_21
ROOT
HETATM    1  C1  UNL     1       0.334  23.957 -63.533  1.00  0.00     0.112 C
HETATM    2  C2  UNL     1       1.029  22.825 -62.934  1.00  0.00    -0.103 C
HETATM    3  C3  UNL     1       1.599  21.886 -62.435  1.00  0.00    -0.031 C
ENDROOT
BRANCH   3   4
HETATM    4  C4  UNL     1       2.274  20.764 -61.814  1.00  0.00     0.161 C
HETATM    5  N1  UNL     1       3.423  20.954 -61.344  1.00  0.00    -0.312 N
ATOM      6  H1  UNL     1       3.843  21.881 -61.415  1.00  0.00     0.170 HD
BRANCH   5   7
HETATM    7  C5  UNL     1       4.157  19.901 -60.713  1.00  0.00     0.178 C
HETATM    8  S1  UNL     1       5.249  19.118 -61.619  1.00  0.00    -0.040 SA
BRANCH   7   9
HETATM    9  N2  UNL     1       3.889  19.579 -59.395  1.00  0.00    -0.333 N
ATOM     10  H2  UNL     1       4.335  20.140 -58.669  1.00  0.00     0.168 HD
BRANCH   9  11
HETATM   11  C6  UNL     1       3.042  18.529 -58.986  1.00  0.00     0.034 A
HETATM   12  C7  UNL     1       1.788  18.822 -58.424  1.00  0.00     0.032 A
HETATM   13  C8  UNL     1       0.969  17.819 -57.988  1.00  0.00     0.031 A
HETATM   14  C9  UNL     1       1.348  16.501 -58.087  1.00  0.00     0.030 A
HETATM   15  C16 UNL     1       2.572  16.179 -58.632  1.00  0.00     0.031 A
HETATM   16  C17 UNL     1       3.388  17.203 -59.067  1.00  0.00     0.032 A
BRANCH  14  17
HETATM   17  N3  UNL     1       0.514  15.462 -57.664  1.00  0.00    -0.378 N
HETATM   18  C10 UNL     1      -0.892  15.662 -57.425  1.00  0.00     0.143 C
HETATM   19  C11 UNL     1      -1.765  14.503 -57.740  1.00  0.00     0.147 C
HETATM   20  N4  UNL     1      -1.098  13.303 -58.163  1.00  0.00    -0.331 N
HETATM   21  C12 UNL     1      -1.875  12.126 -58.344  1.00  0.00     0.324 C
HETATM   22  C14 UNL     1       0.325  13.219 -58.413  1.00  0.00     0.147 C
HETATM   23  O1  UNL     1      -3.117  12.200 -58.126  1.00  0.00    -0.247 OA
HETATM   24  N5  UNL     1      -1.237  10.940 -58.755  1.00  0.00    -0.285 N
HETATM   25  C13 UNL     1      -1.912   9.914 -59.080  1.00  0.00     0.204 C
ATOM     26  H5  UNL     1      -0.218  10.905 -58.793  1.00  0.00     0.172 HD
HETATM   27  N6  UNL     1      -3.322   9.945 -59.036  1.00  0.00    -0.066 NA
HETATM   28  N7  UNL     1      -1.245   8.741 -59.485  1.00  0.00    -0.066 NA
HETATM   29  C15 UNL     1       1.052  14.143 -57.431  1.00  0.00     0.143 C
ENDBRANCH  14  17
ENDBRANCH   9  11
ENDBRANCH   7   9
ENDBRANCH   5   7
BRANCH   4  30
HETATM   30  N8  UNL     1       1.631  19.510 -61.761  1.00  0.00    -0.360 N
HETATM   31  C18 UNL     1       2.047  18.235 -62.346  1.00  0.00     0.125 C
HETATM   32  C19 UNL     1       0.742  17.796 -62.992  1.00  0.00     0.021 C
HETATM   33  C20 UNL     1      -0.356  18.424 -62.181  1.00  0.00     0.021 C
HETATM   34  C21 UNL     1       0.369  19.188 -61.104  1.00  0.00     0.125 C
ENDBRANCH   4  30
ENDBRANCH   3   4
TORSDOF 6
ENDMDL