MODEL 2
REMARK VINA RESULT: -10.524843526      1.721      2.847
REMARK  6 active torsions:
REMARK  status: ('A' for Active; 'I' for Inactive)
REMARK    1  A    between atoms: C2_2  and  C3_3
REMARK    2  A    between atoms: C3_3  and  C4_4
REMARK    3  A    between atoms: C4_4  and  C5_5
REMARK       I    between atoms: C5_5  and  N1_7
REMARK    4  A    between atoms: C11_13  and  C12_14
REMARK    5  A    between atoms: C12_14  and  O2_15
REMARK    6  A    between atoms: C12_14  and  N2_17
ROOT
HETATM    1  C5  UNL     1       0.373  11.856 -60.497  1.00  0.00     0.251 C
HETATM    2  O1  UNL     1       0.010  12.064 -61.669  1.00  0.00    -0.268 OA
HETATM    3  N1  UNL     1       0.782  12.873 -59.618  1.00  0.00    -0.342 N
HETATM    4  C6  UNL     1       1.251  12.996 -58.269  1.00  0.00     0.133 C
HETATM    5  C7  UNL     1       0.786  14.415 -58.223  1.00  0.00     0.031 C
HETATM    6  C8  UNL     1      -0.629  14.723 -57.970  1.00  0.00    -0.002 C
HETATM    7  C9  UNL     1      -1.294  14.989 -59.334  1.00  0.00     0.013 C
HETATM    8  C10 UNL     1      -0.353  14.931 -60.233  1.00  0.00     0.022 C
HETATM    9  C11 UNL     1      -0.731  15.299 -61.752  1.00  0.00     0.076 C
HETATM   10  C16 UNL     1      -1.279  16.576 -61.157  1.00  0.00     0.093 C
HETATM   11  C17 UNL     1      -1.590  17.264 -60.337  1.00  0.00    -0.181 C
HETATM   12  C18 UNL     1      -1.895  17.853 -59.103  1.00  0.00     0.089 C
HETATM   13  C19 UNL     1      -1.225  17.331 -57.853  1.00  0.00    -0.027 C
HETATM   14  C20 UNL     1       0.081  18.260 -57.935  1.00  0.00     0.017 C
HETATM   15  C21 UNL     1      -1.998  18.106 -56.731  1.00  0.00    -0.001 A
HETATM   16  C22 UNL     1      -3.222  17.624 -56.141  1.00  0.00     0.011 A
HETATM   17  C23 UNL     1      -1.871  17.254 -55.556  1.00  0.00    -0.009 A
HETATM   18  C24 UNL     1      -1.463  15.854 -55.973  1.00  0.00     0.011 C
HETATM   19  C25 UNL     1      -0.789  16.126 -57.321  1.00  0.00    -0.000 C
HETATM   20  C26 UNL     1       0.860  14.351 -59.720  1.00  0.00     0.098 C
ENDROOT
BRANCH   9  21
HETATM   21  C12 UNL     1       0.514  15.512 -62.464  1.00  0.00     0.122 C
BRANCH  21  22
HETATM   22  O2  UNL     1       1.071  14.411 -62.899  1.00  0.00    -0.349 OA
ATOM     23  H2  UNL     1       0.606  14.005 -63.621  1.00  0.00     0.219 HD
ENDBRANCH  21  22
BRANCH  21  24
HETATM   24  N2  UNL     1       1.198  16.664 -62.754  1.00  0.00    -0.325 N
HETATM   25  C13 UNL     1       1.870  17.408 -61.980  1.00  0.00     0.122 A
HETATM   26  C14 UNL     1       2.163  17.369 -60.635  1.00  0.00     0.068 A
HETATM   27  N4  UNL     1       2.518  18.531 -62.428  1.00  0.00    -0.286 N
HETATM   28  C15 UNL     1       2.949  18.421 -60.311  1.00  0.00     0.111 A
HETATM   29  N3  UNL     1       3.150  19.118 -61.436  1.00  0.00    -0.310 N
ATOM     30  H3  UNL     1       3.705  19.971 -61.511  1.00  0.00     0.186 HD
ATOM     31  H4  UNL     1       2.511  18.862 -63.392  1.00  0.00     0.188 HD
ATOM     32  H2  UNL     1       1.162  16.963 -63.728  1.00  0.00     0.169 HD
ENDBRANCH  21  24
ENDBRANCH   9  21
BRANCH   1  33
HETATM   33  C4  UNL     1       0.344  10.423 -60.061  1.00  0.00     0.129 C
BRANCH  33  34
HETATM   34  C3  UNL     1      -0.630   9.925 -59.484  1.00  0.00    -0.123 C
BRANCH  34  35
HETATM   35  C2  UNL     1      -1.707   9.372 -58.845  1.00  0.00     0.045 C
HETATM   36  C1  UNL     1      -2.628   8.611 -59.508  1.00  0.00     0.020 C
ENDBRANCH  34  35
ENDBRANCH  33  34
ENDBRANCH   1  33
TORSDOF 6
ENDMDL