MODEL 4
REMARK VINA RESULT: -5.540652219      4.818      7.051
REMARK  4 active torsions:
REMARK  status: ('A' for Active; 'I' for Inactive)
REMARK       I    between atoms: C2_2  and  N1_4
REMARK    1  A    between atoms: N3_18  and  C14_19
REMARK    2  A    between atoms: C14_19  and  O2_20
REMARK    3  A    between atoms: C14_19  and  N4_22
REMARK    4  A    between atoms: N4_22  and  C15_23
REMARK       I    between atoms: N5_26  and  C18_27
ROOT
HETATM    1  C1  UNL     1       0.579  12.783 -66.122  1.00  0.00     0.117 C
HETATM    2  C2  UNL     1       0.097  13.826 -65.233  1.00  0.00     0.215 C
HETATM    3  O1  UNL     1       0.044  15.055 -65.610  1.00  0.00    -0.274 OA
HETATM    4  N1  UNL     1      -0.335  13.519 -63.917  1.00  0.00    -0.352 N
HETATM    5  C3  UNL     1      -0.249  12.122 -63.570  1.00  0.00     0.132 C
HETATM    6  C4  UNL     1       0.953  11.963 -62.641  1.00  0.00     0.077 C
HETATM    7  C5  UNL     1       0.545  12.522 -61.328  1.00  0.00     0.018 A
HETATM    8  N2  UNL     1       0.493  11.731 -60.253  1.00  0.00    -0.362 N
ATOM      9  H2  UNL     1       0.724  10.738 -60.230  1.00  0.00     0.165 HD
HETATM   10  C6  UNL     1       0.088  12.462 -59.213  1.00  0.00     0.017 A
HETATM   11  C7  UNL     1      -0.130  13.780 -59.638  1.00  0.00    -0.023 A
HETATM   12  C8  UNL     1       0.168  13.809 -61.001  1.00  0.00    -0.025 A
HETATM   13  C9  UNL     1       0.109  14.928 -61.936  1.00  0.00     0.061 C
HETATM   14  C10 UNL     1      -0.791  14.624 -63.134  1.00  0.00     0.130 C
HETATM   15  C11 UNL     1      -0.572  14.623 -58.532  1.00  0.00     0.028 C
HETATM   16  C12 UNL     1       0.002  15.984 -58.449  1.00  0.00     0.030 C
HETATM   17  C13 UNL     1       0.180  16.253 -56.923  1.00  0.00     0.128 C
HETATM   18  N3  UNL     1       1.290  15.466 -56.440  1.00  0.00    -0.336 N
HETATM   19  C21 UNL     1       1.448  14.185 -57.169  1.00  0.00     0.133 C
HETATM   20  C22 UNL     1      -0.022  13.794 -57.340  1.00  0.00     0.018 C
HETATM   21  C23 UNL     1      -0.226  12.412 -57.750  1.00  0.00     0.064 C
ENDROOT
BRANCH  18  22
HETATM   22  C14 UNL     1       2.068  15.730 -55.287  1.00  0.00     0.291 C
BRANCH  22  23
HETATM   23  O2  UNL     1       3.333  15.433 -55.364  1.00  0.00    -0.322 OA
ATOM     24  H2  UNL     1       3.581  14.816 -56.041  1.00  0.00     0.222 HD
ENDBRANCH  22  23
BRANCH  22  25
HETATM   25  N4  UNL     1       1.503  16.250 -54.170  1.00  0.00    -0.404 NA
BRANCH  25  26
HETATM   26  C15 UNL     1       0.919  16.789 -53.010  1.00  0.00     0.170 C
HETATM   27  C16 UNL     1       1.878  17.842 -52.463  1.00  0.00     0.059 C
HETATM   28  C17 UNL     1       1.283  18.663 -51.341  1.00  0.00     0.130 C
HETATM   29  N5  UNL     1      -0.112  18.374 -51.203  1.00  0.00    -0.336 N
HETATM   30  C18 UNL     1      -0.712  18.076 -49.994  1.00  0.00     0.330 C
HETATM   31  C19 UNL     1      -0.879  18.420 -52.439  1.00  0.00     0.130 C
HETATM   32  N6  UNL     1      -0.084  18.040 -48.713  1.00  0.00    -0.040 NA
HETATM   33  O3  UNL     1      -1.972  17.788 -49.939  1.00  0.00    -0.251 OA
HETATM   34  C20 UNL     1      -0.409  17.433 -53.437  1.00  0.00     0.059 C
ENDBRANCH  25  26
ENDBRANCH  22  25
ENDBRANCH  18  22
TORSDOF 4
ENDMDL