MODEL 2
REMARK VINA RESULT: -7.300182072      2.558      6.106
REMARK  2 active torsions:
REMARK  status: ('A' for Active; 'I' for Inactive)
REMARK    1  A    between atoms: C9_10  and  C10_11
REMARK       I    between atoms: C10_11  and  N2_13
REMARK       I    between atoms: N2_13  and  C11_15
REMARK       I    between atoms: C11_15  and  N4_26
REMARK    2  A    between atoms: N3_16  and  C12_18
REMARK       I    between atoms: N5_29  and  C22_30
ROOT
HETATM    1  C10 UNL     1       0.011  14.897 -59.560  1.00  0.00     0.268 C
HETATM    2  O1  UNL     1       0.252  16.096 -59.148  1.00  0.00    -0.270 OA
HETATM    3  N2  UNL     1       0.040  14.713 -60.934  1.00  0.00    -0.158 N
ATOM      4  H2  UNL     1      -0.150  13.768 -61.267  1.00  0.00     0.187 HD
HETATM    5  C11 UNL     1       0.303  15.680 -61.922  1.00  0.00     0.679 C
HETATM    6  N3  UNL     1       0.300  15.395 -63.103  1.00  0.00    -0.216 N
ATOM      7  H3  UNL     1       0.517  16.286 -63.551  1.00  0.00     0.178 HD
HETATM    8  N4  UNL     1       0.579  17.059 -61.567  1.00  0.00    -0.215 N
HETATM    9  C20 UNL     1      -0.491  18.014 -61.400  1.00  0.00     0.161 C
HETATM   10  C21 UNL     1      -0.221  19.198 -62.340  1.00  0.00     0.146 C
HETATM   11  N5  UNL     1       1.097  19.722 -61.991  1.00  0.00    -0.353 N
HETATM   12  C22 UNL     1       1.420  21.055 -62.392  1.00  0.00     0.184 C
HETATM   13  N6  UNL     1       2.382  21.664 -61.795  1.00  0.00    -0.374 N
ATOM     14  H61 UNL     1       2.613  22.616 -62.081  1.00  0.00     0.158 HD
ATOM     15  H62 UNL     1       2.925  21.231 -61.048  1.00  0.00     0.158 HD
HETATM   16  N7  UNL     1       0.667  21.655 -63.428  1.00  0.00    -0.064 NA
HETATM   17  C23 UNL     1       2.067  18.970 -61.263  1.00  0.00     0.146 C
HETATM   18  C24 UNL     1       1.939  17.485 -61.450  1.00  0.00     0.161 C
ENDROOT
BRANCH   6  19
HETATM   19  C12 UNL     1       0.170  14.547 -64.166  1.00  0.00     0.052 C
HETATM   20  C13 UNL     1       1.384  13.624 -64.444  1.00  0.00     0.036 C
HETATM   21  C14 UNL     1       0.732  12.389 -64.952  1.00  0.00    -0.011 C
HETATM   22  C15 UNL     1       0.050  12.730 -66.257  1.00  0.00     0.010 C
HETATM   23  C19 UNL     1      -0.489  12.295 -64.024  1.00  0.00     0.012 C
HETATM   24  C16 UNL     1      -0.897  13.826 -65.812  1.00  0.00    -0.005 C
HETATM   25  C17 UNL     1      -0.222  15.150 -65.523  1.00  0.00     0.037 C
HETATM   26  C18 UNL     1      -1.046  13.664 -64.319  1.00  0.00     0.019 C
ENDBRANCH   6  19
BRANCH   1  27
HETATM   27  C9  UNL     1      -0.268  13.862 -58.505  1.00  0.00     0.289 C
HETATM   28  C2  UNL     1      -0.016  12.502 -59.048  1.00  0.00    -0.009 C
HETATM   29  C1  UNL     1       0.234  12.488 -60.547  1.00  0.00     0.017 C
HETATM   30  C3  UNL     1       1.268  11.869 -58.473  1.00  0.00     0.017 C
HETATM   31  C4  UNL     1      -1.211  11.639 -58.776  1.00  0.00     0.019 C
HETATM   32  C5  UNL     1      -2.295  12.275 -57.986  1.00  0.00     0.038 C
HETATM   33  C6  UNL     1      -2.645  13.674 -58.534  1.00  0.00     0.244 C
HETATM   34  C8  UNL     1      -1.846  13.107 -56.851  1.00  0.00     0.244 C
HETATM   35  N1  UNL     1      -1.466  14.117 -57.838  1.00  0.00    -0.057 N
HETATM   36  C7  UNL     1      -1.549  15.390 -57.133  1.00  0.00     0.273 C
ENDBRANCH   1  27
TORSDOF 2
ENDMDL