MODEL 4
REMARK VINA RESULT: -6.093311219      1.800      2.668
REMARK  1 active torsions:
REMARK  status: ('A' for Active; 'I' for Inactive)
REMARK    1  A    between atoms: N1_9  and  C7_10
ROOT
HETATM    1  F1  UNL     1       5.132  10.627  45.561  1.00  0.00    -0.182 F
HETATM    2  C1  UNL     1       5.701  10.453  44.323  1.00  0.00     0.325 C
HETATM    3  F2  UNL     1       5.524   9.088  44.041  1.00  0.00    -0.182 F
HETATM    4  C2  UNL     1       7.191  10.755  44.301  1.00  0.00     0.104 C
HETATM    5  C3  UNL     1       7.657  11.032  42.888  1.00  0.00     0.008 C
HETATM    6  C4  UNL     1       7.276   9.957  41.932  1.00  0.00     0.002 C
HETATM    7  C5  UNL     1       5.884   9.974  41.430  1.00  0.00     0.020 C
HETATM    8  C6  UNL     1       5.010  11.083  41.904  1.00  0.00     0.130 C
HETATM    9  N1  UNL     1       5.025  11.276  43.343  1.00  0.00    -0.305 N
ENDROOT
BRANCH   9  10
HETATM   10  C7  UNL     1       4.285  12.421  43.766  1.00  0.00     0.107 A
HETATM   11  C8  UNL     1       4.119  13.488  42.883  1.00  0.00     0.048 A
HETATM   12  C9  UNL     1       3.430  14.626  43.209  1.00  0.00     0.005 A
HETATM   13  C10 UNL     1       2.887  14.687  44.480  1.00  0.00     0.017 A
HETATM   14  C11 UNL     1       3.068  13.618  45.325  1.00  0.00     0.089 A
HETATM   15  N2  UNL     1       3.743  12.519  44.986  1.00  0.00    -0.352 N
ATOM     16  H2  UNL     1       3.846  11.756  45.655  1.00  0.00     0.166 HD
ENDBRANCH   9  10
TORSDOF 1
ENDMDL