MODEL 3
REMARK VINA RESULT: -6.895385235      3.828      5.836
REMARK  3 active torsions:
REMARK  status: ('A' for Active; 'I' for Inactive)
REMARK    1  A    between atoms: C2_2  and  C3_3
REMARK    2  A    between atoms: C2_2  and  C5_8
REMARK    3  A    between atoms: C3_3  and  C4_4
ROOT
HETATM    1  C5  UNL     1       4.335  12.481  43.754  1.00  0.00    -0.039 A
HETATM    2  C6  UNL     1       3.658  13.681  43.861  1.00  0.00     0.012 A
HETATM    3  C7  UNL     1       3.450  14.476  42.753  1.00  0.00     0.041 A
HETATM    4  C8  UNL     1       3.903  14.114  41.502  1.00  0.00     0.113 A
HETATM    5  C9  UNL     1       3.671  14.961  40.369  1.00  0.00     0.117 C
HETATM    6  N1  UNL     1       3.495  15.644  39.443  1.00  0.00    -0.190 NA
HETATM    7  N2  UNL     1       4.561  12.938  41.424  1.00  0.00    -0.357 N
ATOM      8  H2  UNL     1       4.913  12.635  40.516  1.00  0.00     0.166 HD
HETATM    9  C10 UNL     1       4.772  12.153  42.488  1.00  0.00     0.096 A
ENDROOT
BRANCH   1  10
HETATM   10  C2  UNL     1       4.603  11.573  44.858  1.00  0.00     0.024 C
HETATM   11  C1  UNL     1       4.203  12.253  46.184  1.00  0.00     0.015 C
BRANCH  10  12
HETATM   12  C3  UNL     1       5.972  11.034  45.004  1.00  0.00     0.126 C
BRANCH  12  13
HETATM   13  C4  UNL     1       5.993   9.533  44.956  1.00  0.00     0.388 C
HETATM   14  F1  UNL     1       7.319   9.171  44.678  1.00  0.00    -0.171 F
HETATM   15  F2  UNL     1       5.156   9.055  43.956  1.00  0.00    -0.171 F
HETATM   16  F3  UNL     1       5.633   9.002  46.157  1.00  0.00    -0.171 F
ENDBRANCH  12  13
ENDBRANCH  10  12
ENDBRANCH   1  10
TORSDOF 3
ENDMDL