MODEL 4
REMARK VINA RESULT: -6.441524234      4.453      5.759
REMARK  1 active torsions:
REMARK  status: ('A' for Active; 'I' for Inactive)
REMARK    1  A    between atoms: C2_3  and  C3_4
ROOT
HETATM    1  N1  UNL     1      10.499   6.565  43.261  1.00  0.00    -0.196 NA
HETATM    2  C1  UNL     1       9.403   6.873  43.023  1.00  0.00     0.082 C
HETATM    3  C2  UNL     1       7.999   7.269  42.710  1.00  0.00     0.163 C
HETATM    4  C7  UNL     1       8.085   7.871  41.322  1.00  0.00     0.038 C
HETATM    5  C8  UNL     1       8.128   6.576  40.499  1.00  0.00     0.008 C
HETATM    6  C9  UNL     1       6.919   5.864  41.063  1.00  0.00     0.081 C
HETATM    7  C10 UNL     1       7.214   6.009  42.566  1.00  0.00     0.270 C
HETATM    8  F1  UNL     1       6.010   6.005  43.208  1.00  0.00    -0.204 F
HETATM    9  F2  UNL     1       7.959   4.876  42.899  1.00  0.00    -0.204 F
ENDROOT
BRANCH   3  10
HETATM   10  C3  UNL     1       7.492   8.182  43.741  1.00  0.00     0.081 A
HETATM   11  C4  UNL     1       6.685   9.273  43.578  1.00  0.00     0.036 A
HETATM   12  C5  UNL     1       6.471   9.817  44.822  1.00  0.00     0.027 A
HETATM   13  C6  UNL     1       7.177   9.016  45.698  1.00  0.00     0.142 A
HETATM   14  O1  UNL     1       7.736   8.098  45.005  1.00  0.00    -0.325 OA
ENDBRANCH   3  10
TORSDOF 1
ENDMDL