MODEL 1
REMARK VINA RESULT: -8.436885210      0.000      0.000
REMARK  1 active torsions:
REMARK  status: ('A' for Active; 'I' for Inactive)
REMARK    1  A    between atoms: C2_3  and  C3_6
ROOT
HETATM    1  N1  UNL     1       7.823   9.268  43.271  1.00  0.00    -0.190 NA
HETATM    2  C1  UNL     1       7.068   9.301  44.138  1.00  0.00     0.145 C
HETATM    3  C2  UNL     1       6.110   9.366  45.251  1.00  0.00     0.371 C
HETATM    4  F1  UNL     1       5.369   8.245  45.287  1.00  0.00    -0.182 F
HETATM    5  F2  UNL     1       6.883   9.489  46.456  1.00  0.00    -0.182 F
ENDROOT
BRANCH   3   6
HETATM    6  C3  UNL     1       5.380  10.647  45.208  1.00  0.00     0.097 A
HETATM    7  C4  UNL     1       5.193  11.349  44.030  1.00  0.00     0.044 A
HETATM    8  C5  UNL     1       4.378  12.500  44.119  1.00  0.00    -0.022 A
HETATM    9  C6  UNL     1       4.140  13.250  42.975  1.00  0.00     0.012 A
HETATM   10  C10 UNL     1       3.828  12.872  45.302  1.00  0.00    -0.011 A
HETATM   11  C7  UNL     1       3.349  14.385  43.037  1.00  0.00     0.001 A
HETATM   12  C8  UNL     1       2.813  14.752  44.258  1.00  0.00     0.001 A
HETATM   13  C9  UNL     1       3.048  13.998  45.367  1.00  0.00     0.013 A
HETATM   14  C11 UNL     1       4.047  12.140  46.472  1.00  0.00     0.100 A
HETATM   15  N2  UNL     1       4.808  11.068  46.368  1.00  0.00    -0.363 N
ATOM     16  H2  UNL     1       4.979  10.520  47.211  1.00  0.00     0.165 HD
ENDBRANCH   3   6
TORSDOF 1
ENDMDL