MODEL 5
REMARK VINA RESULT: -5.514689552      1.296      1.878
REMARK  3 active torsions:
REMARK  status: ('A' for Active; 'I' for Inactive)
REMARK    1  A    between atoms: C2_2  and  N1_3
REMARK    2  A    between atoms: C5_8  and  C6_9
REMARK    3  A    between atoms: C6_9  and  C9_12
ROOT
HETATM    1  N1  UNL     1       4.172  12.735  44.548  1.00  0.00    -0.345 N
HETATM    2  C3  UNL     1       3.581  12.968  45.745  1.00  0.00     0.109 A
HETATM    3  C4  UNL     1       4.084  12.062  46.645  1.00  0.00     0.106 A
HETATM    4  N2  UNL     1       4.954  11.318  45.969  1.00  0.00    -0.353 N
ATOM      5  H2  UNL     1       5.494  10.554  46.372  1.00  0.00     0.166 HD
HETATM    6  C5  UNL     1       5.029  11.712  44.664  1.00  0.00     0.100 A
ENDROOT
BRANCH   6   7
HETATM    7  C6  UNL     1       5.884  11.125  43.606  1.00  0.00     0.109 C
HETATM    8  C7  UNL     1       7.158  11.893  43.361  1.00  0.00     0.032 C
HETATM    9  C8  UNL     1       5.155  10.843  42.326  1.00  0.00     0.032 C
BRANCH   7  10
HETATM   10  C9  UNL     1       6.333   9.749  44.130  1.00  0.00     0.401 C
HETATM   11  F1  UNL     1       7.074   9.899  45.274  1.00  0.00    -0.170 F
HETATM   12  F2  UNL     1       5.201   8.956  44.334  1.00  0.00    -0.170 F
HETATM   13  F3  UNL     1       7.082   9.164  43.117  1.00  0.00    -0.170 F
ENDBRANCH   7  10
ENDBRANCH   6   7
BRANCH   1  14
HETATM   14  C2  UNL     1       3.884  13.500  43.334  1.00  0.00     0.125 C
HETATM   15  C1  UNL     1       3.073  14.741  43.681  1.00  0.00     0.027 C
ENDBRANCH   1  14
TORSDOF 3
ENDMDL