MODEL 4
REMARK VINA RESULT: -4.916359621      0.992      1.023
REMARK  1 active torsions:
REMARK  status: ('A' for Active; 'I' for Inactive)
REMARK    1  A    between atoms: C1_2  and  C2_4
ROOT
HETATM    1  C2  UNL     1       3.749  14.068  43.074  1.00  0.00     0.030 A
HETATM    2  C3  UNL     1       3.712  14.394  41.764  1.00  0.00     0.022 A
HETATM    3  C4  UNL     1       4.319  13.526  40.893  1.00  0.00     0.052 A
HETATM    4  S1  UNL     1       4.913  12.300  41.917  1.00  0.00    -0.094 SA
HETATM    5  C5  UNL     1       4.384  12.909  43.414  1.00  0.00     0.063 A
HETATM    6 BR1  UNL     1       4.598  12.187  45.178  1.00  0.00    -0.042 Br
ENDROOT
BRANCH   1   7
HETATM    7  C1  UNL     1       3.108  14.952  44.137  1.00  0.00     0.388 C
HETATM    8  F1  UNL     1       3.726  16.170  44.191  1.00  0.00    -0.209 F
HETATM    9  F2  UNL     1       1.759  15.141  43.805  1.00  0.00    -0.209 F
ENDBRANCH   1   7
TORSDOF 1
ENDMDL