MODEL 2
REMARK VINA RESULT: -5.413933765      1.318      1.710
REMARK  2 active torsions:
REMARK  status: ('A' for Active; 'I' for Inactive)
REMARK    1  A    between atoms: C1_2  and  C2_4
REMARK    2  A    between atoms: C3_5  and  C4_7
ROOT
HETATM    1  C2  UNL     1       6.086   9.813  45.545  1.00  0.00     0.093 C
HETATM    2  C3  UNL     1       5.989  10.904  44.816  1.00  0.00     0.055 C
HETATM    3 CL2  UNL     1       7.096  11.320  43.530  1.00  0.00    -0.083 Cl
ENDROOT
BRANCH   2   4
HETATM    4  C4  UNL     1       4.891  11.875  45.055  1.00  0.00     0.026 A
HETATM    5  C5  UNL     1       4.150  12.052  46.188  1.00  0.00     0.021 A
HETATM    6  C6  UNL     1       3.202  13.002  46.172  1.00  0.00     0.008 A
HETATM    7  C7  UNL     1       3.050  13.719  45.017  1.00  0.00     0.050 A
HETATM    8  S1  UNL     1       4.237  13.044  43.997  1.00  0.00    -0.100 SA
ENDBRANCH   2   4
BRANCH   1   9
HETATM    9  C1  UNL     1       7.102   8.800  45.409  1.00  0.00     0.243 C
HETATM   10  O1  UNL     1       8.041   8.690  46.223  1.00  0.00    -0.275 OA
HETATM   11 CL1  UNL     1       7.026   7.691  44.071  1.00  0.00    -0.039 Cl
ENDBRANCH   1   9
TORSDOF 2
ENDMDL