MODEL 1
REMARK VINA RESULT: -6.339146658      0.000      0.000
REMARK  1 active torsions:
REMARK  status: ('A' for Active; 'I' for Inactive)
REMARK    1  A    between atoms: N1_6  and  C4_7
ROOT
HETATM    1  F1  UNL     1       3.018  16.106  45.553  1.00  0.00    -0.206 F
HETATM    2  C1  UNL     1       2.756  14.988  44.744  1.00  0.00     0.246 C
HETATM    3  F2  UNL     1       1.420  15.166  44.343  1.00  0.00    -0.206 F
HETATM    4  C2  UNL     1       3.594  15.154  43.519  1.00  0.00     0.099 C
HETATM    5  C3  UNL     1       3.707  13.870  42.710  1.00  0.00     0.129 C
HETATM    6  N1  UNL     1       4.263  12.891  43.611  1.00  0.00    -0.375 N
HETATM    7  C8  UNL     1       3.804  12.697  44.954  1.00  0.00     0.129 C
HETATM    8  C9  UNL     1       2.928  13.742  45.505  1.00  0.00     0.099 C
ENDROOT
BRANCH   6   9
HETATM    9  C4  UNL     1       5.349  12.035  43.183  1.00  0.00     0.071 A
HETATM   10  C5  UNL     1       6.613  11.981  43.694  1.00  0.00     0.037 A
HETATM   11  C6  UNL     1       7.470  11.105  43.137  1.00  0.00     0.010 A
HETATM   12  C7  UNL     1       6.999  10.345  42.105  1.00  0.00     0.052 A
HETATM   13  S1  UNL     1       5.388  10.863  41.939  1.00  0.00    -0.084 SA
ENDBRANCH   6   9
TORSDOF 1
ENDMDL