MODEL 1
REMARK VINA RESULT: -7.355583228      0.000      0.000
REMARK  2 active torsions:
REMARK  status: ('A' for Active; 'I' for Inactive)
REMARK    1  A    between atoms: C1_2  and  C2_5
REMARK    2  A    between atoms: C5_8  and  N1_9
ROOT
HETATM    1  C2  UNL     1       3.995  13.378  43.757  1.00  0.00     0.048 A
HETATM    2  C3  UNL     1       4.022  12.796  45.011  1.00  0.00     0.018 A
HETATM    3  C4  UNL     1       4.715  11.627  45.254  1.00  0.00     0.031 A
HETATM    4  C5  UNL     1       5.385  11.069  44.181  1.00  0.00     0.039 A
HETATM    5  C9  UNL     1       5.365  11.643  42.925  1.00  0.00     0.031 A
HETATM    6  C10 UNL     1       4.667  12.809  42.697  1.00  0.00     0.018 A
ENDROOT
BRANCH   4   7
HETATM    7  N1  UNL     1       6.145   9.883  44.395  1.00  0.00    -0.317 N
HETATM    8  C6  UNL     1       6.681   8.993  43.575  1.00  0.00     0.115 A
HETATM    9  C7  UNL     1       7.312   8.012  44.300  1.00  0.00     0.106 A
HETATM   10  N2  UNL     1       7.129   8.357  45.599  1.00  0.00    -0.360 N
HETATM   11  C8  UNL     1       6.430   9.480  45.669  1.00  0.00     0.188 A
ATOM     12  H2  UNL     1       7.477   7.830  46.401  1.00  0.00     0.166 HD
ENDBRANCH   4   7
BRANCH   1  13
HETATM   13  C1  UNL     1       3.242  14.653  43.533  1.00  0.00     0.417 C
HETATM   14  F1  UNL     1       2.720  14.584  42.235  1.00  0.00    -0.166 F
HETATM   15  F2  UNL     1       2.171  14.720  44.394  1.00  0.00    -0.166 F
HETATM   16  F3  UNL     1       4.098  15.731  43.658  1.00  0.00    -0.166 F
ENDBRANCH   1  13
TORSDOF 2
ENDMDL