MODEL 4
REMARK VINA RESULT: -5.357932801      5.244      6.231
REMARK  3 active torsions:
REMARK  status: ('A' for Active; 'I' for Inactive)
REMARK    1  A    between atoms: C2_2  and  C5_5
REMARK    2  A    between atoms: C6_7  and  C7_8
REMARK    3  A    between atoms: N1_12  and  O1_13
ROOT
HETATM    1  C5  UNL     1       4.714  12.357  42.950  1.00  0.00     0.088 A
HETATM    2  S1  UNL     1       4.054  12.746  44.473  1.00  0.00    -0.071 SA
HETATM    3  C6  UNL     1       3.370  14.252  44.052  1.00  0.00     0.066 A
HETATM    4  C8  UNL     1       3.720  14.372  42.738  1.00  0.00     0.143 A
HETATM    5  N1  UNL     1       4.400  13.396  42.193  1.00  0.00    -0.231 N
ENDROOT
BRANCH   1   6
HETATM    6  C2  UNL     1       5.541  11.144  42.550  1.00  0.00     0.001 C
HETATM    7  C1  UNL     1       7.008  11.443  42.710  1.00  0.00     0.021 C
HETATM    8  C3  UNL     1       5.204  10.097  43.642  1.00  0.00     0.021 C
HETATM    9  C4  UNL     1       5.208  10.574  41.233  1.00  0.00     0.021 C
ENDBRANCH   1   6
BRANCH   5  10
HETATM   10  O1  UNL     1       4.761  13.404  40.799  1.00  0.00    -0.283 OA
ATOM     11  H1  UNL     1       5.047  12.602  40.378  1.00  0.00     0.245 HD
ENDBRANCH   5  10
BRANCH   3  12
HETATM   12  C7  UNL     1       2.551  15.225  44.851  1.00  0.00     0.395 C
HETATM   13  F1  UNL     1       3.223  16.442  44.840  1.00  0.00    -0.208 F
HETATM   14  F2  UNL     1       1.295  15.326  44.351  1.00  0.00    -0.208 F
ENDBRANCH   3  12
TORSDOF 3
ENDMDL