MODEL 3
REMARK VINA RESULT: -7.105138753      3.568      4.974
REMARK  2 active torsions:
REMARK  status: ('A' for Active; 'I' for Inactive)
REMARK    1  A    between atoms: C4_6  and  C5_7
REMARK    2  A    between atoms: C8_10  and  O1_11
ROOT
HETATM    1  N1  UNL     1       8.158   8.107  41.965  1.00  0.00    -0.191 NA
HETATM    2  C1  UNL     1       7.436   8.779  42.565  1.00  0.00     0.110 C
HETATM    3  C2  UNL     1       6.488   9.645  43.323  1.00  0.00     0.125 C
HETATM    4  C3  UNL     1       6.364   9.387  44.704  1.00  0.00     0.110 C
HETATM    5  N2  UNL     1       6.295   9.137  45.855  1.00  0.00    -0.191 NA
HETATM    6  C4  UNL     1       5.883  10.540  42.631  1.00  0.00     0.045 C
ENDROOT
BRANCH   6   7
HETATM    7  C5  UNL     1       4.911  11.563  42.944  1.00  0.00    -0.031 A
HETATM    8  C6  UNL     1       4.573  12.482  41.935  1.00  0.00     0.014 A
HETATM    9  C7  UNL     1       3.668  13.500  42.101  1.00  0.00     0.040 A
HETATM   10  C8  UNL     1       3.063  13.622  43.322  1.00  0.00     0.104 A
HETATM   11  C9  UNL     1       3.328  12.772  44.370  1.00  0.00     0.150 A
HETATM   12  F1  UNL     1       2.730  12.886  45.583  1.00  0.00    -0.203 F
HETATM   13  C10 UNL     1       4.262  11.756  44.130  1.00  0.00     0.056 A
BRANCH  10  14
HETATM   14  O1  UNL     1       2.139  14.659  43.499  1.00  0.00    -0.358 OA
ATOM     15  H1  UNL     1       1.253  14.528  43.180  1.00  0.00     0.217 HD
ENDBRANCH  10  14
ENDBRANCH   6   7
TORSDOF 2
ENDMDL