MODEL 5
REMARK VINA RESULT: -5.917191674      1.491      1.533
REMARK  2 active torsions:
REMARK  status: ('A' for Active; 'I' for Inactive)
REMARK    1  A    between atoms: N1_1  and  C1_4
REMARK    2  A    between atoms: C5_9  and  N2_10
ROOT
HETATM    1  C1  UNL     1       5.977   8.998  43.916  1.00  0.00     0.146 A
HETATM    2  C2  UNL     1       7.172   9.244  43.273  1.00  0.00     0.098 A
HETATM    3  C3  UNL     1       7.443  10.497  42.731  1.00  0.00     0.124 A
HETATM    4  F1  UNL     1       8.624  10.714  42.103  1.00  0.00    -0.206 F
HETATM    5  C4  UNL     1       6.471  11.472  42.865  1.00  0.00     0.099 A
HETATM    6  C5  UNL     1       5.296  11.164  43.519  1.00  0.00     0.158 A
HETATM    7  O1  UNL     1       5.078   9.950  44.023  1.00  0.00    -0.277 OA
ENDROOT
BRANCH   6   8
HETATM    8  N2  UNL     1       4.304  12.177  43.649  1.00  0.00    -0.313 N
HETATM    9  C6  UNL     1       3.505  12.416  44.688  1.00  0.00     0.098 A
HETATM   10  C7  UNL     1       2.675  13.484  44.439  1.00  0.00     0.019 A
HETATM   11  C8  UNL     1       2.986  13.923  43.170  1.00  0.00     0.019 A
HETATM   12  C9  UNL     1       3.989  13.097  42.719  1.00  0.00     0.098 A
ENDBRANCH   6   8
BRANCH   1  13
HETATM   13  N1  UNL     1       5.785   7.801  44.402  1.00  0.00    -0.380 N
ATOM     14  H12 UNL     1       4.884   7.504  44.778  1.00  0.00     0.158 HD
ATOM     15  H11 UNL     1       6.576   7.156  44.397  1.00  0.00     0.158 HD
ENDBRANCH   1  13
TORSDOF 2
ENDMDL