MODEL 1
REMARK VINA RESULT: -6.105823219      0.000      0.000
REMARK  2 active torsions:
REMARK  status: ('A' for Active; 'I' for Inactive)
REMARK    1  A    between atoms: N1_1  and  C1_4
REMARK    2  A    between atoms: N2_8  and  C4_9
ROOT
HETATM    1  C1  UNL     1       7.239  10.240  42.968  1.00  0.00     0.228 A
HETATM    2  O1  UNL     1       7.628   9.053  43.412  1.00  0.00    -0.290 OA
HETATM    3  C2  UNL     1       6.557   8.316  43.640  1.00  0.00     0.163 A
HETATM    4  C3  UNL     1       5.450   9.050  43.333  1.00  0.00     0.125 A
HETATM    5  N2  UNL     1       5.894  10.247  42.916  1.00  0.00    -0.287 N
ENDROOT
BRANCH   5   6
HETATM    6  C4  UNL     1       5.098  11.343  42.489  1.00  0.00     0.045 A
HETATM    7  C5  UNL     1       5.040  11.646  41.146  1.00  0.00     0.030 A
HETATM    8  C6  UNL     1       4.276  12.708  40.670  1.00  0.00     0.005 A
HETATM    9  C7  UNL     1       3.561  13.477  41.545  1.00  0.00     0.042 A
HETATM   10  C8  UNL     1       3.603  13.195  42.884  1.00  0.00     0.118 A
HETATM   11  F1  UNL     1       2.874  13.988  43.715  1.00  0.00    -0.206 F
HETATM   12  C9  UNL     1       4.364  12.139  43.342  1.00  0.00     0.072 A
ENDBRANCH   5   6
BRANCH   1  13
HETATM   13  N1  UNL     1       8.071  11.161  42.665  1.00  0.00    -0.365 N
ATOM     14  H12 UNL     1       9.004  11.342  43.035  1.00  0.00     0.159 HD
ATOM     15  H11 UNL     1       7.866  11.870  41.960  1.00  0.00     0.159 HD
ENDBRANCH   1  13
TORSDOF 2
ENDMDL