MODEL 5
REMARK VINA RESULT: -6.822390003      1.823      2.262
REMARK  5 active torsions:
REMARK  status: ('A' for Active; 'I' for Inactive)
REMARK    1  A    between atoms: O1_1  and  C1_3
REMARK    2  A    between atoms: C1_3  and  S1_8
REMARK    3  A    between atoms: N1_4  and  O2_6
REMARK    4  A    between atoms: S1_8  and  C2_9
REMARK    5  A    between atoms: C2_9  and  C3_10
ROOT
HETATM    1  S1  UNL     1       5.812   9.791  44.651  1.00  0.00    -0.056 SA
ENDROOT
BRANCH   1   2
HETATM    2  C1  UNL     1       7.097   8.564  44.487  1.00  0.00     0.204 C
HETATM    3  N1  UNL     1       7.503   7.899  45.500  1.00  0.00    -0.241 N
ATOM      4  H1  UNL     1       7.085   8.074  46.414  1.00  0.00     0.197 HD
BRANCH   2   5
HETATM    5  O1  UNL     1       7.662   8.326  43.254  1.00  0.00    -0.339 OA
ATOM      6  H1  UNL     1       7.352   7.595  42.732  1.00  0.00     0.220 HD
ENDBRANCH   2   5
BRANCH   3   7
HETATM    7  O2  UNL     1       8.492   6.953  45.380  1.00  0.00    -0.287 OA
ATOM      8  H2  UNL     1       8.354   6.059  45.670  1.00  0.00     0.244 HD
ENDBRANCH   3   7
ENDBRANCH   1   2
BRANCH   1   9
HETATM    9  C2  UNL     1       5.132  10.512  43.360  1.00  0.00     0.068 C
BRANCH   9  10
HETATM   10  C3  UNL     1       4.327  11.715  43.470  1.00  0.00     0.009 A
HETATM   11  C4  UNL     1       3.664  12.064  44.631  1.00  0.00     0.015 A
HETATM   12  C5  UNL     1       2.911  13.207  44.703  1.00  0.00     0.001 A
HETATM   13  C6  UNL     1       2.821  14.024  43.575  1.00  0.00     0.003 A
HETATM   14  C7  UNL     1       3.483  13.677  42.417  1.00  0.00     0.043 A
HETATM   15  C8  UNL     1       4.228  12.531  42.371  1.00  0.00     0.127 A
HETATM   16  F1  UNL     1       4.875  12.212  41.202  1.00  0.00    -0.205 F
ENDBRANCH   9  10
ENDBRANCH   1   9
TORSDOF 5
ENDMDL