MODEL 4
REMARK VINA RESULT: -5.914113598      1.270      1.918
REMARK  2 active torsions:
REMARK  status: ('A' for Active; 'I' for Inactive)
REMARK    1  A    between atoms: C1_4  and  C2_5
REMARK    2  A    between atoms: C1_4  and  N2_12
ROOT
HETATM    1  N1  UNL     1       7.884  11.257  42.825  1.00  0.00    -0.384 N
ATOM      2  H11 UNL     1       8.735  10.759  42.568  1.00  0.00     0.157 HD
ATOM      3  H12 UNL     1       7.885  12.275  42.761  1.00  0.00     0.157 HD
HETATM    4  C1  UNL     1       6.843  10.596  43.222  1.00  0.00     0.119 C
ENDROOT
BRANCH   4   5
HETATM    5  C2  UNL     1       5.636  11.302  43.588  1.00  0.00     0.046 A
HETATM    6  C3  UNL     1       5.084  11.209  44.850  1.00  0.00     0.018 A
HETATM    7  C4  UNL     1       3.937  11.875  45.215  1.00  0.00     0.001 A
HETATM    8  C5  UNL     1       3.337  12.663  44.252  1.00  0.00     0.003 A
HETATM    9  C6  UNL     1       3.850  12.785  42.985  1.00  0.00     0.043 A
HETATM   10  C7  UNL     1       4.996  12.112  42.641  1.00  0.00     0.130 A
HETATM   11  F1  UNL     1       5.490  12.247  41.379  1.00  0.00    -0.205 F
ENDBRANCH   4   5
BRANCH   4  12
HETATM   12  N2  UNL     1       6.842   9.176  43.313  1.00  0.00    -0.303 N
HETATM   13  C8  UNL     1       6.593   8.285  42.339  1.00  0.00     0.116 A
HETATM   14  C9  UNL     1       6.695   7.014  42.852  1.00  0.00     0.106 A
HETATM   15  N3  UNL     1       7.011   7.134  44.151  1.00  0.00    -0.360 N
HETATM   16  C10 UNL     1       7.095   8.451  44.410  1.00  0.00     0.189 A
ATOM     17  H3  UNL     1       7.158   6.373  44.813  1.00  0.00     0.166 HD
ENDBRANCH   4  12
TORSDOF 2
ENDMDL