MODEL 2
REMARK VINA RESULT: -5.043724787      1.252      1.252
REMARK  3 active torsions:
REMARK  status: ('A' for Active; 'I' for Inactive)
REMARK    1  A    between atoms: C1_2  and  N1_4
REMARK    2  A    between atoms: N1_4  and  N2_6
REMARK    3  A    between atoms: C2_8  and  C3_9
ROOT
HETATM    1  N2  UNL     1       4.483  11.168  46.022  1.00  0.00    -0.307 N
ATOM      2  H2  UNL     1       4.431  10.664  46.907  1.00  0.00     0.186 HD
HETATM    3  C2  UNL     1       3.517  11.879  45.781  1.00  0.00     0.144 C
ENDROOT
BRANCH   1   4
HETATM    4  N1  UNL     1       5.612  10.941  45.306  1.00  0.00    -0.281 N
ATOM      5  H1  UNL     1       6.248  11.729  45.175  1.00  0.00     0.189 HD
BRANCH   4   6
HETATM    6  C1  UNL     1       5.983   9.709  44.725  1.00  0.00     0.186 C
HETATM    7  S1  UNL     1       5.373   9.298  43.285  1.00  0.00    -0.046 SA
HETATM    8 CL1  UNL     1       7.077   8.645  45.538  1.00  0.00    -0.050 Cl
ENDBRANCH   4   6
ENDBRANCH   1   4
BRANCH   3   9
HETATM    9  C3  UNL     1       3.325  12.700  44.606  1.00  0.00     0.091 A
HETATM   10  C4  UNL     1       2.613  13.860  44.484  1.00  0.00     0.040 A
HETATM   11  C5  UNL     1       2.723  14.277  43.164  1.00  0.00     0.027 A
HETATM   12  C6  UNL     1       3.504  13.349  42.530  1.00  0.00     0.142 A
HETATM   13  O1  UNL     1       3.833  12.450  43.399  1.00  0.00    -0.321 OA
ENDBRANCH   3   9
TORSDOF 3
ENDMDL