MODEL 4
REMARK VINA RESULT: -5.714771598      3.466      4.417
REMARK  3 active torsions:
REMARK  status: ('A' for Active; 'I' for Inactive)
REMARK    1  A    between atoms: O1_2  and  C2_3
REMARK    2  A    between atoms: C2_3  and  N3_8
REMARK    3  A    between atoms: N3_8  and  C4_10
ROOT
HETATM    1  C2  UNL     1       7.666   7.062  41.608  1.00  0.00     0.232 C
HETATM    2  N1  UNL     1       8.708   6.416  41.213  1.00  0.00    -0.259 N
ATOM      3  H1  UNL     1       8.784   6.093  40.249  1.00  0.00     0.181 HD
HETATM    4  C3  UNL     1       9.731   6.164  42.125  1.00  0.00     0.185 C
HETATM    5  N2  UNL     1      10.597   5.968  42.876  1.00  0.00    -0.172 NA
ENDROOT
BRANCH   1   6
HETATM    6  O1  UNL     1       6.673   7.289  40.666  1.00  0.00    -0.326 OA
HETATM    7  C1  UNL     1       6.616   6.462  39.506  1.00  0.00     0.213 C
ENDBRANCH   1   6
BRANCH   1   8
HETATM    8  N3  UNL     1       7.562   7.511  42.954  1.00  0.00    -0.319 N
ATOM      9  H3  UNL     1       7.806   6.894  43.729  1.00  0.00     0.169 HD
BRANCH   8  10
HETATM   10  C4  UNL     1       7.104   8.858  43.200  1.00  0.00     0.074 A
HETATM   11  C5  UNL     1       7.672   9.928  42.535  1.00  0.00     0.033 A
HETATM   12  C6  UNL     1       7.264  11.230  42.739  1.00  0.00     0.002 A
HETATM   13  C7  UNL     1       6.247  11.421  43.654  1.00  0.00     0.003 A
HETATM   14  C8  UNL     1       5.671  10.352  44.327  1.00  0.00     0.044 A
HETATM   15  C9  UNL     1       6.093   9.060  44.107  1.00  0.00     0.143 A
HETATM   16  F1  UNL     1       5.553   7.987  44.748  1.00  0.00    -0.204 F
ENDBRANCH   8  10
ENDBRANCH   1   8
TORSDOF 3
ENDMDL