MODEL 4
REMARK VINA RESULT: -4.798457555      3.040      3.660
REMARK  2 active torsions:
REMARK  status: ('A' for Active; 'I' for Inactive)
REMARK    1  A    between atoms: C1_4  and  C2_5
REMARK    2  A    between atoms: C1_4  and  N2_8
ROOT
HETATM    1  N1  UNL     1       4.822  10.985  45.773  1.00  0.00    -0.381 N
ATOM      2  H11 UNL     1       4.284  11.575  46.408  1.00  0.00     0.157 HD
ATOM      3  H12 UNL     1       5.384  10.206  46.115  1.00  0.00     0.157 HD
HETATM    4  C1  UNL     1       4.792  11.226  44.517  1.00  0.00     0.163 C
ENDROOT
BRANCH   4   5
HETATM    5  C2  UNL     1       5.556  10.388  43.616  1.00  0.00     0.261 C
HETATM    6  O1  UNL     1       5.103   9.254  43.321  1.00  0.00    -0.276 OA
HETATM    7 BR1  UNL     1       7.230  10.977  42.873  1.00  0.00     0.000 Br
ENDBRANCH   4   5
BRANCH   4   8
HETATM    8  N2  UNL     1       4.008  12.316  44.038  1.00  0.00    -0.316 N
HETATM    9  C3  UNL     1       3.155  13.055  44.773  1.00  0.00     0.098 A
HETATM   10  C4  UNL     1       2.559  14.030  43.997  1.00  0.00     0.019 A
HETATM   11  C5  UNL     1       3.076  13.871  42.738  1.00  0.00     0.019 A
HETATM   12  C6  UNL     1       3.963  12.818  42.775  1.00  0.00     0.098 A
ENDBRANCH   4   8
TORSDOF 2
ENDMDL