MODEL 1
REMARK VINA RESULT: -6.480390863      0.000      0.000
REMARK  2 active torsions:
REMARK  status: ('A' for Active; 'I' for Inactive)
REMARK    1  A    between atoms: N1_1  and  C1_4
REMARK    2  A    between atoms: N2_8  and  C4_9
ROOT
HETATM    1  C1  UNL     1       6.970  10.186  43.647  1.00  0.00     0.228 A
HETATM    2  O1  UNL     1       7.613   9.130  44.022  1.00  0.00    -0.290 OA
HETATM    3  C2  UNL     1       6.981   8.516  44.976  1.00  0.00     0.163 A
HETATM    4  C3  UNL     1       5.837   9.246  45.229  1.00  0.00     0.125 A
HETATM    5  N2  UNL     1       5.852  10.304  44.370  1.00  0.00    -0.287 N
ENDROOT
BRANCH   5   6
HETATM    6  C4  UNL     1       4.874  11.334  44.262  1.00  0.00     0.042 A
HETATM    7  C5  UNL     1       4.055  11.649  45.334  1.00  0.00     0.033 A
HETATM    8  C6  UNL     1       3.099  12.643  45.255  1.00  0.00     0.044 A
HETATM    9  C7  UNL     1       2.915  13.371  44.099  1.00  0.00     0.116 A
HETATM   10  F1  UNL     1       1.994  14.351  43.975  1.00  0.00    -0.206 F
HETATM   11  C8  UNL     1       3.721  13.068  43.026  1.00  0.00     0.044 A
HETATM   12  C9  UNL     1       4.669  12.074  43.121  1.00  0.00     0.033 A
ENDBRANCH   5   6
BRANCH   1  13
HETATM   13  N1  UNL     1       7.313  11.028  42.722  1.00  0.00    -0.365 N
ATOM     14  H12 UNL     1       7.296  10.805  41.727  1.00  0.00     0.159 HD
ATOM     15  H11 UNL     1       7.635  11.988  42.847  1.00  0.00     0.159 HD
ENDBRANCH   1  13
TORSDOF 2
ENDMDL