MODEL 4
REMARK VINA RESULT: -5.271214401      1.656      1.888
REMARK  1 active torsions:
REMARK  status: ('A' for Active; 'I' for Inactive)
REMARK    1  A    between atoms: C3_6  and  C4_7
ROOT
HETATM    1  O1  UNL     1       7.794   7.665  44.785  1.00  0.00    -0.238 OA
HETATM    2  C1  UNL     1       6.952   8.599  44.809  1.00  0.00     0.369 A
HETATM    3  N1  UNL     1       6.264   8.935  45.913  1.00  0.00    -0.310 N
ATOM      4  H1  UNL     1       6.320   8.509  46.838  1.00  0.00     0.170 HD
HETATM    5  C2  UNL     1       5.472   9.976  45.518  1.00  0.00     0.131 A
HETATM    6  C3  UNL     1       5.698  10.245  44.196  1.00  0.00     0.107 A
HETATM    7  O2  UNL     1       6.612   9.374  43.808  1.00  0.00    -0.259 OA
ENDROOT
BRANCH   6   8
HETATM    8  C4  UNL     1       5.044  11.302  43.370  1.00  0.00     0.006 A
HETATM    9  C5  UNL     1       5.307  11.488  42.066  1.00  0.00     0.022 A
HETATM   10  C6  UNL     1       4.635  12.498  41.424  1.00  0.00     0.050 A
HETATM   11  S1  UNL     1       3.660  13.155  42.652  1.00  0.00    -0.113 SA
HETATM   12  C7  UNL     1       4.122  12.144  43.943  1.00  0.00     0.063 A
ENDBRANCH   6   8
TORSDOF 1
ENDMDL