MODEL 1
REMARK VINA RESULT: -8.058283944      0.000      0.000
REMARK  4 active torsions:
REMARK  status: ('A' for Active; 'I' for Inactive)
REMARK    1  A    between atoms: N1_2  and  C1_4
REMARK    2  A    between atoms: C5_8  and  C6_9
REMARK    3  A    between atoms: N2_11  and  O3_13
REMARK    4  A    between atoms: O3_13  and  C7_14
ROOT
HETATM    1  C6  UNL     1       6.539  11.144  45.857  1.00  0.00     0.112 C
HETATM    2  S1  UNL     1       7.890  11.846  44.936  1.00  0.00    -0.030 SA
HETATM    3  N2  UNL     1       6.602   9.915  46.311  1.00  0.00    -0.253 N
ATOM      4  H2  UNL     1       5.827   9.513  46.839  1.00  0.00     0.195 HD
ENDROOT
BRANCH   1   5
HETATM    5  C5  UNL     1       5.354  11.954  46.106  1.00  0.00     0.002 A
HETATM    6  C4  UNL     1       4.592  11.666  47.213  1.00  0.00     0.014 A
HETATM    7  C3  UNL     1       3.479  12.412  47.464  1.00  0.00     0.003 A
HETATM    8  C2  UNL     1       3.126  13.438  46.618  1.00  0.00     0.036 A
HETATM    9  C1  UNL     1       3.873  13.756  45.491  1.00  0.00     0.103 A
HETATM   10  C13 UNL     1       4.992  12.992  45.256  1.00  0.00     0.050 A
BRANCH   9  11
HETATM   11  N1  UNL     1       3.484  14.822  44.636  1.00  0.00    -0.116 N
HETATM   12  O1  UNL     1       2.898  14.553  43.574  1.00  0.00    -0.532 OA
HETATM   13  O2  UNL     1       3.773  16.103  45.026  1.00  0.00    -0.532 OA
ENDBRANCH   9  11
ENDBRANCH   1   5
BRANCH   3  14
HETATM   14  O3  UNL     1       7.717   9.191  46.063  1.00  0.00    -0.237 OA
BRANCH  14  15
HETATM   15  C7  UNL     1       7.785   8.116  45.197  1.00  0.00     0.099 A
HETATM   16  C8  UNL     1       7.259   8.099  43.936  1.00  0.00     0.041 A
HETATM   17  C9  UNL     1       7.344   7.010  43.096  1.00  0.00     0.026 A
HETATM   18  C10 UNL     1       7.986   5.870  43.526  1.00  0.00     0.034 A
HETATM   19 CL1  UNL     1       8.124   4.445  42.490  1.00  0.00    -0.084 Cl
HETATM   20  C11 UNL     1       8.520   5.879  44.798  1.00  0.00     0.026 A
HETATM   21  C12 UNL     1       8.428   6.975  45.628  1.00  0.00     0.041 A
ENDBRANCH  14  15
ENDBRANCH   3  14
TORSDOF 4
ENDMDL