MODEL 5
REMARK VINA RESULT: -7.903928495      3.549      6.081
REMARK  5 active torsions:
REMARK  status: ('A' for Active; 'I' for Inactive)
REMARK    1  A    between atoms: O1_1  and  N1_3
REMARK    2  A    between atoms: C1_5  and  C2_7
REMARK    3  A    between atoms: C5_10  and  N2_11
REMARK    4  A    between atoms: C10_18  and  O2_19
REMARK    5  A    between atoms: O2_19  and  C11_20
ROOT
HETATM    1  C2  UNL     1       6.220   9.208  45.508  1.00  0.00     0.038 A
HETATM    2  C3  UNL     1       5.991   7.838  45.822  1.00  0.00     0.020 A
HETATM    3  C4  UNL     1       6.472   6.837  45.022  1.00  0.00     0.031 A
HETATM    4  C5  UNL     1       7.191   7.103  43.891  1.00  0.00     0.042 A
HETATM    5  C9  UNL     1       7.412   8.418  43.595  1.00  0.00     0.068 A
HETATM    6  C10 UNL     1       6.939   9.488  44.389  1.00  0.00     0.091 A
ENDROOT
BRANCH   6   7
HETATM    7  O2  UNL     1       7.234  10.762  43.982  1.00  0.00    -0.310 OA
BRANCH   7   8
HETATM    8  C11 UNL     1       8.442  11.409  44.042  1.00  0.00     0.076 A
HETATM    9  C12 UNL     1       9.630  10.940  43.479  1.00  0.00     0.037 A
HETATM   10  C13 UNL     1      10.801  11.624  43.564  1.00  0.00     0.003 A
HETATM   11  C14 UNL     1      10.845  12.837  44.231  1.00  0.00     0.000 A
HETATM   12  C15 UNL     1       9.687  13.327  44.799  1.00  0.00     0.003 A
HETATM   13  C16 UNL     1       8.513  12.620  44.700  1.00  0.00     0.037 A
ENDBRANCH   7   8
ENDBRANCH   6   7
BRANCH   1  14
HETATM   14  C1  UNL     1       5.544  10.181  46.319  1.00  0.00     0.136 C
HETATM   15  N1  UNL     1       5.625  10.266  47.572  1.00  0.00    -0.257 N
ATOM     16  H1  UNL     1       6.227   9.593  48.046  1.00  0.00     0.195 HD
HETATM   17 CL1  UNL     1       4.497  11.358  45.534  1.00  0.00    -0.062 Cl
BRANCH  15  18
HETATM   18  O1  UNL     1       4.978  11.180  48.353  1.00  0.00    -0.289 OA
ATOM     19  H1  UNL     1       4.428  11.887  48.039  1.00  0.00     0.244 HD
ENDBRANCH  15  18
ENDBRANCH   1  14
BRANCH   4  20
HETATM   20  N2  UNL     1       7.690   6.060  43.057  1.00  0.00    -0.317 N
HETATM   21  C6  UNL     1       7.754   6.057  41.706  1.00  0.00     0.115 A
HETATM   22  C7  UNL     1       8.295   4.879  41.260  1.00  0.00     0.106 A
HETATM   23  N3  UNL     1       8.564   4.153  42.361  1.00  0.00    -0.360 N
HETATM   24  C8  UNL     1       8.195   4.874  43.441  1.00  0.00     0.188 A
ATOM     25  H3  UNL     1       8.976   3.220  42.376  1.00  0.00     0.166 HD
ENDBRANCH   4  20
TORSDOF 5
ENDMDL