MODEL 2
REMARK VINA RESULT: -7.025215717      1.255      1.593
REMARK  7 active torsions:
REMARK  status: ('A' for Active; 'I' for Inactive)
REMARK    1  A    between atoms: C2_2  and  C3_3
REMARK    2  A    between atoms: C3_3  and  N1_4
REMARK    3  A    between atoms: N1_4  and  C4_6
REMARK    4  A    between atoms: C4_6  and  N2_8
REMARK    5  A    between atoms: C7_13  and  N4_14
REMARK    6  A    between atoms: N4_14  and  N5_16
REMARK    7  A    between atoms: N5_16  and  C8_18
ROOT
HETATM    1  N2  UNL     1       7.579   9.211  45.153  1.00  0.00    -0.130 N
HETATM    2  C5  UNL     1       7.923   7.917  44.988  1.00  0.00     0.135 A
HETATM    3  C6  UNL     1       7.757   7.243  46.181  1.00  0.00     0.124 A
HETATM    4  N3  UNL     1       7.307   8.170  47.057  1.00  0.00    -0.199 N
ATOM      5  H3  UNL     1       7.082   8.003  48.037  1.00  0.00     0.183 HD
HETATM    6  C7  UNL     1       7.207   9.346  46.419  1.00  0.00     0.705 A
ENDROOT
BRANCH   6   7
HETATM    7  N4  UNL     1       6.763  10.551  47.031  1.00  0.00    -0.131 N
ATOM      8  H4  UNL     1       7.369  11.368  47.102  1.00  0.00     0.205 HD
BRANCH   7   9
HETATM    9  N5  UNL     1       5.577  10.561  47.485  1.00  0.00    -0.287 N
ATOM     10  H5  UNL     1       5.237   9.820  48.098  1.00  0.00     0.187 HD
BRANCH   9  11
HETATM   11  C8  UNL     1       4.742  11.648  47.104  1.00  0.00     0.048 A
HETATM   12  C9  UNL     1       3.761  12.102  47.959  1.00  0.00     0.031 A
HETATM   13  C10 UNL     1       2.976  13.167  47.533  1.00  0.00     0.002 A
HETATM   14  C11 UNL     1       3.166  13.751  46.304  1.00  0.00     0.000 A
HETATM   15  C12 UNL     1       4.140  13.302  45.452  1.00  0.00     0.002 A
HETATM   16  C13 UNL     1       4.940  12.231  45.862  1.00  0.00     0.031 A
ENDBRANCH   9  11
ENDBRANCH   7   9
ENDBRANCH   6   7
BRANCH   1  17
HETATM   17  C4  UNL     1       7.603  10.252  44.164  1.00  0.00     0.193 C
HETATM   18  S1  UNL     1       6.409  10.397  43.082  1.00  0.00    -0.040 SA
BRANCH  17  19
HETATM   19  N1  UNL     1       8.706  11.144  44.173  1.00  0.00    -0.366 N
ATOM     20  H1  UNL     1       9.617  10.856  43.814  1.00  0.00     0.161 HD
BRANCH  19  21
HETATM   21  C3  UNL     1       8.500  12.477  44.707  1.00  0.00     0.121 C
BRANCH  21  22
HETATM   22  C2  UNL     1       9.759  13.309  44.636  1.00  0.00     0.015 C
HETATM   23  C1  UNL     1      10.849  12.650  43.862  1.00  0.00     0.006 C
ENDBRANCH  21  22
ENDBRANCH  19  21
ENDBRANCH  17  19
ENDBRANCH   1  17
TORSDOF 7
ENDMDL