MODEL 2
REMARK VINA RESULT: -8.285703688      2.007      3.651
REMARK  6 active torsions:
REMARK  status: ('A' for Active; 'I' for Inactive)
REMARK    1  A    between atoms: O1_1  and  N1_3
REMARK    2  A    between atoms: N2_5  and  C2_6
REMARK    3  A    between atoms: C2_6  and  C3_7
REMARK    4  A    between atoms: C9_13  and  O2_14
REMARK    5  A    between atoms: C10_16  and  N3_17
REMARK    6  A    between atoms: N4_19  and  C11_21
ROOT
HETATM    1  N1  UNL     1       7.060   6.546  44.436  1.00  0.00    -0.198 N
HETATM    2  C1  UNL     1       6.554   7.613  45.076  1.00  0.00     0.220 A
HETATM    3  N2  UNL     1       7.326   7.860  46.144  1.00  0.00    -0.314 N
HETATM    4  C9  UNL     1       8.305   6.959  46.174  1.00  0.00     0.192 A
HETATM    5  C10 UNL     1       8.162   6.100  45.090  1.00  0.00     0.200 A
ENDROOT
BRANCH   5   6
HETATM    6  N3  UNL     1       8.991   5.004  44.753  1.00  0.00    -0.280 N
HETATM    7  N4  UNL     1       9.815   5.022  43.834  1.00  0.00    -0.299 N
ATOM      8  H4  UNL     1      10.378   4.192  43.649  1.00  0.00     0.187 HD
ATOM      9  H3  UNL     1       8.902   4.148  45.302  1.00  0.00     0.189 HD
BRANCH   7  10
HETATM   10  C11 UNL     1       9.989   6.174  43.035  1.00  0.00     0.048 A
HETATM   11  C12 UNL     1       9.424   6.240  41.758  1.00  0.00     0.034 A
HETATM   12  C13 UNL     1       9.574   7.350  40.957  1.00  0.00     0.044 A
HETATM   13  C14 UNL     1      10.287   8.455  41.375  1.00  0.00     0.116 A
HETATM   14  F1  UNL     1      10.428   9.546  40.575  1.00  0.00    -0.206 F
HETATM   15  C15 UNL     1      10.845   8.394  42.634  1.00  0.00     0.044 A
HETATM   16  C16 UNL     1      10.700   7.284  43.440  1.00  0.00     0.034 A
ENDBRANCH   7  10
ENDBRANCH   5   6
BRANCH   1  17
HETATM   17  O1  UNL     1       6.542   5.967  43.278  1.00  0.00    -0.280 OA
ATOM     18  H1  UNL     1       6.789   5.122  42.921  1.00  0.00     0.245 HD
ENDBRANCH   1  17
BRANCH   4  19
HETATM   19  O2  UNL     1       9.307   6.896  47.143  1.00  0.00    -0.343 OA
ATOM     20  H2  UNL     1      10.108   7.407  47.133  1.00  0.00     0.219 HD
ENDBRANCH   4  19
BRANCH   3  21
HETATM   21  C2  UNL     1       7.112   8.940  47.101  1.00  0.00     0.170 C
BRANCH  21  22
HETATM   22  C3  UNL     1       6.805  10.220  46.415  1.00  0.00    -0.040 A
HETATM   23  C4  UNL     1       5.660  10.908  46.755  1.00  0.00     0.009 A
HETATM   24  C5  UNL     1       5.376  12.095  46.120  1.00  0.00     0.001 A
HETATM   25  C6  UNL     1       6.222  12.583  45.162  1.00  0.00     0.000 A
HETATM   26  C7  UNL     1       7.374  11.912  44.805  1.00  0.00     0.001 A
HETATM   27  C8  UNL     1       7.645  10.726  45.451  1.00  0.00     0.009 A
ENDBRANCH  21  22
ENDBRANCH   3  21
TORSDOF 6
ENDMDL