MODEL 5
REMARK VINA RESULT: -8.223035076      3.018      4.883
REMARK  6 active torsions:
REMARK  status: ('A' for Active; 'I' for Inactive)
REMARK    1  A    between atoms: O1_1  and  N1_3
REMARK    2  A    between atoms: C1_5  and  C2_6
REMARK    3  A    between atoms: C1_5  and  N2_19
REMARK    4  A    between atoms: C7_11  and  O2_12
REMARK    5  A    between atoms: O2_12  and  C8_13
REMARK    6  A    between atoms: C16_24  and  C17_25
ROOT
HETATM    1  C2  UNL     1       8.986  10.721  43.771  1.00  0.00     0.045 A
HETATM    2  C3  UNL     1      10.295  11.155  43.429  1.00  0.00     0.018 A
HETATM    3  C4  UNL     1      10.780  12.381  43.777  1.00  0.00     0.001 A
HETATM    4  C5  UNL     1       9.958  13.216  44.483  1.00  0.00     0.003 A
HETATM    5  C6  UNL     1       8.694  12.870  44.849  1.00  0.00     0.038 A
HETATM    6  C7  UNL     1       8.216  11.594  44.478  1.00  0.00     0.090 A
ENDROOT
BRANCH   1   7
HETATM    7  C1  UNL     1       8.575   9.459  43.191  1.00  0.00     0.160 C
HETATM    8  N1  UNL     1       7.783   9.368  42.218  1.00  0.00    -0.251 N
ATOM      9  H1  UNL     1       7.429  10.246  41.837  1.00  0.00     0.196 HD
BRANCH   8  10
HETATM   10  O1  UNL     1       7.350   8.233  41.621  1.00  0.00    -0.288 OA
ATOM     11  H1  UNL     1       7.869   7.614  41.121  1.00  0.00     0.244 HD
ENDBRANCH   8  10
BRANCH   7  12
HETATM   12  N2  UNL     1       9.059   8.208  43.712  1.00  0.00    -0.240 N
HETATM   13  N3  UNL     1       8.525   7.529  44.704  1.00  0.00    -0.303 N
HETATM   14  C14 UNL     1       9.207   6.412  44.949  1.00  0.00     0.110 A
ATOM     15  H3  UNL     1       7.696   7.821  45.219  1.00  0.00     0.186 HD
HETATM   16  C15 UNL     1      10.243   6.390  44.043  1.00  0.00     0.048 A
HETATM   17  C16 UNL     1      10.116   7.532  43.287  1.00  0.00     0.066 A
BRANCH  17  18
HETATM   18  C17 UNL     1      11.038   7.904  42.180  1.00  0.00     0.281 C
HETATM   19  F1  UNL     1      12.181   8.499  42.678  1.00  0.00    -0.249 F
ENDBRANCH  17  18
ENDBRANCH   7  12
ENDBRANCH   1   7
BRANCH   6  20
HETATM   20  O2  UNL     1       6.932  11.269  44.868  1.00  0.00    -0.310 OA
BRANCH  20  21
HETATM   21  C8  UNL     1       5.849  12.081  44.588  1.00  0.00     0.076 A
HETATM   22  C9  UNL     1       5.104  12.678  45.612  1.00  0.00     0.037 A
HETATM   23  C10 UNL     1       4.022  13.483  45.358  1.00  0.00     0.003 A
HETATM   24  C11 UNL     1       3.620  13.738  44.076  1.00  0.00     0.000 A
HETATM   25  C12 UNL     1       4.312  13.179  43.049  1.00  0.00     0.003 A
HETATM   26  C13 UNL     1       5.400  12.369  43.294  1.00  0.00     0.037 A
ENDBRANCH  20  21
ENDBRANCH   6  20
TORSDOF 6
ENDMDL