MODEL 1
REMARK VINA RESULT: -8.217103663      0.000      0.000
REMARK  5 active torsions:
REMARK  status: ('A' for Active; 'I' for Inactive)
REMARK    1  A    between atoms: C2_3  and  C10_16
REMARK    2  A    between atoms: N2_4  and  O1_6
REMARK    3  A    between atoms: O1_6  and  C3_7
REMARK    4  A    between atoms: C3_7  and  C4_9
REMARK    5  A    between atoms: C10_16  and  C11_20
ROOT
HETATM    1  N1  UNL     1       7.897   8.801  47.989  1.00  0.00    -0.190 NA
HETATM    2  C1  UNL     1       7.226   8.772  47.034  1.00  0.00     0.122 C
HETATM    3  C2  UNL     1       6.400   8.711  45.852  1.00  0.00     0.162 C
HETATM    4  N2  UNL     1       5.900   9.791  45.440  1.00  0.00    -0.245 N
ATOM      5  H2  UNL     1       5.317   9.741  44.604  1.00  0.00     0.196 HD
ENDROOT
BRANCH   3   6
HETATM    6  C10 UNL     1       6.187   7.458  45.213  1.00  0.00     0.083 C
HETATM    7  N3  UNL     1       5.272   6.639  45.690  1.00  0.00    -0.396 N
ATOM      8  H32 UNL     1       4.780   6.999  46.507  1.00  0.00     0.156 HD
ATOM      9  H31 UNL     1       5.120   5.740  45.232  1.00  0.00     0.156 HD
BRANCH   6  10
HETATM   10  C11 UNL     1       6.899   6.937  44.029  1.00  0.00     0.034 A
HETATM   11  C12 UNL     1       7.522   5.741  43.808  1.00  0.00     0.021 A
HETATM   12  C13 UNL     1       8.094   5.545  42.607  1.00  0.00     0.008 A
HETATM   13  C14 UNL     1       8.017   6.549  41.692  1.00  0.00     0.050 A
HETATM   14  S1  UNL     1       7.147   7.754  42.519  1.00  0.00    -0.100 SA
ENDBRANCH   6  10
ENDBRANCH   3   6
BRANCH   4  15
HETATM   15  O1  UNL     1       6.065  11.022  46.006  1.00  0.00    -0.194 OA
BRANCH  15  16
HETATM   16  C3  UNL     1       5.079  11.698  46.704  1.00  0.00     0.315 C
HETATM   17  O2  UNL     1       4.896  11.366  47.898  1.00  0.00    -0.257 OA
BRANCH  16  18
HETATM   18  C4  UNL     1       4.282  12.761  46.068  1.00  0.00     0.043 A
HETATM   19  C5  UNL     1       3.408  13.539  46.795  1.00  0.00     0.018 A
HETATM   20  C6  UNL     1       2.646  14.539  46.239  1.00  0.00     0.003 A
HETATM   21  C7  UNL     1       2.758  14.783  44.892  1.00  0.00     0.024 A
HETATM   22  C8  UNL     1       3.624  14.022  44.140  1.00  0.00     0.035 A
HETATM   23 CL1  UNL     1       3.738  14.366  42.415  1.00  0.00    -0.084 Cl
HETATM   24  C9  UNL     1       4.369  13.030  44.727  1.00  0.00     0.041 A
ENDBRANCH  16  18
ENDBRANCH  15  16
ENDBRANCH   4  15
TORSDOF 5
ENDMDL