MODEL 2
REMARK VINA RESULT: -8.446489626      0.601      1.180
REMARK  4 active torsions:
REMARK  status: ('A' for Active; 'I' for Inactive)
REMARK    1  A    between atoms: C2_3  and  N2_4
REMARK    2  A    between atoms: C3_6  and  C4_7
REMARK    3  A    between atoms: C12_18  and  O1_19
REMARK    4  A    between atoms: O1_19  and  C13_20
ROOT
HETATM    1  N1  UNL     1       8.142  10.236  44.014  1.00  0.00    -0.095 NA
HETATM    2  C1  UNL     1       7.554   9.016  44.453  1.00  0.00     0.124 A
HETATM    3  C2  UNL     1       6.222   9.026  44.831  1.00  0.00     0.062 A
HETATM    4  C10 UNL     1       5.617   7.858  45.249  1.00  0.00     0.048 A
HETATM    5  C11 UNL     1       6.386   6.718  45.270  1.00  0.00     0.092 A
HETATM    6  N3  UNL     1       7.669   6.727  44.902  1.00  0.00    -0.345 N
ATOM      7  H3  UNL     1       8.201   5.857  44.933  1.00  0.00     0.167 HD
HETATM    8  C12 UNL     1       8.281   7.859  44.490  1.00  0.00     0.174 A
ENDROOT
BRANCH   3   9
HETATM    9  N2  UNL     1       5.488  10.241  44.784  1.00  0.00    -0.363 N
HETATM   10  C3  UNL     1       5.199  10.818  45.895  1.00  0.00     0.099 C
ATOM     11  H2  UNL     1       5.199  10.645  43.893  1.00  0.00     0.165 HD
BRANCH  10  12
HETATM   12  C4  UNL     1       4.447  12.063  45.860  1.00  0.00    -0.021 A
HETATM   13  C5  UNL     1       3.711  12.429  46.963  1.00  0.00     0.016 A
HETATM   14  C6  UNL     1       2.988  13.601  46.963  1.00  0.00     0.043 A
HETATM   15  C7  UNL     1       3.026  14.387  45.833  1.00  0.00     0.116 A
HETATM   16  F1  UNL     1       2.307  15.553  45.834  1.00  0.00    -0.206 F
HETATM   17  C8  UNL     1       3.754  14.051  44.711  1.00  0.00     0.043 A
HETATM   18  C9  UNL     1       4.470  12.875  44.732  1.00  0.00     0.016 A
ENDBRANCH  10  12
ENDBRANCH   3   9
BRANCH   8  19
HETATM   19  O1  UNL     1       9.646   7.790  44.117  1.00  0.00    -0.292 OA
BRANCH  19  20
HETATM   20  C13 UNL     1       9.956   6.991  43.043  1.00  0.00     0.077 A
HETATM   21  C14 UNL     1      10.754   5.904  43.176  1.00  0.00     0.037 A
HETATM   22  C15 UNL     1      11.054   5.107  42.076  1.00  0.00     0.003 A
HETATM   23  C16 UNL     1      10.518   5.460  40.860  1.00  0.00     0.000 A
HETATM   24  C17 UNL     1       9.710   6.562  40.723  1.00  0.00     0.003 A
HETATM   25  C18 UNL     1       9.432   7.326  41.823  1.00  0.00     0.037 A
ENDBRANCH  19  20
ENDBRANCH   8  19
TORSDOF 4
ENDMDL