MODEL 5
REMARK VINA RESULT: -7.337808472      3.986      7.370
REMARK  5 active torsions:
REMARK  status: ('A' for Active; 'I' for Inactive)
REMARK    1  A    between atoms: C2_2  and  O1_3
REMARK    2  A    between atoms: C2_2  and  C11_18
REMARK    3  A    between atoms: O1_3  and  C3_4
REMARK       I    between atoms: C3_4  and  N1_6
REMARK    4  A    between atoms: N1_6  and  C4_8
REMARK    5  A    between atoms: C8_13  and  S1_14
ROOT
HETATM    1  S1  UNL     1       2.987  14.004  46.831  1.00  0.00    -0.011 SA
HETATM    2  C9  UNL     1       3.688  12.984  48.074  1.00  0.00     0.139 C
HETATM    3  N2  UNL     1       4.139  12.313  48.903  1.00  0.00    -0.184 NA
ENDROOT
BRANCH   1   4
HETATM    4  C8  UNL     1       3.718  13.579  45.262  1.00  0.00     0.020 A
HETATM    5  C7  UNL     1       3.224  14.153  44.112  1.00  0.00     0.061 A
HETATM    6  C6  UNL     1       3.783  13.830  42.882  1.00  0.00     0.119 A
HETATM    7  C5  UNL     1       4.852  12.919  42.820  1.00  0.00     0.072 A
HETATM    8  F1  UNL     1       3.302  14.392  41.748  1.00  0.00    -0.206 F
HETATM    9  C4  UNL     1       5.362  12.332  43.951  1.00  0.00     0.041 A
HETATM   10  C10 UNL     1       4.755  12.700  45.147  1.00  0.00     0.049 A
BRANCH   9  11
HETATM   11  N1  UNL     1       6.429  11.420  43.913  1.00  0.00    -0.303 N
HETATM   12  C3  UNL     1       7.723  11.565  44.427  1.00  0.00     0.365 C
HETATM   13  O2  UNL     1       8.170  12.558  45.028  1.00  0.00    -0.238 OA
ATOM     14  H1  UNL     1       6.235  10.533  43.448  1.00  0.00     0.171 HD
BRANCH  12  15
HETATM   15  O1  UNL     1       8.648  10.513  44.278  1.00  0.00    -0.292 OA
BRANCH  15  16
HETATM   16  C2  UNL     1       8.369   9.453  43.388  1.00  0.00     0.186 C
HETATM   17  C1  UNL     1       9.665   9.167  42.644  1.00  0.00     0.047 C
BRANCH  16  18
HETATM   18  C11 UNL     1       8.037   8.220  44.147  1.00  0.00     0.081 A
HETATM   19  C12 UNL     1       6.835   7.559  44.023  1.00  0.00     0.037 A
HETATM   20  C13 UNL     1       6.860   6.455  44.871  1.00  0.00     0.027 A
HETATM   21  C14 UNL     1       8.101   6.511  45.473  1.00  0.00     0.142 A
HETATM   22  O3  UNL     1       8.744   7.565  45.011  1.00  0.00    -0.324 OA
ENDBRANCH  16  18
ENDBRANCH  15  16
ENDBRANCH  12  15
ENDBRANCH   9  11
ENDBRANCH   1   4
TORSDOF 5
ENDMDL