MODEL 4
REMARK VINA RESULT: -7.175381635      1.234      1.664
REMARK  7 active torsions:
REMARK  status: ('A' for Active; 'I' for Inactive)
REMARK    1  A    between atoms: O1_2  and  C2_3
REMARK    2  A    between atoms: C2_3  and  O3_5
REMARK    3  A    between atoms: O3_5  and  N1_6
REMARK    4  A    between atoms: C3_8  and  C4_9
REMARK    5  A    between atoms: C8_13  and  O4_14
REMARK    6  A    between atoms: C9_16  and  C10_17
REMARK    7  A    between atoms: C11_18  and  C12_19
ROOT
HETATM    1  C4  UNL     1       4.259  12.709  45.485  1.00  0.00    -0.006 A
HETATM    2  C5  UNL     1       3.501  13.785  46.022  1.00  0.00     0.014 A
HETATM    3  C6  UNL     1       2.939  14.735  45.215  1.00  0.00     0.004 A
HETATM    4  C7  UNL     1       3.093  14.672  43.856  1.00  0.00     0.037 A
HETATM    5  C8  UNL     1       3.827  13.647  43.281  1.00  0.00     0.076 A
HETATM    6  C9  UNL     1       4.405  12.674  44.139  1.00  0.00     0.009 A
ENDROOT
BRANCH   1   7
HETATM    7  C3  UNL     1       4.582  11.634  46.407  1.00  0.00     0.127 C
HETATM    8  N1  UNL     1       5.687  11.498  47.012  1.00  0.00    -0.266 N
ATOM      9  H1  UNL     1       6.434  12.176  46.868  1.00  0.00     0.194 HD
BRANCH   8  10
HETATM   10  O3  UNL     1       5.877  10.445  47.859  1.00  0.00    -0.175 OA
BRANCH  10  11
HETATM   11  C2  UNL     1       6.674   9.383  47.420  1.00  0.00     0.428 C
HETATM   12  O2  UNL     1       7.782   9.113  47.955  1.00  0.00    -0.227 OA
BRANCH  11  13
HETATM   13  O1  UNL     1       6.270   8.575  46.366  1.00  0.00    -0.302 OA
HETATM   14  C1  UNL     1       7.047   7.564  45.795  1.00  0.00     0.215 C
ENDBRANCH  11  13
ENDBRANCH  10  11
ENDBRANCH   8  10
ENDBRANCH   1   7
BRANCH   6  15
HETATM   15  C10 UNL     1       5.378  11.816  43.473  1.00  0.00     0.015 C
HETATM   16  C11 UNL     1       5.524  10.523  43.552  1.00  0.00     0.002 C
BRANCH  16  17
HETATM   17  C12 UNL     1       6.574   9.857  42.785  1.00  0.00     0.019 C
HETATM   18  C13 UNL     1       7.851   9.929  43.110  1.00  0.00     0.008 C
HETATM   19  C14 UNL     1       8.262  10.705  44.292  1.00  0.00     0.062 C
HETATM   20 CL1  UNL     1       9.054   9.118  42.161  1.00  0.00    -0.089 Cl
ENDBRANCH  16  17
ENDBRANCH   6  15
BRANCH   5  21
HETATM   21  O4  UNL     1       3.990  13.577  41.917  1.00  0.00    -0.360 OA
ATOM     22  H4  UNL     1       4.765  13.176  41.539  1.00  0.00     0.217 HD
ENDBRANCH   5  21
TORSDOF 7
ENDMDL