MODEL 4
REMARK VINA RESULT: -8.174808645      3.310      8.212
REMARK  6 active torsions:
REMARK  status: ('A' for Active; 'I' for Inactive)
REMARK    1  A    between atoms: C2_2  and  C3_4
REMARK    2  A    between atoms: C3_4  and  S1_16
REMARK    3  A    between atoms: N1_5  and  N2_7
REMARK    4  A    between atoms: N2_7  and  C4_9
REMARK    5  A    between atoms: S1_16  and  C10_17
REMARK    6  A    between atoms: C10_17  and  C11_19
ROOT
HETATM    1  C3  UNL     1       7.171   9.689  45.715  1.00  0.00     0.138 C
HETATM    2  N1  UNL     1       7.259   8.548  46.080  1.00  0.00    -0.290 N
ATOM      3  H1  UNL     1       6.526   8.455  46.784  1.00  0.00     0.187 HD
ENDROOT
BRANCH   1   4
HETATM    4  C2  UNL     1       7.946  10.414  44.721  1.00  0.00     0.180 C
HETATM    5  C1  UNL     1       8.193  11.864  44.838  1.00  0.00     0.099 C
HETATM    6  O1  UNL     1       8.425   9.833  43.742  1.00  0.00    -0.291 OA
ENDBRANCH   1   4
BRANCH   1   7
HETATM    7  S1  UNL     1       5.870  10.724  46.513  1.00  0.00    -0.025 SA
BRANCH   7   8
HETATM    8  C10 UNL     1       4.689  11.253  45.302  1.00  0.00     0.225 C
HETATM    9  O2  UNL     1       4.405  10.510  44.341  1.00  0.00    -0.279 OA
BRANCH   8  10
HETATM   10  C11 UNL     1       4.055  12.547  45.427  1.00  0.00     0.021 A
HETATM   11  C12 UNL     1       4.013  13.400  44.338  1.00  0.00     0.016 A
HETATM   12  C13 UNL     1       3.431  14.642  44.379  1.00  0.00     0.001 A
HETATM   13  C14 UNL     1       2.859  15.061  45.561  1.00  0.00     0.000 A
HETATM   14  C15 UNL     1       2.895  14.227  46.642  1.00  0.00     0.001 A
HETATM   15  C16 UNL     1       3.478  12.979  46.609  1.00  0.00     0.016 A
ENDBRANCH   8  10
ENDBRANCH   7   8
ENDBRANCH   1   7
BRANCH   2  16
HETATM   16  N2  UNL     1       7.812   7.367  46.036  1.00  0.00    -0.300 N
ATOM     17  H2  UNL     1       7.886   6.892  46.936  1.00  0.00     0.187 HD
BRANCH  16  18
HETATM   18  C4  UNL     1       8.336   6.630  44.914  1.00  0.00     0.048 A
HETATM   19  C5  UNL     1       9.698   6.589  44.731  1.00  0.00     0.034 A
HETATM   20  C6  UNL     1      10.189   5.886  43.637  1.00  0.00     0.044 A
HETATM   21  C7  UNL     1       9.326   5.267  42.787  1.00  0.00     0.116 A
HETATM   22  F1  UNL     1       9.852   4.586  41.723  1.00  0.00    -0.206 F
HETATM   23  C8  UNL     1       7.972   5.312  42.977  1.00  0.00     0.044 A
HETATM   24  C9  UNL     1       7.470   6.006  44.059  1.00  0.00     0.034 A
ENDBRANCH  16  18
ENDBRANCH   2  16
TORSDOF 6
ENDMDL