MODEL 5
REMARK VINA RESULT: -9.348988405      1.024      1.800
REMARK  8 active torsions:
REMARK  status: ('A' for Active; 'I' for Inactive)
REMARK    1  A    between atoms: C1_2  and  C2_4
REMARK    2  A    between atoms: C2_4  and  S1_5
REMARK    3  A    between atoms: S1_5  and  C3_6
REMARK    4  A    between atoms: C4_11  and  C5_12
REMARK    5  A    between atoms: C8_15  and  N3_16
REMARK    6  A    between atoms: N4_22  and  C11_23
REMARK    7  A    between atoms: C11_23  and  C12_24
REMARK    8  A    between atoms: C12_24  and  C13_25
ROOT
HETATM    1  C3  UNL     1      12.982  40.916  57.369  1.00  0.00     0.163 A
HETATM    2  N1  UNL     1      13.415  40.166  58.393  1.00  0.00    -0.278 N
ATOM      3  H1  UNL     1      14.386  40.099  58.697  1.00  0.00     0.189 HD
HETATM    4  N2  UNL     1      12.409  39.528  58.949  1.00  0.00    -0.283 N
ATOM      5  H2  UNL     1      12.470  38.892  59.744  1.00  0.00     0.188 HD
HETATM    6  C4  UNL     1      11.261  39.868  58.271  1.00  0.00     0.136 A
HETATM    7  N4  UNL     1      11.642  40.706  57.321  1.00  0.00    -0.310 N
ENDROOT
BRANCH   6   8
HETATM    8  C5  UNL     1       9.970  39.285  58.626  1.00  0.00     0.031 A
HETATM    9  C6  UNL     1       9.244  38.540  57.689  1.00  0.00     0.019 A
HETATM   10  C7  UNL     1       8.049  37.928  57.991  1.00  0.00     0.037 A
HETATM   11  C8  UNL     1       7.515  38.034  59.267  1.00  0.00     0.104 A
HETATM   12  C9  UNL     1       8.224  38.762  60.194  1.00  0.00     0.060 A
HETATM   13  C10 UNL     1       9.437  39.379  59.877  1.00  0.00     0.050 A
HETATM   14 CL1  UNL     1      10.274  40.202  61.185  1.00  0.00    -0.083 Cl
BRANCH  11  15
HETATM   15  N3  UNL     1       6.279  37.404  59.586  1.00  0.00    -0.116 N
HETATM   16  O3  UNL     1       6.055  37.057  60.755  1.00  0.00    -0.532 OA
HETATM   17  O4  UNL     1       5.332  37.177  58.629  1.00  0.00    -0.532 OA
ENDBRANCH  11  15
ENDBRANCH   6   8
BRANCH   7  18
HETATM   18  C11 UNL     1      10.794  41.309  56.290  1.00  0.00     0.137 C
BRANCH  18  19
HETATM   19  C12 UNL     1      10.721  42.792  56.487  1.00  0.00     0.054 C
BRANCH  19  20
HETATM   20  C13 UNL     1       9.458  43.343  57.000  1.00  0.00    -0.081 C
HETATM   21  C14 UNL     1       9.107  44.463  56.389  1.00  0.00    -0.013 C
HETATM   22  C15 UNL     1       7.902  45.423  56.541  1.00  0.00     0.107 C
HETATM   23  C16 UNL     1       7.198  44.945  57.676  1.00  0.00    -0.179 C
HETATM   24  C17 UNL     1       6.389  44.737  58.772  1.00  0.00     0.080 C
HETATM   25  C18 UNL     1       6.864  43.396  59.421  1.00  0.00     0.011 C
HETATM   26  C19 UNL     1       8.326  43.110  59.294  1.00  0.00     0.005 C
HETATM   27  C20 UNL     1       8.889  42.454  58.104  1.00  0.00     0.034 C
ENDBRANCH  19  20
ENDBRANCH  18  19
ENDBRANCH   7  18
BRANCH   1  28
HETATM   28  S1  UNL     1      13.948  41.978  56.283  1.00  0.00    -0.082 SA
BRANCH  28  29
HETATM   29  C2  UNL     1      14.477  43.406  57.269  1.00  0.00     0.195 C
BRANCH  29  30
HETATM   30  C1  UNL     1      13.759  44.638  56.868  1.00  0.00     0.182 C
HETATM   31  O1  UNL     1      13.471  44.774  55.661  1.00  0.00    -0.647 OA
HETATM   32  O2  UNL     1      13.451  45.560  57.852  1.00  0.00    -0.647 OA
ENDBRANCH  29  30
ENDBRANCH  28  29
ENDBRANCH   1  28
TORSDOF 8
ENDMDL