MODEL 1
REMARK VINA RESULT: -7.840147863      0.000      0.000
REMARK  10 active torsions:
REMARK  status: ('A' for Active; 'I' for Inactive)
REMARK    1  A    between atoms: C2_2  and  C3_3
REMARK    2  A    between atoms: C3_3  and  S1_4
REMARK    3  A    between atoms: S1_4  and  C4_5
REMARK    4  A    between atoms: C5_6  and  C6_7
REMARK    5  A    between atoms: C9_11  and  C10_12
REMARK    6  A    between atoms: C10_12  and  O1_14
REMARK    7  A    between atoms: C14_21  and  N2_22
REMARK    8  A    between atoms: C19_27  and  C20_28
REMARK    9  A    between atoms: C20_28  and  O3_30
REMARK   10  A    between atoms: O3_30  and  C21_31
ROOT
HETATM    1  C4  UNL     1      10.581  40.997  56.545  1.00  0.00     0.056 A
HETATM    2  C5  UNL     1      10.145  39.715  56.407  1.00  0.00     0.003 A
HETATM    3  C12 UNL     1      10.446  39.020  55.218  1.00  0.00     0.031 A
HETATM    4  C13 UNL     1      11.155  39.584  54.191  1.00  0.00     0.090 A
HETATM    5  N1  UNL     1      11.563  40.834  54.346  1.00  0.00    -0.351 N
ATOM      6  H1  UNL     1      12.092  41.285  53.601  1.00  0.00     0.166 HD
HETATM    7  C14 UNL     1      11.284  41.531  55.496  1.00  0.00     0.121 A
ENDROOT
BRANCH   7   8
HETATM    8  N2  UNL     1      11.759  42.845  55.482  1.00  0.00    -0.352 N
HETATM    9  C15 UNL     1      10.992  43.931  54.950  1.00  0.00     0.125 C
HETATM   10  C16 UNL     1      11.137  45.100  55.923  1.00  0.00     0.020 C
HETATM   11  C17 UNL     1      12.556  45.590  55.832  1.00  0.00     0.004 C
HETATM   12  C18 UNL     1      13.471  44.486  55.383  1.00  0.00     0.035 C
HETATM   13  C19 UNL     1      13.047  43.165  56.031  1.00  0.00     0.185 C
BRANCH  13  14
HETATM   14  C20 UNL     1      14.093  42.167  55.881  1.00  0.00     0.281 C
HETATM   15  O2  UNL     1      14.620  41.913  54.780  1.00  0.00    -0.263 OA
BRANCH  14  16
HETATM   16  O3  UNL     1      14.588  41.415  56.963  1.00  0.00    -0.320 OA
BRANCH  16  17
HETATM   17  C21 UNL     1      13.981  41.501  58.245  1.00  0.00     0.174 C
HETATM   18  C22 UNL     1      13.648  40.143  58.797  1.00  0.00     0.034 C
ENDBRANCH  16  17
ENDBRANCH  14  16
ENDBRANCH  13  14
ENDBRANCH   7   8
BRANCH   1  19
HETATM   19  S1  UNL     1      10.301  41.893  58.006  1.00  0.00    -0.125 SA
BRANCH  19  20
HETATM   20  C3  UNL     1       8.887  42.949  58.106  1.00  0.00     0.079 C
BRANCH  20  21
HETATM   21  C2  UNL     1       7.968  42.711  59.293  1.00  0.00     0.006 C
HETATM   22  C1  UNL     1       6.949  43.846  59.281  1.00  0.00     0.006 C
ENDBRANCH  20  21
ENDBRANCH  19  20
ENDBRANCH   1  19
BRANCH   2  23
HETATM   23  C6  UNL     1       9.266  39.011  57.351  1.00  0.00     0.020 A
HETATM   24  C7  UNL     1       9.125  38.998  58.693  1.00  0.00     0.063 A
HETATM   25  C8  UNL     1       8.143  38.265  59.242  1.00  0.00     0.133 A
HETATM   26  F1  UNL     1       7.916  38.185  60.610  1.00  0.00    -0.205 F
HETATM   27  C9  UNL     1       7.332  37.567  58.398  1.00  0.00     0.050 A
HETATM   28  S2  UNL     1       7.961  37.952  56.872  1.00  0.00    -0.088 SA
BRANCH  27  29
HETATM   29  C10 UNL     1       6.168  36.674  58.709  1.00  0.00     0.157 C
HETATM   30  C11 UNL     1       5.720  36.001  57.419  1.00  0.00     0.045 C
BRANCH  29  31
HETATM   31  O1  UNL     1       5.131  37.482  59.166  1.00  0.00    -0.391 OA
ATOM     32  H1  UNL     1       4.464  36.912  59.530  1.00  0.00     0.210 HD
ENDBRANCH  29  31
ENDBRANCH  27  29
ENDBRANCH   2  23
TORSDOF 10
ENDMDL