MODEL 2
REMARK VINA RESULT: -8.848007191      4.845      8.723
REMARK  8 active torsions:
REMARK  status: ('A' for Active; 'I' for Inactive)
REMARK    1  A    between atoms: C3_4  and  N2_5
REMARK    2  A    between atoms: C4_7  and  C5_8
REMARK    3  A    between atoms: C10_17  and  S1_18
REMARK    4  A    between atoms: S1_18  and  S2_19
REMARK    5  A    between atoms: S2_19  and  C11_20
REMARK    6  A    between atoms: C11_20  and  C12_21
REMARK    7  A    between atoms: C12_21  and  C13_22
REMARK    8  A    between atoms: C13_22  and  C14_23
ROOT
HETATM    1  N1  UNL     1       7.775  36.703  62.866  1.00  0.00    -0.191 NA
HETATM    2  C1  UNL     1       8.536  37.478  62.453  1.00  0.00     0.109 C
HETATM    3  C2  UNL     1       9.470  38.439  61.927  1.00  0.00     0.156 A
HETATM    4  C3  UNL     1       9.587  38.710  60.579  1.00  0.00     0.133 A
HETATM    5  N4  UNL     1      10.486  39.626  60.149  1.00  0.00    -0.321 N
ATOM      6  H4  UNL     1      10.552  39.809  59.148  1.00  0.00     0.169 HD
HETATM    7  C10 UNL     1      11.293  40.305  60.980  1.00  0.00     0.159 A
HETATM    8  N5  UNL     1      11.177  40.037  62.304  1.00  0.00    -0.302 N
ATOM      9  H5  UNL     1      11.775  40.536  62.962  1.00  0.00     0.171 HD
HETATM   10  C20 UNL     1      10.299  39.137  62.780  1.00  0.00     0.272 A
HETATM   11  O1  UNL     1      10.200  38.895  64.026  1.00  0.00    -0.266 OA
ENDROOT
BRANCH   4  12
HETATM   12  N2  UNL     1       8.740  37.998  59.706  1.00  0.00    -0.350 N
HETATM   13  C4  UNL     1       7.770  38.492  59.043  1.00  0.00     0.102 C
ATOM     14  H2  UNL     1       8.919  37.000  59.596  1.00  0.00     0.166 HD
BRANCH  13  15
HETATM   15  C5  UNL     1       6.968  37.649  58.173  1.00  0.00    -0.005 A
HETATM   16  C6  UNL     1       7.421  37.344  56.897  1.00  0.00     0.015 A
HETATM   17  C7  UNL     1       6.710  36.554  56.027  1.00  0.00     0.018 A
HETATM   18  C8  UNL     1       5.497  36.056  56.465  1.00  0.00     0.087 A
HETATM   19  N3  UNL     1       5.054  36.354  57.709  1.00  0.00    -0.374 N
HETATM   20  C9  UNL     1       5.760  37.131  58.557  1.00  0.00     0.100 A
ATOM     21  H3  UNL     1       4.157  35.979  58.016  1.00  0.00     0.164 HD
ENDBRANCH  13  15
ENDBRANCH   4  12
BRANCH   7  22
HETATM   22  S1  UNL     1      12.485  41.518  60.423  1.00  0.00    -0.021 SA
BRANCH  22  23
HETATM   23  S2  UNL     1      13.649  40.600  58.896  1.00  0.00    -0.089 SA
BRANCH  23  24
HETATM   24  C11 UNL     1      14.222  41.946  57.798  1.00  0.00     0.086 C
BRANCH  24  25
HETATM   25  C12 UNL     1      13.460  41.739  56.479  1.00  0.00     0.011 C
BRANCH  25  26
HETATM   26  C13 UNL     1      12.280  40.821  56.703  1.00  0.00     0.007 C
BRANCH  26  27
HETATM   27  C14 UNL     1      11.029  41.527  56.240  1.00  0.00     0.004 C
HETATM   28  C15 UNL     1      11.158  41.976  54.791  1.00  0.00     0.006 C
HETATM   29  C16 UNL     1       9.773  42.456  54.367  1.00  0.00     0.000 C
HETATM   30  C17 UNL     1       9.388  43.710  55.135  1.00  0.00     0.002 C
HETATM   31  C18 UNL     1      10.375  43.953  56.230  1.00  0.00     0.020 C
HETATM   32  C19 UNL     1      10.696  42.733  57.055  1.00  0.00     0.086 C
HETATM   33 CL1  UNL     1       9.271  42.411  58.094  1.00  0.00    -0.125 Cl
ENDBRANCH  26  27
ENDBRANCH  25  26
ENDBRANCH  24  25
ENDBRANCH  23  24
ENDBRANCH  22  23
ENDBRANCH   7  22
TORSDOF 8
ENDMDL