MODEL 3
REMARK VINA RESULT: -8.119749835      1.753      2.991
REMARK  10 active torsions:
REMARK  status: ('A' for Active; 'I' for Inactive)
REMARK    1  A    between atoms: C2_2  and  C3_4
REMARK    2  A    between atoms: C3_4  and  O3_6
REMARK    3  A    between atoms: O3_6  and  C4_7
REMARK    4  A    between atoms: C4_7  and  C7_10
REMARK    5  A    between atoms: C7_10  and  C8_11
REMARK    6  A    between atoms: C8_11  and  C9_12
REMARK    7  A    between atoms: C8_11  and  C13_16
REMARK    8  A    between atoms: C9_12  and  C10_13
REMARK    9  A    between atoms: C15_20  and  C16_21
REMARK   10  A    between atoms: C19_26  and  C20_27
ROOT
HETATM    1  C13 UNL     1      10.160  42.517  56.541  1.00  0.00     0.004 A
HETATM    2  C14 UNL     1      10.301  41.160  56.333  1.00  0.00     0.104 A
HETATM    3  N1  UNL     1      10.232  40.380  57.338  1.00  0.00    -0.358 N
ATOM      4  H1  UNL     1      10.334  39.373  57.210  1.00  0.00     0.166 HD
HETATM    5  C15 UNL     1      10.025  40.886  58.573  1.00  0.00     0.092 A
HETATM    6  S2  UNL     1       9.933  42.533  58.233  1.00  0.00    -0.074 SA
ENDROOT
BRANCH   1   7
HETATM    7  C8  UNL     1      10.216  43.609  55.513  1.00  0.00     0.030 C
BRANCH   7   8
HETATM    8  C7  UNL     1      11.175  44.691  55.993  1.00  0.00     0.047 C
BRANCH   8   9
HETATM    9  C4  UNL     1      12.432  44.875  55.251  1.00  0.00     0.064 C
HETATM   10  C5  UNL     1      12.263  43.891  54.036  1.00  0.00     0.046 C
HETATM   11  C6  UNL     1      12.770  46.175  54.662  1.00  0.00     0.046 C
BRANCH   9  12
HETATM   12  O3  UNL     1      13.564  44.392  56.001  1.00  0.00    -0.305 OA
BRANCH  12  13
HETATM   13  C3  UNL     1      13.601  44.403  57.359  1.00  0.00     0.329 C
HETATM   14  O2  UNL     1      13.561  45.518  57.976  1.00  0.00    -0.256 OA
BRANCH  13  15
HETATM   15  C2  UNL     1      13.685  43.214  58.191  1.00  0.00     0.220 C
HETATM   16  C1  UNL     1      13.757  41.880  57.585  1.00  0.00     0.103 C
HETATM   17  O1  UNL     1      13.696  43.337  59.430  1.00  0.00    -0.287 OA
ENDBRANCH  13  15
ENDBRANCH  12  13
ENDBRANCH   9  12
ENDBRANCH   8   9
ENDBRANCH   7   8
BRANCH   7  18
HETATM   18  C9  UNL     1       8.878  44.285  55.475  1.00  0.00     0.014 C
BRANCH  18  19
HETATM   19  C10 UNL     1       8.596  45.444  56.315  1.00  0.00    -0.022 C
HETATM   20  C11 UNL     1       8.144  46.733  55.745  1.00  0.00     0.009 C
HETATM   21  C12 UNL     1       7.465  45.001  57.292  1.00  0.00     0.009 C
ENDBRANCH  18  19
ENDBRANCH   7  18
ENDBRANCH   1   7
BRANCH   5  22
HETATM   22  C16 UNL     1       9.933  40.036  59.789  1.00  0.00     0.057 A
HETATM   23  S1  UNL     1       8.628  38.913  60.082  1.00  0.00    -0.074 SA
HETATM   24  C17 UNL     1       9.128  38.305  61.576  1.00  0.00     0.076 A
HETATM   25 CL1  UNL     1       8.357  37.085  62.611  1.00  0.00    -0.076 Cl
HETATM   26  C18 UNL     1      10.282  38.979  61.810  1.00  0.00     0.051 A
HETATM   27  C19 UNL     1      10.700  39.877  60.882  1.00  0.00     0.062 A
BRANCH  27  28
HETATM   28  C20 UNL     1      11.963  40.639  61.102  1.00  0.00     0.210 C
HETATM   29  O4  UNL     1      13.057  40.343  60.624  1.00  0.00    -0.644 OA
HETATM   30  O5  UNL     1      11.969  41.789  61.910  1.00  0.00    -0.644 OA
ENDBRANCH  27  28
ENDBRANCH   5  22
TORSDOF 10
ENDMDL