MODEL 1
REMARK VINA RESULT: -8.008319754      0.000      0.000
REMARK  10 active torsions:
REMARK  status: ('A' for Active; 'I' for Inactive)
REMARK    1  A    between atoms: O1_2  and  C2_3
REMARK    2  A    between atoms: C4_5  and  C5_6
REMARK    3  A    between atoms: C6_7  and  C7_8
REMARK    4  A    between atoms: C9_11  and  O3_12
REMARK    5  A    between atoms: C10_14  and  O4_15
REMARK    6  A    between atoms: N1_17  and  C11_18
REMARK    7  A    between atoms: C11_18  and  C12_19
REMARK    8  A    between atoms: C12_19  and  C13_20
REMARK    9  A    between atoms: C20_28  and  O5_29
REMARK   10  A    between atoms: C22_31  and  O6_32
ROOT
HETATM    1  C5  UNL     1      12.902  42.741  56.608  1.00  0.00     0.065 A
HETATM    2  C6  UNL     1      12.872  44.149  56.494  1.00  0.00     0.075 A
HETATM    3  C9  UNL     1      13.403  44.616  57.677  1.00  0.00     0.133 A
HETATM    4  C10 UNL     1      13.753  43.528  58.504  1.00  0.00     0.178 A
HETATM    5  N1  UNL     1      13.430  42.429  57.806  1.00  0.00    -0.324 N
ENDROOT
BRANCH   1   6
HETATM    6  C4  UNL     1      12.520  41.847  55.532  1.00  0.00     0.019 A
HETATM    7  C3  UNL     1      13.458  41.435  54.579  1.00  0.00     0.055 A
HETATM    8  C2  UNL     1      13.142  40.640  53.505  1.00  0.00     0.105 A
HETATM    9  C22 UNL     1      11.830  40.231  53.367  1.00  0.00     0.136 A
HETATM   10  C20 UNL     1      10.858  40.616  54.289  1.00  0.00     0.127 A
HETATM   11  C19 UNL     1      11.235  41.423  55.355  1.00  0.00     0.083 A
HETATM   12 CL1  UNL     1       9.956  41.959  56.410  1.00  0.00    -0.080 Cl
BRANCH   8  13
HETATM   13  O1  UNL     1      14.051  40.219  52.551  1.00  0.00    -0.353 OA
HETATM   14  C1  UNL     1      14.367  40.952  51.393  1.00  0.00     0.210 C
ENDBRANCH   8  13
BRANCH   9  15
HETATM   15  O6  UNL     1      11.473  39.435  52.310  1.00  0.00    -0.351 OA
HETATM   16  C23 UNL     1      11.592  38.023  52.398  1.00  0.00     0.210 C
ENDBRANCH   9  15
BRANCH  10  17
HETATM   17  O5  UNL     1       9.541  40.223  54.175  1.00  0.00    -0.351 OA
HETATM   18  C21 UNL     1       9.002  39.077  54.773  1.00  0.00     0.210 C
ENDBRANCH  10  17
ENDBRANCH   1   6
BRANCH   2  19
HETATM   19  C7  UNL     1      12.359  44.900  55.367  1.00  0.00     0.160 C
HETATM   20  C8  UNL     1      13.249  45.460  54.329  1.00  0.00     0.097 C
HETATM   21  O2  UNL     1      11.123  45.131  55.190  1.00  0.00    -0.293 OA
ENDBRANCH   2  19
BRANCH   5  22
HETATM   22  C11 UNL     1      13.722  41.083  58.266  1.00  0.00     0.132 C
BRANCH  22  23
HETATM   23  C12 UNL     1      12.861  40.791  59.500  1.00  0.00     0.025 C
BRANCH  23  24
HETATM   24  C13 UNL     1      11.418  40.655  59.136  1.00  0.00    -0.013 C
HETATM   25  C14 UNL     1      10.603  41.318  60.225  1.00  0.00     0.005 C
HETATM   26  C15 UNL     1       9.121  41.300  59.888  1.00  0.00     0.000 C
HETATM   27  C16 UNL     1       8.684  39.862  59.845  1.00  0.00     0.000 C
HETATM   28  C17 UNL     1       9.829  38.890  59.953  1.00  0.00     0.000 C
HETATM   29  C18 UNL     1      10.959  39.231  59.010  1.00  0.00     0.005 C
ENDBRANCH  23  24
ENDBRANCH  22  23
ENDBRANCH   5  22
BRANCH   3  30
HETATM   30  O3  UNL     1      13.618  45.894  58.120  1.00  0.00    -0.356 OA
ATOM     31  H3  UNL     1      13.239  46.372  58.848  1.00  0.00     0.218 HD
ENDBRANCH   3  30
BRANCH   4  32
HETATM   32  O4  UNL     1      14.309  43.586  59.763  1.00  0.00    -0.344 OA
ATOM     33  H4  UNL     1      14.274  42.918  60.437  1.00  0.00     0.219 HD
ENDBRANCH   4  32
TORSDOF 10
ENDMDL