MODEL 3
REMARK VINA RESULT: -8.738259031      2.341      3.800
REMARK  9 active torsions:
REMARK  status: ('A' for Active; 'I' for Inactive)
REMARK    1  A    between atoms: C2_2  and  O1_3
REMARK    2  A    between atoms: O1_3  and  C3_4
REMARK    3  A    between atoms: C6_7  and  C7_8
REMARK    4  A    between atoms: C8_13  and  S1_14
REMARK    5  A    between atoms: S1_14  and  C9_15
REMARK    6  A    between atoms: C9_15  and  C11_17
REMARK    7  A    between atoms: C9_15  and  C12_20
REMARK    8  A    between atoms: C19_29  and  O5_30
REMARK    9  A    between atoms: O5_30  and  C20_31
ROOT
HETATM    1  C7  UNL     1      12.074  41.857  59.063  1.00  0.00     0.175 A
HETATM    2  N1  UNL     1      13.306  41.788  59.592  1.00  0.00    -0.277 N
ATOM      3  H1  UNL     1      13.605  41.158  60.337  1.00  0.00     0.189 HD
HETATM    4  N2  UNL     1      14.066  42.679  58.977  1.00  0.00    -0.272 N
ATOM      5  H2  UNL     1      15.052  42.855  59.169  1.00  0.00     0.189 HD
HETATM    6  C8  UNL     1      13.319  43.316  58.057  1.00  0.00     0.205 A
HETATM    7  O4  UNL     1      12.124  42.787  58.143  1.00  0.00    -0.267 OA
ENDROOT
BRANCH   6   8
HETATM    8  S1  UNL     1      13.904  44.608  56.974  1.00  0.00    -0.063 SA
BRANCH   8   9
HETATM    9  C9  UNL     1      13.318  44.284  55.274  1.00  0.00     0.105 C
HETATM   10  C10 UNL     1      13.173  45.616  54.539  1.00  0.00     0.040 C
BRANCH   9  11
HETATM   11  C11 UNL     1      14.411  43.544  54.593  1.00  0.00     0.193 C
HETATM   12  O2  UNL     1      14.769  43.818  53.418  1.00  0.00    -0.647 OA
HETATM   13  O3  UNL     1      15.112  42.498  55.208  1.00  0.00    -0.647 OA
ENDBRANCH   9  11
BRANCH   9  14
HETATM   14  C12 UNL     1      12.008  43.556  55.275  1.00  0.00     0.033 C
HETATM   15  C13 UNL     1      10.844  44.467  55.042  1.00  0.00     0.008 C
HETATM   16  C14 UNL     1       9.519  43.741  55.081  1.00  0.00     0.001 C
HETATM   17  C15 UNL     1       9.531  42.636  54.078  1.00  0.00     0.002 C
HETATM   18  C16 UNL     1      10.875  42.515  53.373  1.00  0.00     0.020 C
HETATM   19  C17 UNL     1      11.996  42.361  54.360  1.00  0.00     0.088 C
HETATM   20 CL1  UNL     1      11.799  40.830  55.283  1.00  0.00    -0.125 Cl
ENDBRANCH   9  14
ENDBRANCH   8   9
ENDBRANCH   6   8
BRANCH   1  21
HETATM   21  C6  UNL     1      10.927  41.034  59.463  1.00  0.00     0.019 A
HETATM   22  C5  UNL     1       9.993  40.592  58.555  1.00  0.00     0.019 A
HETATM   23  C4  UNL     1       8.909  39.815  58.954  1.00  0.00     0.040 A
HETATM   24  C3  UNL     1       8.720  39.454  60.263  1.00  0.00     0.102 A
HETATM   25  C19 UNL     1       9.673  39.905  61.187  1.00  0.00     0.102 A
HETATM   26  C18 UNL     1      10.752  40.680  60.785  1.00  0.00     0.055 A
BRANCH  24  27
HETATM   27  O1  UNL     1       7.688  38.698  60.738  1.00  0.00    -0.349 OA
BRANCH  27  28
HETATM   28  C2  UNL     1       7.175  37.509  60.252  1.00  0.00     0.171 C
HETATM   29  C1  UNL     1       6.748  36.631  61.401  1.00  0.00     0.034 C
ENDBRANCH  27  28
ENDBRANCH  24  27
BRANCH  25  30
HETATM   30  O5  UNL     1       9.491  39.548  62.499  1.00  0.00    -0.349 OA
BRANCH  30  31
HETATM   31  C20 UNL     1      10.261  38.721  63.295  1.00  0.00     0.171 C
HETATM   32  C21 UNL     1       9.926  37.279  62.994  1.00  0.00     0.034 C
ENDBRANCH  30  31
ENDBRANCH  25  30
ENDBRANCH   1  21
TORSDOF 9
ENDMDL