MODEL 3
REMARK VINA RESULT: -8.475475918      2.433      3.071
REMARK  9 active torsions:
REMARK  status: ('A' for Active; 'I' for Inactive)
REMARK    1  A    between atoms: C2_2  and  C3_3
REMARK    2  A    between atoms: C3_3  and  O1_4
REMARK    3  A    between atoms: O1_4  and  N1_5
REMARK    4  A    between atoms: N1_5  and  C4_6
REMARK    5  A    between atoms: C4_6  and  C6_8
REMARK    6  A    between atoms: C6_8  and  S1_9
REMARK    7  A    between atoms: S1_9  and  C7_10
REMARK    8  A    between atoms: C8_15  and  C9_16
REMARK    9  A    between atoms: C12_19  and  C13_20
REMARK       I    between atoms: C13_20  and  N4_22
ROOT
HETATM    1  C7  UNL     1      13.397  42.790  58.186  1.00  0.00     0.204 A
HETATM    2  N2  UNL     1      14.385  42.041  58.664  1.00  0.00    -0.272 N
ATOM      3  H2  UNL     1      15.379  42.229  58.533  1.00  0.00     0.189 HD
HETATM    4  N3  UNL     1      13.899  41.037  59.319  1.00  0.00    -0.281 N
ATOM      5  H3  UNL     1      14.438  40.307  59.784  1.00  0.00     0.189 HD
HETATM    6  C8  UNL     1      12.559  41.125  59.279  1.00  0.00     0.145 A
HETATM    7  O3  UNL     1      12.280  42.211  58.571  1.00  0.00    -0.272 OA
ENDROOT
BRANCH   1   8
HETATM    8  S1  UNL     1      13.572  44.271  57.233  1.00  0.00    -0.067 SA
BRANCH   8   9
HETATM    9  C6  UNL     1      12.986  44.197  55.561  1.00  0.00     0.070 C
HETATM   10  C17 UNL     1      11.906  43.161  55.300  1.00  0.00     0.028 C
HETATM   11  C18 UNL     1      11.349  43.484  53.917  1.00  0.00     0.002 C
HETATM   12  C19 UNL     1      12.373  43.338  52.837  1.00  0.00     0.000 C
HETATM   13  C20 UNL     1      13.744  43.788  53.167  1.00  0.00     0.002 C
HETATM   14  C21 UNL     1      14.093  43.874  54.608  1.00  0.00     0.028 C
BRANCH   9  15
HETATM   15  C4  UNL     1      12.340  45.540  55.237  1.00  0.00     0.110 C
HETATM   16  C5  UNL     1      13.249  46.502  54.507  1.00  0.00     0.084 C
BRANCH  15  17
HETATM   17  N1  UNL     1      11.241  45.860  55.514  1.00  0.00    -0.289 NA
BRANCH  17  18
HETATM   18  O1  UNL     1      10.066  46.179  55.869  1.00  0.00    -0.209 OA
BRANCH  18  19
HETATM   19  C3  UNL     1       8.834  45.575  55.492  1.00  0.00     0.217 C
BRANCH  19  20
HETATM   20  C2  UNL     1       7.832  45.452  56.607  1.00  0.00     0.025 C
HETATM   21  C1  UNL     1       6.523  46.128  56.214  1.00  0.00     0.007 C
ENDBRANCH  19  20
ENDBRANCH  18  19
ENDBRANCH  17  18
ENDBRANCH  15  17
ENDBRANCH   9  15
ENDBRANCH   8   9
ENDBRANCH   1   8
BRANCH   6  22
HETATM   22  C9  UNL     1      11.684  40.156  59.947  1.00  0.00     0.064 C
HETATM   23  C10 UNL     1      11.474  40.507  61.407  1.00  0.00     0.014 C
HETATM   24  C11 UNL     1      10.934  39.332  62.106  1.00  0.00     0.016 C
HETATM   25  C12 UNL     1      10.088  38.378  61.336  1.00  0.00     0.096 C
HETATM   26  C15 UNL     1       9.649  38.792  59.987  1.00  0.00     0.096 C
HETATM   27 CL1  UNL     1       7.883  39.136  60.015  1.00  0.00    -0.124 Cl
HETATM   28  C16 UNL     1      10.311  39.990  59.367  1.00  0.00     0.034 C
BRANCH  25  29
HETATM   29  C13 UNL     1       8.955  37.910  62.181  1.00  0.00     0.222 C
HETATM   30  O2  UNL     1       8.853  38.380  63.336  1.00  0.00    -0.273 OA
HETATM   31  N4  UNL     1       7.992  36.967  61.758  1.00  0.00    -0.365 N
HETATM   32  C14 UNL     1       6.899  36.586  62.660  1.00  0.00     0.149 C
ATOM     33  H4  UNL     1       8.056  36.552  60.828  1.00  0.00     0.161 HD
ENDBRANCH  25  29
ENDBRANCH   6  22
TORSDOF 9
ENDMDL