MODEL 2
REMARK VINA RESULT: -9.311033650      2.073      3.844
REMARK  9 active torsions:
REMARK  status: ('A' for Active; 'I' for Inactive)
REMARK    1  A    between atoms: O1_2  and  C2_3
REMARK    2  A    between atoms: C2_3  and  C3_5
REMARK    3  A    between atoms: C3_5  and  C4_6
REMARK    4  A    between atoms: C3_5  and  C6_11
REMARK    5  A    between atoms: C6_11  and  C7_13
REMARK    6  A    between atoms: C7_13  and  S1_14
REMARK    7  A    between atoms: S1_14  and  C8_15
REMARK    8  A    between atoms: C11_18  and  C12_19
REMARK    9  A    between atoms: N2_26  and  C18_27
ROOT
HETATM    1  C8  UNL     1      10.338  39.708  55.685  1.00  0.00     0.077 A
HETATM    2  C9  UNL     1       9.475  39.033  54.877  1.00  0.00     0.040 A
HETATM    3  C10 UNL     1       8.615  38.398  55.730  1.00  0.00     0.034 A
HETATM    4  C11 UNL     1       8.972  38.702  57.075  1.00  0.00     0.050 A
HETATM    5  N2  UNL     1      10.043  39.512  57.014  1.00  0.00    -0.313 N
ENDROOT
BRANCH   1   6
HETATM    6  S1  UNL     1      11.678  40.726  55.032  1.00  0.00    -0.104 SA
BRANCH   6   7
HETATM    7  C7  UNL     1      11.076  42.354  54.528  1.00  0.00     0.160 C
BRANCH   7   8
HETATM    8  C6  UNL     1      11.813  43.429  55.239  1.00  0.00     0.155 C
HETATM    9  O3  UNL     1      11.148  44.227  55.897  1.00  0.00    -0.296 OA
BRANCH   8  10
HETATM   10  C3  UNL     1      13.278  43.620  55.221  1.00  0.00     0.200 C
BRANCH  10  11
HETATM   11  C2  UNL     1      13.642  44.265  53.927  1.00  0.00     0.275 C
HETATM   12  O2  UNL     1      13.184  45.403  53.652  1.00  0.00    -0.264 OA
BRANCH  11  13
HETATM   13  O1  UNL     1      14.463  43.682  52.995  1.00  0.00    -0.326 OA
HETATM   14  C1  UNL     1      14.025  42.925  51.884  1.00  0.00     0.213 C
ENDBRANCH  11  13
ENDBRANCH  10  11
BRANCH  10  15
HETATM   15  C4  UNL     1      13.844  44.335  56.361  1.00  0.00    -0.003 C
HETATM   16  C5  UNL     1      14.213  43.652  57.635  1.00  0.00     0.064 C
HETATM   17  N1  UNL     1      14.064  45.581  56.310  1.00  0.00    -0.405 N
ATOM     18  H12 UNL     1      13.812  46.048  55.439  1.00  0.00     0.155 HD
ATOM     19  H11 UNL     1      14.459  46.081  57.106  1.00  0.00     0.155 HD
ENDBRANCH  10  15
ENDBRANCH   8  10
ENDBRANCH   7   8
ENDBRANCH   6   7
ENDBRANCH   1   6
BRANCH   5  20
HETATM   20  C18 UNL     1      10.859  40.084  58.057  1.00  0.00    -0.004 C
HETATM   21  C19 UNL     1      10.656  41.533  58.267  1.00  0.00     0.053 C
HETATM   22  C20 UNL     1      10.061  41.876  59.654  1.00  0.00     0.006 C
HETATM   23  C21 UNL     1      10.917  41.402  60.771  1.00  0.00     0.000 C
HETATM   24  C22 UNL     1      12.379  41.783  60.575  1.00  0.00     0.000 C
HETATM   25  C23 UNL     1      13.121  40.531  60.213  1.00  0.00     0.000 C
HETATM   26  C24 UNL     1      13.281  40.389  58.700  1.00  0.00     0.006 C
HETATM   27  C25 UNL     1      12.229  39.514  58.131  1.00  0.00     0.053 C
ENDBRANCH   5  20
BRANCH   4  28
HETATM   28  C12 UNL     1       8.265  38.105  58.173  1.00  0.00    -0.006 A
HETATM   29  C13 UNL     1       7.096  37.387  57.893  1.00  0.00     0.014 A
HETATM   30  C14 UNL     1       6.303  36.851  58.875  1.00  0.00     0.004 A
HETATM   31  C15 UNL     1       6.626  36.997  60.203  1.00  0.00     0.042 A
HETATM   32  C16 UNL     1       7.754  37.688  60.512  1.00  0.00     0.117 A
HETATM   33  F1  UNL     1       8.094  37.847  61.808  1.00  0.00    -0.206 F
HETATM   34  C17 UNL     1       8.553  38.231  59.481  1.00  0.00     0.056 A
ENDBRANCH   4  28
TORSDOF 9
ENDMDL