MODEL 2
REMARK VINA RESULT: -9.090782209      0.970      1.490
REMARK  8 active torsions:
REMARK  status: ('A' for Active; 'I' for Inactive)
REMARK    1  A    between atoms: O1_2  and  C2_3
REMARK    2  A    between atoms: C4_5  and  O2_6
REMARK    3  A    between atoms: C6_8  and  C7_9
REMARK    4  A    between atoms: C7_9  and  C8_11
REMARK    5  A    between atoms: C8_11  and  S1_13
REMARK    6  A    between atoms: C12_17  and  C13_18
REMARK       I    between atoms: C13_18  and  N2_20
REMARK    7  A    between atoms: N2_20  and  C14_22
REMARK    8  A    between atoms: C17_25  and  C18_26
ROOT
HETATM    1  S1  UNL     1      -1.295  36.120  53.774  1.00  0.00    -0.038 SA
HETATM    2  C10 UNL     1      -1.466  37.605  54.684  1.00  0.00     0.134 C
HETATM    3  N1  UNL     1      -1.573  38.614  55.282  1.00  0.00    -0.184 NA
ENDROOT
BRANCH   1   4
HETATM    4  C8  UNL     1       0.026  35.061  54.468  1.00  0.00     0.133 C
HETATM    5  C9  UNL     1       0.396  35.577  55.851  1.00  0.00     0.031 C
BRANCH   4   6
HETATM    6  C7  UNL     1       1.194  35.173  53.578  1.00  0.00     0.176 C
HETATM    7  O3  UNL     1       1.024  35.673  52.430  1.00  0.00    -0.291 OA
BRANCH   6   8
HETATM    8  C6  UNL     1       2.539  34.726  53.975  1.00  0.00     0.045 A
HETATM    9  C4  UNL     1       3.115  33.652  53.315  1.00  0.00     0.084 A
HETATM   10  C3  UNL     1       4.369  33.218  53.658  1.00  0.00     0.075 A
HETATM   11  C2  UNL     1       5.096  33.855  54.687  1.00  0.00     0.086 A
HETATM   12  C12 UNL     1       4.540  34.907  55.337  1.00  0.00     0.066 A
HETATM   13  C11 UNL     1       3.238  35.350  54.973  1.00  0.00     0.038 A
BRANCH   9  14
HETATM   14  O2  UNL     1       2.386  33.053  52.321  1.00  0.00    -0.355 OA
HETATM   15  C5  UNL     1       1.939  31.729  52.302  1.00  0.00     0.210 C
ENDBRANCH   9  14
BRANCH  11  16
HETATM   16  O1  UNL     1       6.350  33.383  54.993  1.00  0.00    -0.355 OA
HETATM   17  C1  UNL     1       6.953  32.419  54.167  1.00  0.00     0.210 C
ENDBRANCH  11  16
BRANCH  12  18
HETATM   18  C13 UNL     1       5.188  35.627  56.413  1.00  0.00     0.259 C
HETATM   19  O4  UNL     1       4.544  35.597  57.533  1.00  0.00    -0.267 OA
HETATM   20  N2  UNL     1       6.391  36.310  56.309  1.00  0.00    -0.320 N
ATOM     21  H2  UNL     1       6.850  36.279  55.398  1.00  0.00     0.169 HD
BRANCH  20  22
HETATM   22  C14 UNL     1       7.063  37.053  57.331  1.00  0.00     0.073 A
HETATM   23  C15 UNL     1       6.714  37.018  58.643  1.00  0.00     0.033 A
HETATM   24  C16 UNL     1       7.414  37.798  59.598  1.00  0.00     0.010 A
HETATM   25  C17 UNL     1       8.461  38.614  59.253  1.00  0.00    -0.048 A
HETATM   26  C22 UNL     1       8.781  38.620  57.909  1.00  0.00     0.052 A
HETATM   27  C23 UNL     1       8.126  37.883  56.979  1.00  0.00     0.143 A
HETATM   28  F1  UNL     1       8.525  37.960  55.695  1.00  0.00    -0.204 F
BRANCH  25  29
HETATM   29  C18 UNL     1       9.152  39.404  60.282  1.00  0.00    -0.024 C
HETATM   30  C19 UNL     1      10.607  39.546  59.810  1.00  0.00     0.019 C
HETATM   31  C20 UNL     1       8.549  40.800  60.320  1.00  0.00     0.019 C
HETATM   32  C21 UNL     1       9.146  38.800  61.647  1.00  0.00     0.019 C
ENDBRANCH  25  29
ENDBRANCH  20  22
ENDBRANCH  12  18
ENDBRANCH   6   8
ENDBRANCH   4   6
ENDBRANCH   1   4
TORSDOF 8
ENDMDL