MODEL 1
REMARK VINA RESULT: -8.645887066      0.000      0.000
REMARK  8 active torsions:
REMARK  status: ('A' for Active; 'I' for Inactive)
REMARK    1  A    between atoms: C2_2  and  C3_3
REMARK    2  A    between atoms: C3_3  and  C4_4
REMARK    3  A    between atoms: C4_4  and  C5_5
REMARK    4  A    between atoms: N1_9  and  C8_10
REMARK    5  A    between atoms: C11_18  and  O1_19
REMARK    6  A    between atoms: O1_19  and  C12_20
REMARK    7  A    between atoms: C12_20  and  C13_21
REMARK    8  A    between atoms: N5_30  and  C21_32
ROOT
HETATM    1  C5  UNL     1      11.080  40.508  60.013  1.00  0.00     0.052 C
HETATM    2  C6  UNL     1      10.443  41.773  59.526  1.00  0.00     0.074 C
HETATM    3  C7  UNL     1      10.328  41.830  58.001  1.00  0.00     0.274 C
HETATM    4  F1  UNL     1       9.648  42.989  57.661  1.00  0.00    -0.227 F
HETATM    5  N1  UNL     1      11.609  41.725  57.353  1.00  0.00    -0.332 N
HETATM    6  C19 UNL     1      12.520  40.608  57.383  1.00  0.00     0.137 C
HETATM    7  C20 UNL     1      13.586  40.734  58.452  1.00  0.00     0.094 C
HETATM    8  S1  UNL     1      12.896  40.758  60.106  1.00  0.00    -0.163 SA
ENDROOT
BRANCH   5   9
HETATM    9  C8  UNL     1      12.054  42.840  56.568  1.00  0.00     0.159 A
HETATM   10  N2  UNL     1      12.786  43.825  57.139  1.00  0.00    -0.326 N
HETATM   11  C9  UNL     1      13.214  44.897  56.454  1.00  0.00     0.133 A
ATOM     12  H2  UNL     1      13.022  43.750  58.129  1.00  0.00     0.168 HD
HETATM   13  N3  UNL     1      13.977  45.915  57.068  1.00  0.00    -0.081 NA
HETATM   14  C10 UNL     1      12.900  45.006  55.119  1.00  0.00     0.135 A
HETATM   15  N4  UNL     1      12.178  44.057  54.511  1.00  0.00    -0.341 N
HETATM   16  C11 UNL     1      11.752  42.974  55.223  1.00  0.00     0.187 A
ATOM     17  H4  UNL     1      11.948  44.143  53.521  1.00  0.00     0.167 HD
BRANCH  16  18
HETATM   18  O1  UNL     1      11.012  41.970  54.656  1.00  0.00    -0.333 OA
BRANCH  18  19
HETATM   19  C12 UNL     1      11.290  41.217  53.518  1.00  0.00     0.182 C
BRANCH  19  20
HETATM   20  C13 UNL     1      12.395  40.198  53.688  1.00  0.00     0.010 C
HETATM   21  C14 UNL     1      13.678  40.663  53.044  1.00  0.00     0.007 C
HETATM   22  C15 UNL     1      13.783  40.347  51.594  1.00  0.00     0.000 C
HETATM   23  C16 UNL     1      13.639  38.841  51.403  1.00  0.00     0.000 C
HETATM   24  C17 UNL     1      12.240  38.489  51.843  1.00  0.00     0.000 C
HETATM   25  C18 UNL     1      11.978  38.829  53.267  1.00  0.00     0.007 C
ENDBRANCH  19  20
ENDBRANCH  18  19
ENDBRANCH  16  18
ENDBRANCH   5   9
BRANCH   1  26
HETATM   26  C4  UNL     1      10.626  40.133  61.408  1.00  0.00     0.021 C
BRANCH  26  27
HETATM   27  C3  UNL     1       9.143  39.817  61.329  1.00  0.00     0.053 C
BRANCH  27  28
HETATM   28  C2  UNL     1       8.859  38.374  61.351  1.00  0.00    -0.022 C
HETATM   29  C1  UNL     1       9.503  37.593  62.474  1.00  0.00     0.062 C
HETATM   30  N5  UNL     1       8.155  37.707  60.558  1.00  0.00    -0.393 N
ATOM     31  H5  UNL     1       8.097  36.710  60.763  1.00  0.00     0.159 HD
BRANCH  30  32
HETATM   32  C21 UNL     1       7.430  38.129  59.423  1.00  0.00     0.073 C
HETATM   33  C22 UNL     1       6.389  37.172  58.960  1.00  0.00     0.031 C
HETATM   34  C23 UNL     1       8.390  38.379  58.257  1.00  0.00     0.031 C
ENDBRANCH  30  32
ENDBRANCH  27  28
ENDBRANCH  26  27
ENDBRANCH   1  26
TORSDOF 8
ENDMDL