MODEL 1
REMARK VINA RESULT: -8.162299914      0.000      0.000
REMARK  13 active torsions:
REMARK  status: ('A' for Active; 'I' for Inactive)
REMARK    1  A    between atoms: C2_2  and  O1_3
REMARK    2  A    between atoms: C2_2  and  N1_5
REMARK    3  A    between atoms: N1_5  and  C3_7
REMARK    4  A    between atoms: C6_14  and  N4_15
REMARK    5  A    between atoms: N4_15  and  C7_16
REMARK    6  A    between atoms: N4_15  and  C9_23
REMARK    7  A    between atoms: C7_16  and  S1_17
REMARK    8  A    between atoms: S1_17  and  C8_18
REMARK    9  A    between atoms: C9_23  and  C10_29
REMARK   10  A    between atoms: N7_24  and  N8_26
REMARK   11  A    between atoms: N10_32  and  O4_33
REMARK   12  A    between atoms: C12_36  and  N11_37
REMARK   13  A    between atoms: N11_37  and  S2_39
ROOT
HETATM    1  C3  UNL     1      66.726  55.146  43.320  1.00  0.00     0.067 A
HETATM    2  C4  UNL     1      65.991  56.072  44.016  1.00  0.00     0.108 A
HETATM    3  C5  UNL     1      66.208  57.434  43.842  1.00  0.00     0.270 A
HETATM    4  O2  UNL     1      65.519  58.236  44.491  1.00  0.00    -0.266 OA
HETATM    5  N2  UNL     1      67.160  57.844  42.972  1.00  0.00    -0.184 N
HETATM    6  N3  UNL     1      67.510  59.066  42.685  1.00  0.00    -0.118 N
ATOM      7  H3  UNL     1      67.108  59.919  43.074  1.00  0.00     0.206 HD
HETATM    8  C6  UNL     1      68.499  58.991  41.781  1.00  0.00     0.734 A
HETATM    9  N10 UNL     1      68.731  57.695  41.536  1.00  0.00    -0.029 N
HETATM   10  C11 UNL     1      67.891  56.939  42.281  1.00  0.00     0.206 A
HETATM   11  C12 UNL     1      67.712  55.593  42.420  1.00  0.00     0.120 A
ENDROOT
BRANCH   8  12
HETATM   12  N4  UNL     1      69.159  60.145  41.212  1.00  0.00    -0.126 N
BRANCH  12  13
HETATM   13  C7  UNL     1      68.906  60.399  39.826  1.00  0.00     0.170 C
BRANCH  13  14
HETATM   14  S1  UNL     1      70.247  60.146  38.691  1.00  0.00    -0.051 SA
BRANCH  14  15
HETATM   15  C8  UNL     1      69.876  59.010  37.369  1.00  0.00     0.153 C
HETATM   16  N5  UNL     1      69.733  59.349  36.141  1.00  0.00    -0.382 N
ATOM     17  H52 UNL     1      69.836  60.327  35.873  1.00  0.00     0.157 HD
ATOM     18  H51 UNL     1      69.520  58.698  35.384  1.00  0.00     0.157 HD
HETATM   19  N6  UNL     1      69.732  57.641  37.744  1.00  0.00    -0.075 NA
ENDBRANCH  14  15
ENDBRANCH  13  14
ENDBRANCH  12  13
BRANCH  12  20
HETATM   20  C9  UNL     1      70.011  60.868  42.070  1.00  0.00     0.208 C
HETATM   21  N7  UNL     1      69.653  61.858  42.789  1.00  0.00    -0.287 N
ATOM     22  H7  UNL     1      70.400  62.265  43.352  1.00  0.00     0.188 HD
BRANCH  21  23
HETATM   23  N8  UNL     1      68.445  62.460  42.931  1.00  0.00    -0.343 N
ATOM     24  H82 UNL     1      68.361  63.327  42.399  1.00  0.00     0.176 HD
ATOM     25  H81 UNL     1      67.625  62.189  43.473  1.00  0.00     0.176 HD
ENDBRANCH  21  23
BRANCH  20  26
HETATM   26  C10 UNL     1      71.417  60.501  42.164  1.00  0.00     0.301 C
HETATM   27  N9  UNL     1      71.965  59.560  43.056  1.00  0.00    -0.054 NA
HETATM   28  O3  UNL     1      72.292  61.048  41.392  1.00  0.00    -0.268 OA
ENDBRANCH  20  26
ENDBRANCH  12  20
ENDBRANCH   8  12
BRANCH   9  29
HETATM   29  O4  UNL     1      69.687  57.207  40.675  1.00  0.00    -0.268 OA
ATOM     30  H4  UNL     1      69.513  56.689  39.898  1.00  0.00     0.246 HD
ENDBRANCH   9  29
BRANCH  11  31
HETATM   31  N11 UNL     1      68.433  54.619  41.697  1.00  0.00    -0.260 N
ATOM     32  H11 UNL     1      69.209  54.166  42.178  1.00  0.00     0.181 HD
BRANCH  31  33
HETATM   33  S2  UNL     1      68.124  54.130  40.087  1.00  0.00     0.209 S
HETATM   34  O5  UNL     1      69.209  54.660  39.159  1.00  0.00    -0.578 OA
HETATM   35  O6  UNL     1      68.242  52.626  39.991  1.00  0.00    -0.578 OA
HETATM   36  O7  UNL     1      66.671  54.665  39.484  1.00  0.00    -0.578 OA
ENDBRANCH  31  33
ENDBRANCH  11  31
BRANCH   1  37
HETATM   37  N1  UNL     1      66.499  53.767  43.507  1.00  0.00    -0.362 N
ATOM     38  H1  UNL     1      67.116  53.284  44.160  1.00  0.00     0.162 HD
BRANCH  37  39
HETATM   39  C2  UNL     1      65.485  52.974  42.868  1.00  0.00     0.213 C
HETATM   40  C1  UNL     1      65.104  51.813  43.782  1.00  0.00     0.063 C
BRANCH  39  41
HETATM   41  O1  UNL     1      65.913  52.490  41.619  1.00  0.00    -0.377 OA
ATOM     42  H1  UNL     1      66.858  52.393  41.610  1.00  0.00     0.212 HD
ENDBRANCH  39  41
ENDBRANCH  37  39
ENDBRANCH   1  37
TORSDOF 13
ENDMDL