MODEL 2
REMARK VINA RESULT: -7.563850608      2.202      5.549
REMARK  17 active torsions:
REMARK  status: ('A' for Active; 'I' for Inactive)
REMARK    1  A    between atoms: O1_2  and  C2_3
REMARK    2  A    between atoms: C2_3  and  C3_4
REMARK       I    between atoms: C3_4  and  N1_6
REMARK    3  A    between atoms: C4_7  and  O3_8
REMARK    4  A    between atoms: C5_10  and  N2_11
REMARK    5  A    between atoms: C7_18  and  N5_19
REMARK    6  A    between atoms: C8_22  and  C9_23
REMARK    7  A    between atoms: C9_23  and  O6_24
REMARK    8  A    between atoms: C9_23  and  N6_26
REMARK    9  A    between atoms: N6_26  and  C10_28
REMARK   10  A    between atoms: C10_28  and  C11_29
REMARK   11  A    between atoms: C10_28  and  C12_34
REMARK   12  A    between atoms: C11_29  and  N7_30
REMARK   13  A    between atoms: C12_34  and  N8_35
REMARK   14  A    between atoms: C12_34  and  O7_39
REMARK   15  A    between atoms: C13_41  and  N9_42
REMARK       I    between atoms: N9_42  and  C14_44
REMARK   16  A    between atoms: C14_44  and  O9_46
REMARK   17  A    between atoms: C16_48  and  N10_49
ROOT
HETATM    1  C3  UNL     1      70.058  59.968  39.622  1.00  0.00     0.255 C
HETATM    2  O2  UNL     1      70.679  60.993  39.994  1.00  0.00    -0.270 OA
HETATM    3  N1  UNL     1      69.739  59.000  40.618  1.00  0.00    -0.242 N
HETATM    4  C4  UNL     1      69.085  57.888  40.313  1.00  0.00     0.179 A
HETATM    5  C5  UNL     1      68.766  56.924  41.308  1.00  0.00     0.109 A
HETATM    6  C8  UNL     1      69.115  57.090  42.620  1.00  0.00     0.076 A
HETATM    7  C13 UNL     1      69.811  58.284  42.903  1.00  0.00     0.098 A
HETATM    8  C16 UNL     1      70.089  59.181  41.895  1.00  0.00     0.138 A
ENDROOT
BRANCH   6   9
HETATM    9  C9  UNL     1      68.807  56.238  43.708  1.00  0.00     0.151 C
BRANCH   9  10
HETATM   10  O6  UNL     1      69.839  55.612  44.231  1.00  0.00    -0.346 OA
ATOM     11  H6  UNL     1      70.153  55.973  45.051  1.00  0.00     0.219 HD
ENDBRANCH   9  10
BRANCH   9  12
HETATM   12  N6  UNL     1      67.675  55.862  44.399  1.00  0.00    -0.360 N
ATOM     13  H6  UNL     1      67.424  54.874  44.445  1.00  0.00     0.162 HD
BRANCH  12  14
HETATM   14  C10 UNL     1      66.811  56.864  45.078  1.00  0.00     0.164 C
BRANCH  14  15
HETATM   15  C11 UNL     1      65.730  56.167  45.853  1.00  0.00     0.259 C
BRANCH  15  16
HETATM   16  N7  UNL     1      65.229  56.962  46.951  1.00  0.00    -0.077 N
ATOM     17  H73 UNL     1      64.974  57.899  46.639  1.00  0.00     0.274 HD
ATOM     18  H72 UNL     1      64.311  56.632  47.252  1.00  0.00     0.274 HD
ATOM     19  H71 UNL     1      65.878  57.003  47.737  1.00  0.00     0.274 HD
ENDBRANCH  15  16
ENDBRANCH  14  15
BRANCH  14  20
HETATM   20  C12 UNL     1      66.287  57.859  44.094  1.00  0.00     0.340 C
BRANCH  20  21
HETATM   21  N8  UNL     1      65.232  57.226  43.341  1.00  0.00    -0.051 N
ATOM     22  H83 UNL     1      65.391  56.229  43.201  1.00  0.00     0.277 HD
ATOM     23  H82 UNL     1      64.361  57.154  43.866  1.00  0.00     0.277 HD
ATOM     24  H81 UNL     1      65.123  57.735  42.464  1.00  0.00     0.277 HD
ENDBRANCH  20  21
BRANCH  20  25
HETATM   25  O7  UNL     1      65.757  58.934  44.841  1.00  0.00    -0.368 OA
ATOM     26  H7  UNL     1      66.358  59.663  44.739  1.00  0.00     0.212 HD
ENDBRANCH  20  25
ENDBRANCH  14  20
ENDBRANCH  12  14
ENDBRANCH   9  12
ENDBRANCH   6   9
BRANCH   5  27
HETATM   27  N2  UNL     1      68.024  55.794  40.848  1.00  0.00    -0.270 N
HETATM   28  C6  UNL     1      68.299  54.696  40.014  1.00  0.00     0.182 C
HETATM   29  N3  UNL     1      69.292  54.346  39.203  1.00  0.00    -0.371 N
HETATM   30  N4  UNL     1      67.080  54.099  40.385  1.00  0.00    -0.319 N
ATOM     31  H32 UNL     1      70.175  54.779  38.934  1.00  0.00     0.159 HD
ATOM     32  H31 UNL     1      69.491  53.550  38.598  1.00  0.00     0.159 HD
HETATM   33  C7  UNL     1      66.676  55.352  40.985  1.00  0.00     0.370 C
ATOM     34  H4  UNL     1      66.660  53.175  40.276  1.00  0.00     0.166 HD
BRANCH  33  35
HETATM   35  N5  UNL     1      65.672  55.923  40.103  1.00  0.00    -0.109 N
HETATM   36  O4  UNL     1      64.529  56.073  40.538  1.00  0.00    -0.533 OA
HETATM   37  O5  UNL     1      65.951  56.292  38.819  1.00  0.00    -0.533 OA
ENDBRANCH  33  35
ENDBRANCH   5  27
BRANCH   7  38
HETATM   38  N9  UNL     1      70.267  58.552  44.217  1.00  0.00    -0.298 N
HETATM   39  C14 UNL     1      71.603  58.113  44.537  1.00  0.00     0.364 C
HETATM   40  O8  UNL     1      72.338  57.523  43.706  1.00  0.00    -0.238 OA
ATOM     41  H9  UNL     1      69.682  59.030  44.902  1.00  0.00     0.171 HD
BRANCH  39  42
HETATM   42  O9  UNL     1      72.143  58.331  45.806  1.00  0.00    -0.309 OA
HETATM   43  C15 UNL     1      71.347  58.275  46.986  1.00  0.00     0.215 C
ENDBRANCH  39  42
ENDBRANCH   7  38
BRANCH   4  44
HETATM   44  O3  UNL     1      68.670  57.584  39.026  1.00  0.00    -0.344 OA
ATOM     45  H3  UNL     1      67.789  57.751  38.712  1.00  0.00     0.219 HD
ENDBRANCH   4  44
BRANCH   8  46
HETATM   46  N10 UNL     1      70.728  60.266  42.197  1.00  0.00    -0.383 N
ATOM     47 2H10 UNL     1      71.606  60.461  41.717  1.00  0.00     0.157 HD
ATOM     48 1H10 UNL     1      70.320  60.877  42.904  1.00  0.00     0.157 HD
ENDBRANCH   8  46
BRANCH   1  49
HETATM   49  C2  UNL     1      69.701  59.829  38.201  1.00  0.00     0.270 C
BRANCH  49  50
HETATM   50  O1  UNL     1      70.743  59.167  37.529  1.00  0.00    -0.387 OA
HETATM   51  C1  UNL     1      70.310  58.939  36.233  1.00  0.00     0.202 C
ENDBRANCH  49  50
ENDBRANCH   1  49
TORSDOF 17
ENDMDL