MODEL 3
REMARK VINA RESULT: -8.893047303      2.163      3.387
REMARK  13 active torsions:
REMARK  status: ('A' for Active; 'I' for Inactive)
REMARK    1  A    between atoms: N1_1  and  C1_4
REMARK    2  A    between atoms: C2_7  and  N3_8
REMARK    3  A    between atoms: N5_18  and  C9_19
REMARK    4  A    between atoms: C9_19  and  C10_20
REMARK    5  A    between atoms: C10_20  and  O2_21
REMARK    6  A    between atoms: C10_20  and  C11_23
REMARK    7  A    between atoms: C11_23  and  O3_24
REMARK    8  A    between atoms: C11_23  and  C12_26
REMARK    9  A    between atoms: C12_26  and  O4_27
REMARK   10  A    between atoms: O4_27  and  N6_28
REMARK   11  A    between atoms: N6_28  and  C13_30
REMARK   12  A    between atoms: C14_33  and  N8_34
REMARK   13  A    between atoms: N8_34  and  N9_36
ROOT
HETATM    1  C11 UNL     1      69.839  60.947  40.684  1.00  0.00     0.174 C
ENDROOT
BRANCH   1   2
HETATM    2  C10 UNL     1      69.782  60.577  39.261  1.00  0.00     0.167 C
BRANCH   2   3
HETATM    3  C9  UNL     1      68.731  59.693  38.745  1.00  0.00     0.165 C
BRANCH   3   4
HETATM    4  N5  UNL     1      69.111  58.578  37.933  1.00  0.00    -0.324 N
HETATM    5  C8  UNL     1      69.548  58.590  36.649  1.00  0.00     0.185 A
HETATM    6  N4  UNL     1      69.756  57.342  36.247  1.00  0.00    -0.346 N
HETATM    7  C7  UNL     1      69.463  56.503  37.244  1.00  0.00     0.123 A
ATOM      8  H4  UNL     1      70.087  57.067  35.322  1.00  0.00     0.167 HD
HETATM    9  C2  UNL     1      69.509  55.115  37.378  1.00  0.00     0.150 A
HETATM   10  C18 UNL     1      69.060  57.293  38.300  1.00  0.00     0.155 A
HETATM   11  N2  UNL     1      69.151  54.600  38.550  1.00  0.00    -0.175 N
HETATM   12  C1  UNL     1      68.755  55.333  39.598  1.00  0.00     0.679 A
ATOM     13  H2  UNL     1      69.180  53.586  38.657  1.00  0.00     0.186 HD
HETATM   14  N14 UNL     1      68.712  56.665  39.466  1.00  0.00    -0.174 N
ATOM     15  H14 UNL     1      68.410  57.230  40.260  1.00  0.00     0.186 HD
BRANCH   9  16
HETATM   16  N3  UNL     1      69.928  54.374  36.264  1.00  0.00    -0.361 N
HETATM   17  C3  UNL     1      69.028  53.408  35.679  1.00  0.00     0.150 C
HETATM   18  C4  UNL     1      68.784  53.845  34.244  1.00  0.00     0.187 C
HETATM   19  O1  UNL     1      69.771  54.667  33.760  1.00  0.00    -0.388 OA
HETATM   20  C5  UNL     1      71.048  54.328  34.164  1.00  0.00     0.187 C
HETATM   21  C6  UNL     1      71.232  54.536  35.669  1.00  0.00     0.150 C
ENDBRANCH   9  16
BRANCH  12  22
HETATM   22  N1  UNL     1      68.417  54.754  40.725  1.00  0.00    -0.234 N
ATOM     23  H12 UNL     1      68.863  55.014  41.604  1.00  0.00     0.174 HD
ATOM     24  H11 UNL     1      67.697  54.031  40.741  1.00  0.00     0.174 HD
ENDBRANCH  12  22
ENDBRANCH   3   4
ENDBRANCH   2   3
BRANCH   2  25
HETATM   25  O2  UNL     1      69.957  61.710  38.410  1.00  0.00    -0.391 OA
ATOM     26  H2  UNL     1      70.819  61.704  38.013  1.00  0.00     0.210 HD
ENDBRANCH   2  25
ENDBRANCH   1   2
BRANCH   1  27
HETATM   27  O3  UNL     1      68.738  60.695  41.461  1.00  0.00    -0.391 OA
ATOM     28  H3  UNL     1      68.450  59.794  41.550  1.00  0.00     0.210 HD
ENDBRANCH   1  27
BRANCH   1  29
HETATM   29  C12 UNL     1      71.107  60.560  41.399  1.00  0.00     0.235 C
BRANCH  29  30
HETATM   30  O4  UNL     1      70.852  60.535  42.793  1.00  0.00    -0.276 OA
BRANCH  30  31
HETATM   31  N6  UNL     1      71.674  59.911  43.696  1.00  0.00    -0.248 N
ATOM     32  H6  UNL     1      72.567  60.349  43.926  1.00  0.00     0.196 HD
BRANCH  31  33
HETATM   33  C13 UNL     1      71.370  58.798  44.267  1.00  0.00     0.171 A
HETATM   34  N7  UNL     1      72.163  58.281  45.193  1.00  0.00    -0.171 N
HETATM   35  C14 UNL     1      71.892  57.115  45.824  1.00  0.00     0.699 A
ATOM     36  H7  UNL     1      73.016  58.783  45.440  1.00  0.00     0.186 HD
HETATM   37  N10 UNL     1      70.768  56.454  45.496  1.00  0.00    -0.173 N
HETATM   38  C15 UNL     1      69.931  56.957  44.551  1.00  0.00     0.154 A
ATOM     39  H10 UNL     1      70.543  55.573  45.958  1.00  0.00     0.186 HD
HETATM   40  N11 UNL     1      68.761  56.524  44.029  1.00  0.00    -0.314 N
HETATM   41  C17 UNL     1      70.200  58.147  43.899  1.00  0.00     0.126 A
HETATM   42  C16 UNL     1      68.321  57.403  43.098  1.00  0.00     0.194 A
ATOM     43  H11 UNL     1      68.281  55.664  44.296  1.00  0.00     0.170 HD
HETATM   44  N12 UNL     1      67.122  57.271  42.343  1.00  0.00    -0.063 NA
HETATM   45  N13 UNL     1      69.215  58.407  43.020  1.00  0.00    -0.324 N
ATOM     46  H13 UNL     1      69.155  59.219  42.405  1.00  0.00     0.169 HD
BRANCH  35  47
HETATM   47  N8  UNL     1      72.779  56.609  46.807  1.00  0.00    -0.138 N
ATOM     48  H8  UNL     1      72.659  56.880  47.783  1.00  0.00     0.205 HD
BRANCH  47  49
HETATM   49  N9  UNL     1      73.804  55.754  46.457  1.00  0.00    -0.331 N
ATOM     50  H92 UNL     1      73.649  55.087  45.701  1.00  0.00     0.177 HD
ATOM     51  H91 UNL     1      74.700  55.789  46.943  1.00  0.00     0.177 HD
ENDBRANCH  47  49
ENDBRANCH  35  47
ENDBRANCH  31  33
ENDBRANCH  30  31
ENDBRANCH  29  30
ENDBRANCH   1  29
TORSDOF 13
ENDMDL