MODEL 5
REMARK VINA RESULT: -8.065951913      2.866      5.570
REMARK  15 active torsions:
REMARK  status: ('A' for Active; 'I' for Inactive)
REMARK    1  A    between atoms: O1_2  and  C2_3
REMARK    2  A    between atoms: C2_3  and  C3_5
REMARK    3  A    between atoms: C3_5  and  C4_6
REMARK    4  A    between atoms: C3_5  and  N3_13
REMARK    5  A    between atoms: C7_16  and  C8_17
REMARK    6  A    between atoms: C9_20  and  C10_21
REMARK    7  A    between atoms: C10_21  and  C11_22
REMARK    8  A    between atoms: C11_22  and  N8_28
REMARK    9  A    between atoms: N6_23  and  N7_25
REMARK   10  A    between atoms: N8_28  and  C12_30
REMARK   11  A    between atoms: C12_30  and  C13_31
REMARK   12  A    between atoms: C16_34  and  N9_35
REMARK   13  A    between atoms: C17_40  and  O3_41
REMARK   14  A    between atoms: N12_46  and  N13_47
REMARK   15  A    between atoms: C18_50  and  N14_51
ROOT
HETATM    1  C8  UNL     1      69.400  57.151  36.534  1.00  0.00     0.220 A
HETATM    2  N5  UNL     1      69.421  57.520  37.876  1.00  0.00    -0.320 N
ATOM      3  H5  UNL     1      69.852  56.974  38.621  1.00  0.00     0.169 HD
HETATM    4  C9  UNL     1      68.796  58.692  38.053  1.00  0.00     0.111 A
HETATM    5  N11 UNL     1      68.399  59.039  36.823  1.00  0.00    -0.246 N
ATOM      6  H11 UNL     1      67.886  59.885  36.572  1.00  0.00     0.196 HD
HETATM    7  O4  UNL     1      68.798  58.074  35.977  1.00  0.00    -0.214 OA
ENDROOT
BRANCH   1   8
HETATM    8  C7  UNL     1      70.010  55.835  36.206  1.00  0.00     0.213 A
HETATM    9  N4  UNL     1      70.983  55.540  35.379  1.00  0.00    -0.262 N
HETATM   10  N3  UNL     1      71.172  54.200  35.331  1.00  0.00    -0.100 N
ATOM     11  H4  UNL     1      71.522  56.224  34.846  1.00  0.00     0.189 HD
HETATM   12  C18 UNL     1      70.305  53.622  36.145  1.00  0.00     0.716 A
HETATM   13  N12 UNL     1      69.571  54.676  36.704  1.00  0.00    -0.069 N
BRANCH  10  14
HETATM   14  C3  UNL     1      72.159  53.524  34.530  1.00  0.00     0.277 C
BRANCH  14  15
HETATM   15  C2  UNL     1      73.569  53.663  35.009  1.00  0.00     0.290 C
HETATM   16  O2  UNL     1      73.996  54.508  35.770  1.00  0.00    -0.262 OA
BRANCH  15  17
HETATM   17  O1  UNL     1      74.502  52.714  34.535  1.00  0.00    -0.325 OA
HETATM   18  C1  UNL     1      75.639  52.280  35.211  1.00  0.00     0.213 C
ENDBRANCH  15  17
ENDBRANCH  14  15
BRANCH  14  19
HETATM   19  C4  UNL     1      72.050  53.739  33.104  1.00  0.00     0.061 A
HETATM   20  C5  UNL     1      70.949  53.675  32.255  1.00  0.00     0.116 A
HETATM   21  N1  UNL     1      71.305  53.968  30.976  1.00  0.00    -0.360 N
HETATM   22  C6  UNL     1      72.623  54.214  31.039  1.00  0.00     0.180 A
ATOM     23  H1  UNL     1      70.705  53.995  30.152  1.00  0.00     0.166 HD
HETATM   24  N2  UNL     1      73.058  54.077  32.270  1.00  0.00    -0.352 N
ATOM     25  H2  UNL     1      74.027  54.208  32.559  1.00  0.00     0.166 HD
ENDBRANCH  14  19
ENDBRANCH  10  14
BRANCH  12  26
HETATM   26  N14 UNL     1      69.952  52.421  36.403  1.00  0.00    -0.231 N
ATOM     27 2H14 UNL     1      69.558  51.852  35.653  1.00  0.00     0.174 HD
ATOM     28 1H14 UNL     1      70.049  51.785  37.195  1.00  0.00     0.174 HD
ENDBRANCH  12  26
BRANCH  13  29
HETATM   29  N13 UNL     1      68.606  54.498  37.680  1.00  0.00    -0.322 N
ATOM     30 2H13 UNL     1      67.745  55.042  37.723  1.00  0.00     0.178 HD
ATOM     31 1H13 UNL     1      68.597  53.790  38.414  1.00  0.00     0.178 HD
ENDBRANCH  13  29
ENDBRANCH   1   8
BRANCH   4  32
HETATM   32  C10 UNL     1      68.647  59.365  39.371  1.00  0.00     0.155 C
BRANCH  32  33
HETATM   33  C11 UNL     1      69.909  59.789  39.984  1.00  0.00     0.098 C
HETATM   34  N6  UNL     1      70.704  60.662  39.366  1.00  0.00    -0.295 N
ATOM     35  H6  UNL     1      70.496  61.071  38.456  1.00  0.00     0.187 HD
BRANCH  34  36
HETATM   36  N7  UNL     1      71.885  60.963  40.123  1.00  0.00    -0.344 N
ATOM     37  H72 UNL     1      72.409  60.255  40.636  1.00  0.00     0.176 HD
ATOM     38  H71 UNL     1      72.132  61.952  40.087  1.00  0.00     0.176 HD
ENDBRANCH  34  36
BRANCH  33  39
HETATM   39  N8  UNL     1      70.261  59.242  41.204  1.00  0.00    -0.374 N
ATOM     40  H8  UNL     1      70.960  58.500  41.182  1.00  0.00     0.161 HD
BRANCH  39  41
HETATM   41  C12 UNL     1      69.738  59.613  42.539  1.00  0.00     0.164 C
BRANCH  41  42
HETATM   42  C13 UNL     1      70.585  58.742  43.468  1.00  0.00     0.010 A
HETATM   43  C14 UNL     1      70.059  57.654  44.096  1.00  0.00     0.017 A
HETATM   44  C15 UNL     1      70.872  56.887  44.913  1.00  0.00     0.049 A
HETATM   45  C16 UNL     1      72.193  57.195  45.096  1.00  0.00     0.100 A
HETATM   46  N10 UNL     1      72.686  58.309  44.444  1.00  0.00    -0.323 N
HETATM   47  C17 UNL     1      71.888  59.085  43.636  1.00  0.00     0.149 A
ATOM     48  H10 UNL     1      73.666  58.562  44.563  1.00  0.00     0.169 HD
BRANCH  45  49
HETATM   49  N9  UNL     1      73.009  56.472  45.763  1.00  0.00    -0.385 N
ATOM     50  H92 UNL     1      73.087  55.484  45.523  1.00  0.00     0.157 HD
ATOM     51  H91 UNL     1      73.541  56.806  46.566  1.00  0.00     0.157 HD
ENDBRANCH  45  49
BRANCH  47  52
HETATM   52  O3  UNL     1      72.458  60.191  43.031  1.00  0.00    -0.346 OA
ATOM     53  H3  UNL     1      72.600  60.250  42.094  1.00  0.00     0.219 HD
ENDBRANCH  47  52
ENDBRANCH  41  42
ENDBRANCH  39  41
ENDBRANCH  33  39
ENDBRANCH  32  33
ENDBRANCH   4  32
TORSDOF 15
ENDMDL