MODEL 4
REMARK VINA RESULT: -8.351370951      1.199      1.399
REMARK  11 active torsions:
REMARK  status: ('A' for Active; 'I' for Inactive)
REMARK       I    between atoms: N1_2  and  C2_4
REMARK       I    between atoms: C2_4  and  N2_6
REMARK    1  A    between atoms: C5_12  and  C6_13
REMARK    2  A    between atoms: C6_13  and  O2_14
REMARK    3  A    between atoms: C6_13  and  C7_16
REMARK    4  A    between atoms: C6_13  and  C8_23
REMARK    5  A    between atoms: C7_16  and  O4_18
REMARK    6  A    between atoms: O4_18  and  N5_19
REMARK    7  A    between atoms: N5_19  and  N6_20
REMARK    8  A    between atoms: C11_32  and  N10_33
REMARK    9  A    between atoms: C13_37  and  N11_38
REMARK       I    between atoms: N11_38  and  C14_40
REMARK   10  A    between atoms: C14_40  and  C15_42
REMARK   11  A    between atoms: C15_42  and  S1_43
ROOT
HETATM    1  C8  UNL     1      68.704  57.472  41.608  1.00  0.00     0.090 A
HETATM    2  N7  UNL     1      67.810  57.394  42.615  1.00  0.00    -0.340 N
ATOM      3  H7  UNL     1      67.673  58.131  43.307  1.00  0.00     0.167 HD
HETATM    4  C9  UNL     1      67.119  56.242  42.608  1.00  0.00     0.123 A
HETATM    5  N8  UNL     1      66.153  55.703  43.372  1.00  0.00    -0.338 N
ATOM      6  H8  UNL     1      65.810  56.237  44.170  1.00  0.00     0.168 HD
HETATM    7  C10 UNL     1      65.620  54.495  43.135  1.00  0.00     0.183 A
HETATM    8  N9  UNL     1      66.073  53.792  42.087  1.00  0.00    -0.338 N
ATOM      9  H9  UNL     1      65.686  52.871  41.884  1.00  0.00     0.168 HD
HETATM   10  C11 UNL     1      67.037  54.301  41.303  1.00  0.00     0.116 A
HETATM   11  C12 UNL     1      67.598  55.546  41.534  1.00  0.00     0.080 A
HETATM   12  C13 UNL     1      68.569  56.252  40.885  1.00  0.00     0.079 A
ENDROOT
BRANCH   1  13
HETATM   13  C6  UNL     1      69.397  58.635  41.094  1.00  0.00     0.239 C
BRANCH  13  14
HETATM   14  C5  UNL     1      70.375  59.429  41.769  1.00  0.00     0.114 A
HETATM   15  N2  UNL     1      70.933  59.376  43.004  1.00  0.00    -0.257 N
HETATM   16  C2  UNL     1      70.787  58.476  44.079  1.00  0.00     0.327 C
HETATM   17  C3  UNL     1      71.953  60.317  42.984  1.00  0.00     0.194 A
HETATM   18  N1  UNL     1      71.693  58.606  45.214  1.00  0.00    -0.347 N
HETATM   19  O1  UNL     1      70.006  57.552  44.258  1.00  0.00    -0.246 OA
HETATM   20  C1  UNL     1      71.571  57.695  46.335  1.00  0.00     0.151 C
ATOM     21  H1  UNL     1      72.408  59.333  45.219  1.00  0.00     0.163 HD
HETATM   22  N3  UNL     1      72.032  60.896  41.820  1.00  0.00    -0.339 N
HETATM   23  C4  UNL     1      71.118  60.422  41.013  1.00  0.00     0.144 A
ATOM     24  H3  UNL     1      72.709  61.617  41.572  1.00  0.00     0.167 HD
HETATM   25  N4  UNL     1      70.872  60.758  39.657  1.00  0.00    -0.080 NA
ENDBRANCH  13  14
BRANCH  13  26
HETATM   26  O2  UNL     1      69.817  58.323  39.754  1.00  0.00    -0.369 OA
ATOM     27  H2  UNL     1      69.076  58.293  39.160  1.00  0.00     0.212 HD
ENDBRANCH  13  26
BRANCH  13  28
HETATM   28  C7  UNL     1      68.200  59.611  40.846  1.00  0.00     0.326 C
HETATM   29  O3  UNL     1      67.828  60.396  41.693  1.00  0.00    -0.259 OA
BRANCH  28  30
HETATM   30  O4  UNL     1      67.636  59.481  39.596  1.00  0.00    -0.182 OA
BRANCH  30  31
HETATM   31  N5  UNL     1      67.988  60.294  38.542  1.00  0.00     0.022 NA
BRANCH  31  32
HETATM   32  N6  UNL     1      68.506  59.441  37.547  1.00  0.00    -0.322 N
ATOM     33  H62 UNL     1      69.422  58.993  37.554  1.00  0.00     0.174 HD
ATOM     34  H61 UNL     1      67.782  59.368  36.833  1.00  0.00     0.174 HD
ENDBRANCH  31  32
ENDBRANCH  30  31
ENDBRANCH  28  30
ENDBRANCH  13  28
ENDBRANCH   1  13
BRANCH  12  35
HETATM   35  N11 UNL     1      69.298  55.854  39.741  1.00  0.00    -0.324 N
HETATM   36  C14 UNL     1      68.836  56.005  38.415  1.00  0.00     0.238 C
HETATM   37  O5  UNL     1      67.709  56.521  38.201  1.00  0.00    -0.272 OA
ATOM     38  H11 UNL     1      70.216  55.432  39.882  1.00  0.00     0.169 HD
BRANCH  36  39
HETATM   39  C15 UNL     1      69.617  55.582  37.248  1.00  0.00     0.268 C
BRANCH  39  40
HETATM   40  S1  UNL     1      69.612  53.855  36.954  1.00  0.00     0.110 S
HETATM   41  O6  UNL     1      68.323  53.378  36.332  1.00  0.00    -0.595 OA
HETATM   42  O7  UNL     1      69.702  53.164  38.301  1.00  0.00    -0.595 OA
HETATM   43  O8  UNL     1      70.941  53.352  36.069  1.00  0.00    -0.595 OA
ENDBRANCH  39  40
ENDBRANCH  36  39
ENDBRANCH  12  35
BRANCH  10  44
HETATM   44  N10 UNL     1      67.488  53.643  40.289  1.00  0.00    -0.385 N
ATOM     45 2H10 UNL     1      66.795  53.284  39.633  1.00  0.00     0.157 HD
ATOM     46 1H10 UNL     1      68.489  53.496  40.158  1.00  0.00     0.157 HD
ENDBRANCH  10  44
TORSDOF 11
ENDMDL