MODEL 4
REMARK VINA RESULT: -8.946296518      2.291      4.675
REMARK  12 active torsions:
REMARK  status: ('A' for Active; 'I' for Inactive)
REMARK    1  A    between atoms: N1_2  and  C2_3
REMARK    2  A    between atoms: N1_2  and  N13_43
REMARK    3  A    between atoms: C3_6  and  N3_7
REMARK    4  A    between atoms: N5_13  and  C5_15
REMARK    5  A    between atoms: C5_15  and  C6_16
REMARK    6  A    between atoms: C6_16  and  N6_17
REMARK    7  A    between atoms: N6_17  and  C7_19
REMARK    8  A    between atoms: C9_21  and  N7_22
REMARK    9  A    between atoms: N7_22  and  C10_24
REMARK   10  A    between atoms: C10_24  and  N8_25
REMARK   11  A    between atoms: C10_24  and  C11_29
REMARK   12  A    between atoms: C16_50  and  O3_51
ROOT
HETATM    1  C2  UNL     1      69.885  59.834  41.998  1.00  0.00     0.729 A
HETATM    2  N2  UNL     1      68.557  60.052  42.281  1.00  0.00    -0.020 N
ATOM      3  H2  UNL     1      68.311  60.455  43.185  1.00  0.00     0.203 HD
HETATM    4  C3  UNL     1      67.578  59.760  41.428  1.00  0.00     0.705 A
HETATM    5  N4  UNL     1      67.943  59.228  40.240  1.00  0.00    -0.022 N
ATOM      6  H4  UNL     1      67.208  58.997  39.571  1.00  0.00     0.203 HD
HETATM    7  C4  UNL     1      69.210  58.988  39.892  1.00  0.00     0.707 A
HETATM    8  N5  UNL     1      69.593  58.483  38.769  1.00  0.00    -0.224 N
ATOM      9  H5  UNL     1      70.590  58.340  38.608  1.00  0.00     0.177 HD
HETATM   10  N12 UNL     1      70.186  59.310  40.816  1.00  0.00    -0.020 N
ATOM     11  H12 UNL     1      71.164  59.139  40.583  1.00  0.00     0.203 HD
ENDROOT
BRANCH   8  12
HETATM   12  C5  UNL     1      68.673  58.117  37.748  1.00  0.00     0.157 C
BRANCH  12  13
HETATM   13  C6  UNL     1      68.965  56.747  37.158  1.00  0.00     0.141 C
BRANCH  13  14
HETATM   14  N6  UNL     1      69.627  55.867  38.075  1.00  0.00    -0.375 N
ATOM     15  H6  UNL     1      70.642  55.883  38.178  1.00  0.00     0.161 HD
BRANCH  14  16
HETATM   16  C7  UNL     1      68.892  55.045  38.776  1.00  0.00     0.102 A
HETATM   17  C8  UNL     1      68.811  55.186  40.142  1.00  0.00     0.077 A
HETATM   18  C9  UNL     1      68.039  54.332  40.935  1.00  0.00     0.034 A
HETATM   19  C13 UNL     1      67.370  53.345  40.257  1.00  0.00     0.046 A
HETATM   20  C14 UNL     1      67.451  53.200  38.884  1.00  0.00     0.092 A
HETATM   21  N11 UNL     1      68.207  54.051  38.181  1.00  0.00    -0.352 N
ATOM     22  H11 UNL     1      68.266  53.943  37.168  1.00  0.00     0.166 HD
BRANCH  18  23
HETATM   23  N7  UNL     1      67.962  54.474  42.324  1.00  0.00    -0.357 N
ATOM     24  H7  UNL     1      67.584  53.709  42.883  1.00  0.00     0.162 HD
BRANCH  23  25
HETATM   25  C10 UNL     1      68.403  55.669  42.982  1.00  0.00     0.352 C
BRANCH  25  26
HETATM   26  N8  UNL     1      69.251  55.354  44.101  1.00  0.00    -0.051 N
ATOM     27  H83 UNL     1      69.153  54.380  44.387  1.00  0.00     0.277 HD
ATOM     28  H82 UNL     1      70.235  55.338  43.834  1.00  0.00     0.277 HD
ATOM     29  H81 UNL     1      69.081  55.993  44.877  1.00  0.00     0.277 HD
ENDBRANCH  25  26
BRANCH  25  30
HETATM   30  C11 UNL     1      67.278  56.518  43.450  1.00  0.00     0.157 A
HETATM   31  N9  UNL     1      66.115  56.700  42.802  1.00  0.00    -0.240 N
HETATM   32  O1  UNL     1      65.382  57.497  43.497  1.00  0.00    -0.179 OA
ATOM     33  H9  UNL     1      65.857  56.277  41.911  1.00  0.00     0.196 HD
HETATM   34  C12 UNL     1      66.015  57.856  44.587  1.00  0.00     0.388 A
HETATM   35  O2  UNL     1      65.561  58.627  45.464  1.00  0.00    -0.236 OA
HETATM   36  N10 UNL     1      67.202  57.251  44.567  1.00  0.00    -0.286 N
ATOM     37  H10 UNL     1      67.927  57.331  45.281  1.00  0.00     0.172 HD
ENDBRANCH  25  30
ENDBRANCH  23  25
ENDBRANCH  18  23
ENDBRANCH  14  16
ENDBRANCH  13  14
ENDBRANCH  12  13
ENDBRANCH   8  12
BRANCH   4  38
HETATM   38  N3  UNL     1      66.326  59.974  41.716  1.00  0.00    -0.234 N
ATOM     39  H32 UNL     1      66.040  60.257  42.653  1.00  0.00     0.174 HD
ATOM     40  H31 UNL     1      65.586  59.867  41.021  1.00  0.00     0.174 HD
ENDBRANCH   4  38
BRANCH   1  41
HETATM   41  N1  UNL     1      70.803  60.198  43.009  1.00  0.00    -0.102 N
HETATM   42  C1  UNL     1      70.902  61.633  43.356  1.00  0.00     0.200 C
BRANCH  41  43
HETATM   43  N13 UNL     1      71.626  59.332  43.713  1.00  0.00    -0.139 N
HETATM   44  N14 UNL     1      72.921  59.192  43.662  1.00  0.00    -0.217 N
HETATM   45  N15 UNL     1      73.372  58.269  44.471  1.00  0.00    -0.268 N
ATOM     46  H14 UNL     1      73.522  59.746  43.053  1.00  0.00     0.210 HD
HETATM   47  C15 UNL     1      72.335  57.753  45.106  1.00  0.00     0.186 A
ATOM     48  H15 UNL     1      74.347  57.998  44.590  1.00  0.00     0.190 HD
HETATM   49  N16 UNL     1      72.319  56.722  46.083  1.00  0.00    -0.076 NA
HETATM   50  C16 UNL     1      71.208  58.422  44.632  1.00  0.00     0.224 A
BRANCH  50  51
HETATM   51  O3  UNL     1      69.931  58.160  45.061  1.00  0.00    -0.341 OA
ATOM     52  H3  UNL     1      69.168  57.921  44.546  1.00  0.00     0.219 HD
ENDBRANCH  50  51
ENDBRANCH  41  43
ENDBRANCH   1  41
TORSDOF 12
ENDMDL