MODEL 2
REMARK VINA RESULT: -9.424095858      2.283      3.883
REMARK  9 active torsions:
REMARK  status: ('A' for Active; 'I' for Inactive)
REMARK    1  A    between atoms: C2_2  and  C3_3
REMARK    2  A    between atoms: C2_2  and  C14_31
REMARK    3  A    between atoms: C3_3  and  O1_4
REMARK    4  A    between atoms: C3_3  and  C4_6
REMARK    5  A    between atoms: C4_6  and  N1_7
REMARK    6  A    between atoms: N4_16  and  C9_17
REMARK    7  A    between atoms: C14_31  and  N10_32
REMARK    8  A    between atoms: C14_31  and  C15_36
REMARK       I    between atoms: C15_36  and  N11_38
REMARK    9  A    between atoms: N11_38  and  C16_40
ROOT
HETATM    1  C9  UNL     1      71.608  58.096  45.957  1.00  0.00     0.194 A
HETATM    2  N5  UNL     1      71.116  58.669  47.094  1.00  0.00    -0.325 N
ATOM      3  H5  UNL     1      70.370  59.360  47.015  1.00  0.00     0.168 HD
HETATM    4  C10 UNL     1      71.581  58.355  48.316  1.00  0.00     0.157 A
HETATM    5  C11 UNL     1      71.030  58.988  49.488  1.00  0.00     0.121 C
HETATM    6  N6  UNL     1      70.599  59.498  50.427  1.00  0.00    -0.190 NA
HETATM    7  C12 UNL     1      72.581  57.436  48.465  1.00  0.00     0.157 A
HETATM    8  N7  UNL     1      73.104  57.072  49.743  1.00  0.00    -0.079 NA
HETATM    9  N8  UNL     1      73.091  56.849  47.371  1.00  0.00    -0.306 N
ATOM     10  H8  UNL     1      73.837  56.159  47.462  1.00  0.00     0.170 HD
HETATM   11  C13 UNL     1      72.614  57.173  46.146  1.00  0.00     0.292 A
HETATM   12  O2  UNL     1      73.124  56.597  45.154  1.00  0.00    -0.264 OA
ENDROOT
BRANCH   1  13
HETATM   13  N4  UNL     1      71.090  58.450  44.685  1.00  0.00    -0.252 N
HETATM   14  C8  UNL     1      69.839  57.909  44.262  1.00  0.00     0.274 A
HETATM   15  N3  UNL     1      69.373  58.421  43.007  1.00  0.00    -0.355 N
HETATM   16  C7  UNL     1      70.099  59.325  42.170  1.00  0.00     0.152 A
ATOM     17  H3  UNL     1      68.453  58.117  42.686  1.00  0.00     0.163 HD
HETATM   18  N1  UNL     1      69.879  59.890  40.972  1.00  0.00    -0.324 N
HETATM   19  C6  UNL     1      71.327  59.750  42.646  1.00  0.00     0.166 A
HETATM   20  C5  UNL     1      70.946  60.657  40.695  1.00  0.00     0.186 A
HETATM   21  N2  UNL     1      71.832  60.581  41.702  1.00  0.00    -0.334 N
ATOM     22  H2  UNL     1      72.728  61.065  41.748  1.00  0.00     0.168 HD
HETATM   23  N9  UNL     1      71.837  59.323  43.898  1.00  0.00    -0.277 N
ATOM     24  H9  UNL     1      72.747  59.654  44.220  1.00  0.00     0.189 HD
BRANCH  18  25
HETATM   25  C4  UNL     1      68.681  59.683  40.161  1.00  0.00     0.163 C
BRANCH  25  26
HETATM   26  C3  UNL     1      69.007  59.459  38.737  1.00  0.00     0.142 C
BRANCH  26  27
HETATM   27  C2  UNL     1      69.418  58.115  38.305  1.00  0.00     0.052 C
HETATM   28  C1  UNL     1      69.947  58.079  36.871  1.00  0.00     0.015 C
BRANCH  27  29
HETATM   29  C14 UNL     1      68.487  56.983  38.539  1.00  0.00     0.280 C
BRANCH  29  30
HETATM   30  N10 UNL     1      68.896  55.852  37.732  1.00  0.00    -0.066 N
ATOM     31 3H10 UNL     1      68.119  55.225  37.523  1.00  0.00     0.275 HD
ATOM     32 2H10 UNL     1      69.126  56.122  36.776  1.00  0.00     0.275 HD
ATOM     33 1H10 UNL     1      69.667  55.370  38.194  1.00  0.00     0.275 HD
ENDBRANCH  29  30
BRANCH  29  34
HETATM   34  C15 UNL     1      68.527  56.547  39.974  1.00  0.00     0.249 C
HETATM   35  O3  UNL     1      69.614  56.403  40.592  1.00  0.00    -0.271 OA
HETATM   36  N11 UNL     1      67.307  56.283  40.675  1.00  0.00    -0.348 N
ATOM     37  H11 UNL     1      66.419  56.394  40.187  1.00  0.00     0.163 HD
BRANCH  36  38
HETATM   38  C16 UNL     1      67.303  55.868  42.037  1.00  0.00     0.150 C
HETATM   39  C17 UNL     1      66.148  56.442  42.834  1.00  0.00     0.052 C
HETATM   40  C18 UNL     1      66.019  55.410  43.935  1.00  0.00     0.123 C
HETATM   41  N12 UNL     1      66.393  54.179  43.281  1.00  0.00    -0.380 N
HETATM   42  C19 UNL     1      67.104  54.415  42.229  1.00  0.00     0.112 C
ATOM     43  H12 UNL     1      66.132  53.248  43.605  1.00  0.00     0.160 HD
HETATM   44  N13 UNL     1      67.626  53.420  41.370  1.00  0.00    -0.086 NA
ENDBRANCH  36  38
ENDBRANCH  29  34
ENDBRANCH  27  29
ENDBRANCH  26  27
BRANCH  26  45
HETATM   45  O1  UNL     1      67.880  59.817  37.958  1.00  0.00    -0.393 OA
ATOM     46  H1  UNL     1      68.186  60.412  37.284  1.00  0.00     0.210 HD
ENDBRANCH  26  45
ENDBRANCH  25  26
ENDBRANCH  18  25
ENDBRANCH   1  13
TORSDOF 9
ENDMDL