MODEL 4
REMARK VINA RESULT: -9.100588749      2.130      2.843
REMARK  15 active torsions:
REMARK  status: ('A' for Active; 'I' for Inactive)
REMARK    1  A    between atoms: C2_2  and  N1_3
REMARK    2  A    between atoms: C2_2  and  N14_48
REMARK    3  A    between atoms: N1_3  and  C3_5
REMARK    4  A    between atoms: C4_8  and  N3_9
REMARK    5  A    between atoms: C7_16  and  C8_17
REMARK    6  A    between atoms: C8_17  and  O2_19
REMARK    7  A    between atoms: O2_19  and  C9_20
REMARK    8  A    between atoms: C9_20  and  C10_21
REMARK    9  A    between atoms: C10_21  and  C11_22
REMARK   10  A    between atoms: C11_22  and  N5_23
REMARK   11  A    between atoms: C13_25  and  C14_26
REMARK   12  A    between atoms: C14_26  and  N6_27
REMARK   13  A    between atoms: C14_26  and  O3_31
REMARK   14  A    between atoms: N10_39  and  C15_40
REMARK   15  A    between atoms: C16_43  and  N13_44
REMARK       I    between atoms: N14_48  and  C17_50
ROOT
HETATM    1  C3  UNL     1      68.458  56.344  39.388  1.00  0.00     0.139 A
HETATM    2  N2  UNL     1      68.079  55.028  39.341  1.00  0.00    -0.176 N
ATOM      3  H2  UNL     1      68.447  54.439  38.593  1.00  0.00     0.186 HD
HETATM    4  C4  UNL     1      67.250  54.485  40.232  1.00  0.00     0.679 A
HETATM    5  N4  UNL     1      66.746  55.217  41.225  1.00  0.00    -0.174 N
ATOM      6  H4  UNL     1      66.113  54.785  41.898  1.00  0.00     0.186 HD
HETATM    7  C5  UNL     1      67.056  56.501  41.348  1.00  0.00     0.156 A
HETATM    8  C6  UNL     1      67.923  57.100  40.428  1.00  0.00     0.089 A
HETATM    9  C7  UNL     1      68.040  58.394  40.803  1.00  0.00     0.141 A
HETATM   10  N9  UNL     1      67.253  58.535  41.928  1.00  0.00    -0.289 N
ATOM     11  H9  UNL     1      67.141  59.409  42.444  1.00  0.00     0.187 HD
HETATM   12  N10 UNL     1      66.674  57.422  42.247  1.00  0.00    -0.249 N
ENDROOT
BRANCH   9  13
HETATM   13  C8  UNL     1      68.761  59.483  40.192  1.00  0.00     0.312 C
HETATM   14  O1  UNL     1      68.296  60.477  39.678  1.00  0.00    -0.258 OA
BRANCH  13  15
HETATM   15  O2  UNL     1      70.176  59.398  40.184  1.00  0.00    -0.316 OA
BRANCH  15  16
HETATM   16  C9  UNL     1      70.922  60.570  39.938  1.00  0.00     0.180 C
BRANCH  16  17
HETATM   17  C10 UNL     1      71.811  60.831  41.117  1.00  0.00     0.048 C
BRANCH  17  18
HETATM   18  C11 UNL     1      70.980  60.809  42.404  1.00  0.00     0.152 C
BRANCH  18  19
HETATM   19  N5  UNL     1      71.557  59.798  43.297  1.00  0.00    -0.287 N
HETATM   20  C12 UNL     1      70.860  58.943  44.062  1.00  0.00     0.142 A
HETATM   21  C13 UNL     1      71.778  58.176  44.736  1.00  0.00     0.099 A
HETATM   22  N7  UNL     1      72.984  58.617  44.333  1.00  0.00    -0.285 N
HETATM   23  N8  UNL     1      72.867  59.592  43.469  1.00  0.00    -0.241 N
ATOM     24  H7  UNL     1      73.874  58.241  44.660  1.00  0.00     0.188 HD
ATOM     25  H8  UNL     1      73.627  60.097  43.015  1.00  0.00     0.208 HD
BRANCH  21  26
HETATM   26  C14 UNL     1      71.535  57.088  45.706  1.00  0.00     0.370 C
BRANCH  26  27
HETATM   27  N6  UNL     1      72.786  56.398  45.929  1.00  0.00    -0.047 N
ATOM     28  H63 UNL     1      73.205  56.052  45.065  1.00  0.00     0.277 HD
ATOM     29  H62 UNL     1      73.539  57.027  46.205  1.00  0.00     0.277 HD
ATOM     30  H61 UNL     1      72.622  55.657  46.611  1.00  0.00     0.277 HD
ENDBRANCH  26  27
BRANCH  26  31
HETATM   31  O3  UNL     1      70.604  56.190  45.178  1.00  0.00    -0.365 OA
ATOM     32  H3  UNL     1      70.612  55.388  45.687  1.00  0.00     0.212 HD
ENDBRANCH  26  31
ENDBRANCH  21  26
ENDBRANCH  18  19
ENDBRANCH  17  18
ENDBRANCH  16  17
ENDBRANCH  15  16
ENDBRANCH  13  15
ENDBRANCH   9  13
BRANCH   1  33
HETATM   33  N1  UNL     1      69.346  56.830  38.431  1.00  0.00    -0.331 N
ATOM     34  H1  UNL     1      70.325  56.880  38.711  1.00  0.00     0.168 HD
BRANCH  33  35
HETATM   35  C2  UNL     1      69.079  57.228  37.225  1.00  0.00     0.082 C
HETATM   36  C1  UNL     1      68.009  58.168  36.880  1.00  0.00     0.089 C
BRANCH  35  37
HETATM   37  N14 UNL     1      69.909  56.692  36.212  1.00  0.00    -0.301 N
HETATM   38  C17 UNL     1      69.898  55.337  35.835  1.00  0.00     0.334 C
HETATM   39  N15 UNL     1      70.788  54.872  34.787  1.00  0.00    -0.040 NA
HETATM   40  O4  UNL     1      69.129  54.530  36.392  1.00  0.00    -0.251 OA
ATOM     41  H14 UNL     1      70.549  57.323  35.730  1.00  0.00     0.171 HD
ENDBRANCH  35  37
ENDBRANCH  33  35
ENDBRANCH   1  33
BRANCH  12  42
HETATM   42  C15 UNL     1      65.776  57.210  43.376  1.00  0.00     0.266 C
HETATM   43  N11 UNL     1      65.653  58.340  44.256  1.00  0.00    -0.115 NA
HETATM   44  N12 UNL     1      65.591  57.427  45.330  1.00  0.00    -0.109 NA
HETATM   45  C16 UNL     1      66.465  56.562  44.550  1.00  0.00     0.333 C
BRANCH  45  46
HETATM   46  N13 UNL     1      67.844  56.981  44.744  1.00  0.00    -0.057 N
ATOM     47 3H13 UNL     1      68.358  56.933  43.864  1.00  0.00     0.276 HD
ATOM     48 2H13 UNL     1      67.890  57.985  44.918  1.00  0.00     0.276 HD
ATOM     49 1H13 UNL     1      68.341  56.471  45.474  1.00  0.00     0.276 HD
ENDBRANCH  45  46
ENDBRANCH  12  42
BRANCH   4  50
HETATM   50  N3  UNL     1      66.959  53.218  40.089  1.00  0.00    -0.234 N
ATOM     51  H32 UNL     1      67.442  52.626  39.413  1.00  0.00     0.174 HD
ATOM     52  H31 UNL     1      66.224  52.836  40.683  1.00  0.00     0.174 HD
ENDBRANCH   4  50
TORSDOF 15
ENDMDL