MODEL 4
REMARK VINA RESULT: -7.780669324      5.517      8.256
REMARK  14 active torsions:
REMARK  status: ('A' for Active; 'I' for Inactive)
REMARK    1  A    between atoms: C5_9  and  N4_10
REMARK    2  A    between atoms: C9_19  and  C10_20
REMARK    3  A    between atoms: C10_20  and  O1_21
REMARK    4  A    between atoms: C10_20  and  N7_23
REMARK    5  A    between atoms: N7_23  and  N8_24
REMARK    6  A    between atoms: N8_24  and  C11_26
REMARK    7  A    between atoms: C11_26  and  C12_27
REMARK    8  A    between atoms: C12_27  and  O2_28
REMARK    9  A    between atoms: C12_27  and  C13_30
REMARK   10  A    between atoms: C13_30  and  O3_31
REMARK   11  A    between atoms: C13_30  and  C14_33
REMARK   12  A    between atoms: C14_33  and  N9_34
REMARK   13  A    between atoms: C14_33  and  C15_38
REMARK   14  A    between atoms: C17_41  and  N10_42
ROOT
HETATM    1  C10 UNL     1      69.915  58.971  36.955  1.00  0.00     0.267 C
ENDROOT
BRANCH   1   2
HETATM    2  C9  UNL     1      69.884  57.543  36.834  1.00  0.00     0.133 A
HETATM    3  C8  UNL     1      70.760  56.822  35.996  1.00  0.00     0.151 A
HETATM    4  N6  UNL     1      70.480  55.506  36.132  1.00  0.00    -0.150 N
HETATM    5  C7  UNL     1      71.109  54.401  35.458  1.00  0.00     0.233 C
HETATM    6  C18 UNL     1      69.469  55.359  37.011  1.00  0.00     0.691 A
HETATM    7  N3  UNL     1      70.732  53.113  35.934  1.00  0.00    -0.125 N
HETATM    8  C4  UNL     1      69.749  52.913  36.796  1.00  0.00     0.175 A
HETATM    9  C5  UNL     1      71.495  52.057  35.439  1.00  0.00     0.686 A
HETATM   10  C3  UNL     1      69.452  51.616  37.230  1.00  0.00     0.124 A
HETATM   11  N13 UNL     1      69.100  54.031  37.348  1.00  0.00    -0.172 N
HETATM   12  N2  UNL     1      68.571  51.113  38.066  1.00  0.00    -0.346 N
HETATM   13  C6  UNL     1      70.210  50.575  36.742  1.00  0.00     0.154 A
HETATM   14  C2  UNL     1      68.707  49.776  38.155  1.00  0.00     0.184 A
ATOM     15  H2  UNL     1      67.879  51.661  38.577  1.00  0.00     0.167 HD
HETATM   16  N1  UNL     1      69.731  49.458  37.330  1.00  0.00    -0.331 N
HETATM   17  C1  UNL     1      70.304  48.142  37.126  1.00  0.00     0.158 C
HETATM   18  N5  UNL     1      71.207  50.818  35.865  1.00  0.00    -0.174 N
ATOM     19  H5  UNL     1      71.758  50.035  35.515  1.00  0.00     0.186 HD
ATOM     20  H13 UNL     1      68.340  53.883  38.012  1.00  0.00     0.186 HD
HETATM   21  N12 UNL     1      69.122  56.600  37.423  1.00  0.00    -0.184 N
ATOM     22  H12 UNL     1      68.380  56.797  38.094  1.00  0.00     0.184 HD
BRANCH   9  23
HETATM   23  N4  UNL     1      72.369  52.342  34.609  1.00  0.00    -0.234 N
ATOM     24  H42 UNL     1      72.198  52.740  33.685  1.00  0.00     0.174 HD
ATOM     25  H41 UNL     1      73.337  52.188  34.891  1.00  0.00     0.174 HD
ENDBRANCH   9  23
ENDBRANCH   1   2
BRANCH   1  26
HETATM   26  O1  UNL     1      69.481  59.491  35.758  1.00  0.00    -0.332 OA
ATOM     27  H1  UNL     1      70.225  59.496  35.167  1.00  0.00     0.220 HD
ENDBRANCH   1  26
BRANCH   1  28
HETATM   28  N7  UNL     1      70.288  59.882  37.925  1.00  0.00    -0.302 NA
BRANCH  28  29
HETATM   29  N8  UNL     1      70.620  60.694  38.792  1.00  0.00    -0.267 N
ATOM     30  H8  UNL     1      71.508  61.184  38.676  1.00  0.00     0.195 HD
BRANCH  29  31
HETATM   31  C11 UNL     1      69.813  60.998  39.979  1.00  0.00     0.188 C
BRANCH  31  32
HETATM   32  C12 UNL     1      70.259  60.062  41.104  1.00  0.00     0.169 C
BRANCH  32  33
HETATM   33  O2  UNL     1      70.145  58.763  40.540  1.00  0.00    -0.391 OA
ATOM     34  H2  UNL     1      70.594  58.201  41.160  1.00  0.00     0.210 HD
ENDBRANCH  32  33
BRANCH  32  35
HETATM   35  C13 UNL     1      71.654  60.283  41.601  1.00  0.00     0.185 C
BRANCH  35  36
HETATM   36  O3  UNL     1      72.368  61.211  40.913  1.00  0.00    -0.390 OA
ATOM     37  H3  UNL     1      73.311  61.143  41.007  1.00  0.00     0.210 HD
ENDBRANCH  35  36
BRANCH  35  38
HETATM   38  C14 UNL     1      71.673  60.380  43.082  1.00  0.00     0.264 C
BRANCH  38  39
HETATM   39  N9  UNL     1      70.718  61.308  43.560  1.00  0.00    -0.067 N
ATOM     40  H93 UNL     1      69.891  61.330  42.963  1.00  0.00     0.275 HD
ATOM     41  H92 UNL     1      70.283  60.983  44.423  1.00  0.00     0.275 HD
ATOM     42  H91 UNL     1      71.120  62.239  43.674  1.00  0.00     0.275 HD
ENDBRANCH  38  39
BRANCH  38  43
HETATM   43  C15 UNL     1      71.531  59.025  43.795  1.00  0.00     0.051 A
HETATM   44  C16 UNL     1      70.307  58.454  43.880  1.00  0.00     0.080 A
HETATM   45  S1  UNL     1      70.655  57.013  44.791  1.00  0.00    -0.064 SA
HETATM   46  C17 UNL     1      72.345  57.274  44.980  1.00  0.00     0.142 A
HETATM   47  N11 UNL     1      72.566  58.426  44.357  1.00  0.00    -0.338 N
ATOM     48  H11 UNL     1      73.500  58.833  44.314  1.00  0.00     0.168 HD
BRANCH  46  49
HETATM   49  N10 UNL     1      73.180  56.444  45.596  1.00  0.00    -0.380 N
ATOM     50 2H10 UNL     1      73.000  55.631  46.185  1.00  0.00     0.158 HD
ATOM     51 1H10 UNL     1      74.197  56.523  45.587  1.00  0.00     0.158 HD
ENDBRANCH  46  49
ENDBRANCH  38  43
ENDBRANCH  35  38
ENDBRANCH  32  35
ENDBRANCH  31  32
ENDBRANCH  29  31
ENDBRANCH  28  29
ENDBRANCH   1  28
TORSDOF 14
ENDMDL