MODEL 4
REMARK VINA RESULT: -8.013942413      3.988      7.087
REMARK  16 active torsions:
REMARK  status: ('A' for Active; 'I' for Inactive)
REMARK    1  A    between atoms: N1_1  and  C1_4
REMARK    2  A    between atoms: C3_12  and  S1_13
REMARK    3  A    between atoms: S1_13  and  C4_14
REMARK    4  A    between atoms: C4_14  and  C5_15
REMARK    5  A    between atoms: C5_15  and  N5_16
REMARK    6  A    between atoms: N5_16  and  C6_18
REMARK    7  A    between atoms: C8_20  and  C9_21
REMARK    8  A    between atoms: C9_21  and  O1_22
REMARK    9  A    between atoms: C9_21  and  O2_24
REMARK   10  A    between atoms: C11_28  and  O4_29
REMARK   11  A    between atoms: C11_28  and  C12_31
REMARK   12  A    between atoms: C12_31  and  O5_32
REMARK   13  A    between atoms: C12_31  and  C13_34
REMARK   14  A    between atoms: C13_34  and  O6_35
REMARK   15  A    between atoms: C14_37  and  O7_38
REMARK   16  A    between atoms: N6_40  and  N7_41
ROOT
HETATM    1  N5  UNL     1      67.294  55.427  40.687  1.00  0.00    -0.387 N
ATOM      2  H5  UNL     1      66.303  55.643  40.585  1.00  0.00     0.159 HD
ENDROOT
BRANCH   1   3
HETATM    3  C5  UNL     1      67.692  54.969  41.974  1.00  0.00     0.130 C
BRANCH   3   4
HETATM    4  C4  UNL     1      66.762  55.489  43.057  1.00  0.00     0.102 C
BRANCH   4   5
HETATM    5  S1  UNL     1      67.097  57.238  43.415  1.00  0.00    -0.090 SA
BRANCH   5   6
HETATM    6  C3  UNL     1      68.827  57.544  43.675  1.00  0.00     0.168 A
HETATM    7  N4  UNL     1      69.588  56.773  44.485  1.00  0.00    -0.320 N
HETATM    8  C2  UNL     1      70.904  57.035  44.663  1.00  0.00     0.139 A
ATOM      9  H4  UNL     1      69.163  55.982  44.970  1.00  0.00     0.169 HD
HETATM   10  N3  UNL     1      71.854  56.411  45.416  1.00  0.00    -0.283 N
HETATM   11  C16 UNL     1      71.486  58.107  44.008  1.00  0.00     0.094 A
HETATM   12  N2  UNL     1      72.984  57.051  45.250  1.00  0.00    -0.283 N
ATOM     13  H3  UNL     1      71.710  55.591  46.005  1.00  0.00     0.188 HD
HETATM   14  C1  UNL     1      72.806  58.109  44.387  1.00  0.00     0.131 A
ATOM     15  H2  UNL     1      73.867  56.803  45.695  1.00  0.00     0.188 HD
HETATM   16  C15 UNL     1      70.702  58.894  43.178  1.00  0.00     0.142 A
HETATM   17  N6  UNL     1      69.396  58.584  43.042  1.00  0.00    -0.228 N
HETATM   18  S2  UNL     1      71.338  60.159  42.393  1.00  0.00    -0.057 SA
BRANCH  14  19
HETATM   19  N1  UNL     1      73.709  58.922  44.025  1.00  0.00    -0.384 N
ATOM     20  H12 UNL     1      74.291  59.507  44.624  1.00  0.00     0.157 HD
ATOM     21  H11 UNL     1      73.986  59.107  43.061  1.00  0.00     0.157 HD
ENDBRANCH  14  19
BRANCH  17  22
HETATM   22  N7  UNL     1      68.623  59.383  42.207  1.00  0.00    -0.335 N
ATOM     23  H72 UNL     1      69.092  60.126  41.691  1.00  0.00     0.177 HD
ATOM     24  H71 UNL     1      67.620  59.210  42.134  1.00  0.00     0.177 HD
ENDBRANCH  17  22
ENDBRANCH   5   6
ENDBRANCH   4   5
ENDBRANCH   3   4
ENDBRANCH   1   3
BRANCH   1  25
HETATM   25  C6  UNL     1      68.003  55.605  39.649  1.00  0.00     0.067 A
HETATM   26  C7  UNL     1      68.532  54.586  38.900  1.00  0.00     0.070 A
HETATM   27  C8  UNL     1      69.295  54.903  37.777  1.00  0.00     0.110 A
HETATM   28  O3  UNL     1      69.490  56.118  37.460  1.00  0.00    -0.304 OA
HETATM   29  C10 UNL     1      69.028  57.208  38.109  1.00  0.00     0.142 A
HETATM   30  C11 UNL     1      69.359  58.506  37.593  1.00  0.00     0.110 C
HETATM   31  C14 UNL     1      68.278  56.918  39.213  1.00  0.00     0.129 A
BRANCH  27  32
HETATM   32  C9  UNL     1      69.861  53.781  36.976  1.00  0.00     0.312 C
BRANCH  32  33
HETATM   33  O1  UNL     1      70.998  54.195  36.257  1.00  0.00    -0.365 OA
ATOM     34  H1  UNL     1      71.696  53.554  36.322  1.00  0.00     0.213 HD
ENDBRANCH  32  33
BRANCH  32  35
HETATM   35  O2  UNL     1      70.140  52.704  37.778  1.00  0.00    -0.365 OA
ATOM     36  H2  UNL     1      69.358  52.186  37.931  1.00  0.00     0.213 HD
ENDBRANCH  32  35
ENDBRANCH  27  32
BRANCH  30  37
HETATM   37  O4  UNL     1      70.112  58.414  36.493  1.00  0.00    -0.359 OA
ATOM     38  H4  UNL     1      70.008  59.178  35.938  1.00  0.00     0.217 HD
ENDBRANCH  30  37
BRANCH  30  39
HETATM   39  C12 UNL     1      69.079  59.857  37.971  1.00  0.00     0.201 C
BRANCH  39  40
HETATM   40  O5  UNL     1      67.919  60.184  38.552  1.00  0.00    -0.387 OA
ATOM     41  H5  UNL     1      67.170  59.601  38.513  1.00  0.00     0.210 HD
ENDBRANCH  39  40
BRANCH  39  42
HETATM   42  C13 UNL     1      70.278  60.361  38.844  1.00  0.00     0.202 C
BRANCH  42  43
HETATM   43  O6  UNL     1      70.160  61.751  38.839  1.00  0.00    -0.398 OA
ATOM     44  H6  UNL     1      70.957  62.059  38.423  1.00  0.00     0.209 HD
ENDBRANCH  42  43
ENDBRANCH  39  42
ENDBRANCH  30  39
BRANCH  31  45
HETATM   45  O7  UNL     1      67.739  57.937  39.976  1.00  0.00    -0.356 OA
ATOM     46  H7  UNL     1      67.505  57.710  40.869  1.00  0.00     0.218 HD
ENDBRANCH  31  45
ENDBRANCH   1  25
TORSDOF 16
ENDMDL