MODEL 5
REMARK VINA RESULT: -4.394965815      1.366      3.139
REMARK  5 active torsions:
REMARK  status: ('A' for Active; 'I' for Inactive)
REMARK    1  A    between atoms: C2_2  and  N1_3
REMARK    2  A    between atoms: N1_3  and  C3_5
REMARK    3  A    between atoms: C3_5  and  O1_6
REMARK    4  A    between atoms: C3_5  and  C5_8
REMARK    5  A    between atoms: C7_10  and  N2_11
ROOT
HETATM    1  C5  UNL     1      18.693  21.191  95.605  1.00  0.00     0.066 A
HETATM    2  C6  UNL     1      19.089  22.464  94.884  1.00  0.00     0.044 A
HETATM    3  C7  UNL     1      20.005  21.771  95.887  1.00  0.00     0.192 A
ENDROOT
BRANCH   1   4
HETATM    4  C3  UNL     1      18.469  19.951  94.794  1.00  0.00     0.221 C
BRANCH   4   5
HETATM    5  N1  UNL     1      17.113  19.485  94.823  1.00  0.00    -0.397 N
ATOM      6  H1  UNL     1      16.852  18.539  94.544  1.00  0.00     0.155 HD
BRANCH   5   7
HETATM    7  C2  UNL     1      16.153  20.444  95.271  1.00  0.00     0.112 C
HETATM    8  C1  UNL     1      15.482  21.176  94.129  1.00  0.00     0.026 C
ENDBRANCH   5   7
ENDBRANCH   4   5
BRANCH   4   9
HETATM    9  O1  UNL     1      19.384  18.964  95.126  1.00  0.00    -0.371 OA
HETATM   10  C4  UNL     1      20.245  18.685  94.050  1.00  0.00     0.204 C
ENDBRANCH   4   9
ENDBRANCH   1   4
BRANCH   3  11
HETATM   11  N2  UNL     1      20.180  22.516  97.140  1.00  0.00    -0.074 N
ATOM     12  H23 UNL     1      19.717  23.421  97.057  1.00  0.00     0.274 HD
ATOM     13  H22 UNL     1      19.619  22.076  97.870  1.00  0.00     0.274 HD
ATOM     14  H21 UNL     1      21.128  22.657  97.488  1.00  0.00     0.274 HD
ENDBRANCH   3  11
TORSDOF 5
ENDMDL