MODEL 4
REMARK VINA RESULT: -4.385322530      1.135      1.233
REMARK  6 active torsions:
REMARK  status: ('A' for Active; 'I' for Inactive)
REMARK    1  A    between atoms: C2_2  and  N1_3
REMARK    2  A    between atoms: C2_2  and  C3_7
REMARK    3  A    between atoms: C3_7  and  N2_8
REMARK    4  A    between atoms: C3_7  and  O1_12
REMARK    5  A    between atoms: O1_12  and  C4_13
REMARK    6  A    between atoms: C4_13  and  C5_14
ROOT
HETATM    1  C3  UNL     1      19.890  19.686  94.717  1.00  0.00     0.348 C
ENDROOT
BRANCH   1   2
HETATM    2  C2  UNL     1      21.298  19.435  94.173  1.00  0.00     0.235 C
HETATM    3  C1  UNL     1      21.271  18.179  93.349  1.00  0.00     0.044 C
BRANCH   2   4
HETATM    4  N1  UNL     1      22.220  19.265  95.277  1.00  0.00    -0.071 N
ATOM      5  H13 UNL     1      22.510  18.294  95.393  1.00  0.00     0.274 HD
ATOM      6  H12 UNL     1      23.137  19.667  95.081  1.00  0.00     0.274 HD
ATOM      7  H11 UNL     1      21.805  19.649  96.126  1.00  0.00     0.274 HD
ENDBRANCH   2   4
ENDBRANCH   1   2
BRANCH   1   8
HETATM    8  N2  UNL     1      19.469  18.439  95.328  1.00  0.00    -0.051 N
ATOM      9  H23 UNL     1      19.773  18.338  96.297  1.00  0.00     0.277 HD
ATOM     10  H22 UNL     1      18.466  18.393  95.507  1.00  0.00     0.277 HD
ATOM     11  H21 UNL     1      19.808  17.697  94.716  1.00  0.00     0.277 HD
ENDBRANCH   1   8
BRANCH   1  12
HETATM   12  O1  UNL     1      19.032  20.105  93.725  1.00  0.00    -0.357 OA
BRANCH  12  13
HETATM   13  C4  UNL     1      18.413  21.270  94.084  1.00  0.00     0.175 C
BRANCH  13  14
HETATM   14  C5  UNL     1      17.198  21.074  94.949  1.00  0.00     0.009 A
HETATM   15  C6  UNL     1      15.855  21.349  94.234  1.00  0.00     0.007 A
HETATM   16  C7  UNL     1      16.225  20.006  94.726  1.00  0.00     0.007 A
ENDBRANCH  13  14
ENDBRANCH  12  13
ENDBRANCH   1  12
TORSDOF 6
ENDMDL