MODEL 5
REMARK VINA RESULT: -4.829221645      1.515      1.754
REMARK  4 active torsions:
REMARK  status: ('A' for Active; 'I' for Inactive)
REMARK    1  A    between atoms: C2_2  and  O1_3
REMARK    2  A    between atoms: O1_3  and  C3_4
REMARK    3  A    between atoms: C3_4  and  N1_5
REMARK    4  A    between atoms: C6_11  and  N3_12
ROOT
HETATM    1  N1  UNL     1      19.062  21.883  95.211  1.00  0.00    -0.277 N
HETATM    2  C4  UNL     1      19.501  22.756  96.132  1.00  0.00     0.105 A
HETATM    3  C5  UNL     1      19.065  24.169  96.238  1.00  0.00     0.091 C
HETATM    4  N2  UNL     1      20.389  22.137  96.927  1.00  0.00    -0.245 N
ATOM      5  H2  UNL     1      20.888  22.549  97.715  1.00  0.00     0.196 HD
HETATM    6  O2  UNL     1      20.490  20.910  96.501  1.00  0.00    -0.200 OA
HETATM    7  C6  UNL     1      19.696  20.720  95.455  1.00  0.00     0.246 A
ENDROOT
BRANCH   1   8
HETATM    8  C3  UNL     1      18.098  22.166  94.173  1.00  0.00     0.310 C
BRANCH   8   9
HETATM    9  O1  UNL     1      17.218  21.063  94.020  1.00  0.00    -0.344 OA
BRANCH   9  10
HETATM   10  C2  UNL     1      15.902  21.096  94.402  1.00  0.00     0.126 C
HETATM   11  C1  UNL     1      15.057  22.052  93.996  1.00  0.00     0.037 C
ENDBRANCH   9  10
ENDBRANCH   8   9
ENDBRANCH   1   8
BRANCH   7  12
HETATM   12  N3  UNL     1      19.518  19.646  94.762  1.00  0.00    -0.363 N
ATOM     13  H32 UNL     1      19.850  19.433  93.820  1.00  0.00     0.159 HD
ATOM     14  H31 UNL     1      18.996  18.835  95.094  1.00  0.00     0.159 HD
ENDBRANCH   7  12
TORSDOF 4
ENDMDL