MODEL 5
REMARK VINA RESULT: -5.128218651      7.064      7.702
REMARK  4 active torsions:
REMARK  status: ('A' for Active; 'I' for Inactive)
REMARK    1  A    between atoms: N1_2  and  O1_3
REMARK    2  A    between atoms: O1_3  and  C2_4
REMARK    3  A    between atoms: C2_4  and  C3_5
REMARK    4  A    between atoms: N2_9  and  O2_10
ROOT
HETATM    1  C3  UNL     1      18.276  21.405  94.989  1.00  0.00    -0.015 A
HETATM    2  C4  UNL     1      17.979  20.079  95.321  1.00  0.00     0.012 A
HETATM    3  C5  UNL     1      16.738  19.550  95.051  1.00  0.00     0.020 A
HETATM    4  C6  UNL     1      15.773  20.329  94.448  1.00  0.00     0.122 A
HETATM    5  N2  UNL     1      16.097  21.590  94.148  1.00  0.00    -0.247 N
HETATM    6  C7  UNL     1      17.296  22.142  94.395  1.00  0.00     0.131 A
ENDROOT
BRANCH   1   7
HETATM    7  C2  UNL     1      19.630  21.855  95.329  1.00  0.00     0.235 C
BRANCH   7   8
HETATM    8  O1  UNL     1      20.560  20.862  95.529  1.00  0.00    -0.282 OA
BRANCH   8   9
HETATM    9  N1  UNL     1      21.332  20.593  94.481  1.00  0.00    -0.105 NA
HETATM   10  C1  UNL     1      21.404  19.175  94.178  1.00  0.00     0.167 C
ENDBRANCH   8   9
ENDBRANCH   7   8
ENDBRANCH   1   7
BRANCH   5  11
HETATM   11  O2  UNL     1      15.139  22.391  93.541  1.00  0.00    -0.284 OA
ATOM     12  H2  UNL     1      15.416  23.219  93.165  1.00  0.00     0.245 HD
ENDBRANCH   5  11
TORSDOF 4
ENDMDL