MODEL 4
REMARK VINA RESULT: -4.285927061      1.603      3.384
REMARK  4 active torsions:
REMARK  status: ('A' for Active; 'I' for Inactive)
REMARK    1  A    between atoms: N1_2  and  C2_4
REMARK    2  A    between atoms: C2_4  and  N2_5
REMARK    3  A    between atoms: N2_5  and  N3_7
REMARK    4  A    between atoms: N3_7  and  C4_9
ROOT
HETATM    1  N3  UNL     1      19.184  20.581  95.860  1.00  0.00    -0.133 N
ATOM      2  H3  UNL     1      18.892  20.226  96.770  1.00  0.00     0.205 HD
ENDROOT
BRANCH   1   3
HETATM    3  N2  UNL     1      18.749  21.829  95.401  1.00  0.00    -0.300 N
HETATM    4  C3  UNL     1      19.351  23.000  95.973  1.00  0.00     0.173 C
BRANCH   3   5
HETATM    5  C2  UNL     1      17.732  21.837  94.393  1.00  0.00     0.262 C
BRANCH   5   6
HETATM    6  N1  UNL     1      16.645  20.955  94.684  1.00  0.00    -0.391 N
HETATM    7  C1  UNL     1      15.479  21.314  94.286  1.00  0.00     0.113 C
ATOM      8  H1  UNL     1      16.790  20.078  95.185  1.00  0.00     0.159 HD
ENDBRANCH   5   6
ENDBRANCH   3   5
ENDBRANCH   1   3
BRANCH   1   9
HETATM    9  C4  UNL     1      19.964  19.894  95.100  1.00  0.00     0.696 A
HETATM   10  N4  UNL     1      19.574  18.779  94.424  1.00  0.00    -0.199 N
HETATM   11  C5  UNL     1      20.660  18.368  93.760  1.00  0.00     0.123 A
ATOM     12  H4  UNL     1      18.649  18.348  94.424  1.00  0.00     0.183 HD
HETATM   13  C6  UNL     1      21.730  19.205  94.005  1.00  0.00     0.123 A
HETATM   14  N5  UNL     1      21.260  20.140  94.841  1.00  0.00    -0.199 N
ATOM     15  H5  UNL     1      21.800  20.917  95.222  1.00  0.00     0.183 HD
ENDBRANCH   1   9
TORSDOF 4
ENDMDL