MODEL 4
REMARK VINA RESULT: -3.853208247      6.531      7.566
REMARK  1 active torsions:
REMARK  status: ('A' for Active; 'I' for Inactive)
REMARK       I    between atoms: C1_4  and  N3_6
REMARK    1  A    between atoms: C3_9  and  N4_10
ROOT
HETATM    1  N1  UNL     1      13.184  19.593  25.470  1.00  0.00    -0.374 N
ATOM      2  H11 UNL     1      12.540  19.086  24.862  1.00  0.00     0.158 HD
ATOM      3  H12 UNL     1      13.706  20.362  25.050  1.00  0.00     0.158 HD
HETATM    4  C1  UNL     1      13.301  19.243  26.703  1.00  0.00     0.186 C
HETATM    5  N2  UNL     1      14.197  19.948  27.550  1.00  0.00    -0.064 NA
HETATM    6  N3  UNL     1      12.574  18.172  27.288  1.00  0.00    -0.310 N
HETATM    7  C2  UNL     1      11.437  18.008  28.192  1.00  0.00     0.206 C
HETATM    8  S1  UNL     1      11.929  16.324  28.596  1.00  0.00    -0.096 SA
HETATM    9  C3  UNL     1      12.819  16.734  27.102  1.00  0.00     0.352 C
ENDROOT
BRANCH   9  10
HETATM   10  N4  UNL     1      12.158  16.324  25.866  1.00  0.00    -0.049 N
ATOM     11  H43 UNL     1      12.259  15.327  25.674  1.00  0.00     0.277 HD
ATOM     12  H42 UNL     1      11.140  16.347  25.935  1.00  0.00     0.277 HD
ATOM     13  H41 UNL     1      12.516  16.911  25.112  1.00  0.00     0.277 HD
ENDBRANCH   9  10
TORSDOF 1
ENDMDL