MODEL 5
REMARK VINA RESULT: -4.312871766      5.250      6.520
REMARK  1 active torsions:
REMARK  status: ('A' for Active; 'I' for Inactive)
REMARK       I    between atoms: C1_4  and  N3_6
REMARK    1  A    between atoms: N3_6  and  C2_8
ROOT
HETATM    1  N1  UNL     1      12.926  15.293  26.593  1.00  0.00    -0.374 N
ATOM      2  H11 UNL     1      13.842  15.162  27.022  1.00  0.00     0.158 HD
ATOM      3  H12 UNL     1      12.438  14.520  26.142  1.00  0.00     0.158 HD
HETATM    4  C1  UNL     1      12.411  16.476  26.642  1.00  0.00     0.182 C
HETATM    5  N2  UNL     1      11.133  16.659  26.042  1.00  0.00    -0.064 NA
HETATM    6  N3  UNL     1      13.091  17.553  27.271  1.00  0.00    -0.356 N
ATOM      7  H3  UNL     1      14.110  17.565  27.316  1.00  0.00     0.162 HD
ENDROOT
BRANCH   6   8
HETATM    8  C2  UNL     1      12.321  18.635  27.847  1.00  0.00     0.132 C
HETATM    9  C3  UNL     1      13.196  19.821  28.189  1.00  0.00     0.197 C
HETATM   10  O1  UNL     1      13.344  19.863  29.567  1.00  0.00    -0.365 OA
HETATM   11  C4  UNL     1      12.159  20.196  30.216  1.00  0.00     0.337 C
HETATM   12  O2  UNL     1      11.138  19.398  29.710  1.00  0.00    -0.365 OA
HETATM   13  C5  UNL     1      11.658  18.205  29.161  1.00  0.00     0.197 C
ENDBRANCH   6   8
TORSDOF 1
ENDMDL