MODEL 2
REMARK VINA RESULT: -4.606635635      6.455      8.133
REMARK  1 active torsions:
REMARK  status: ('A' for Active; 'I' for Inactive)
REMARK       I    between atoms: N2_3  and  C2_5
REMARK       I    between atoms: C2_5  and  N4_10
REMARK    1  A    between atoms: N3_6  and  C3_8
ROOT
HETATM    1  N1  UNL     1       9.310  15.008  30.134  1.00  0.00    -0.171 NA
HETATM    2  C1  UNL     1       9.438  15.722  29.225  1.00  0.00     0.196 C
HETATM    3  N2  UNL     1       9.608  16.586  28.149  1.00  0.00    -0.125 N
ATOM      4  H2  UNL     1       8.801  16.777  27.554  1.00  0.00     0.197 HD
HETATM    5  C2  UNL     1      10.835  17.215  27.832  1.00  0.00     0.702 C
HETATM    6  N3  UNL     1      11.239  18.144  28.611  1.00  0.00    -0.166 N
ATOM      7  H3  UNL     1      10.644  18.365  29.410  1.00  0.00     0.186 HD
HETATM    8  N4  UNL     1      11.572  16.803  26.672  1.00  0.00    -0.125 N
ATOM      9  H4  UNL     1      11.266  17.085  25.740  1.00  0.00     0.197 HD
HETATM   10  C4  UNL     1      12.712  16.010  26.832  1.00  0.00     0.196 C
HETATM   11  N5  UNL     1      13.653  15.337  26.957  1.00  0.00    -0.171 NA
ENDROOT
BRANCH   6  12
HETATM   12  C3  UNL     1      12.417  18.887  28.475  1.00  0.00     0.368 C
HETATM   13  O1  UNL     1      12.595  19.531  27.402  1.00  0.00    -0.283 OA
ENDBRANCH   6  12
TORSDOF 1
ENDMDL