MODEL 4
REMARK VINA RESULT: -4.307203987      3.673      4.038
REMARK  2 active torsions:
REMARK  status: ('A' for Active; 'I' for Inactive)
REMARK       I    between atoms: C2_2  and  N1_4
REMARK    1  A    between atoms: N1_4  and  N2_6
REMARK    2  A    between atoms: N2_6  and  C3_8
ROOT
HETATM    1  C1  UNL     1       5.979  11.986  31.378  1.00  0.00     0.119 C
HETATM    2  C2  UNL     1       7.253  12.694  31.318  1.00  0.00     0.232 C
HETATM    3  O1  UNL     1       8.276  12.292  31.975  1.00  0.00    -0.272 OA
HETATM    4  N1  UNL     1       7.390  13.855  30.523  1.00  0.00    -0.269 N
ATOM      5  H1  UNL     1       6.607  14.217  29.979  1.00  0.00     0.190 HD
ENDROOT
BRANCH   4   6
HETATM    6  N2  UNL     1       8.649  14.496  30.507  1.00  0.00    -0.276 N
ATOM      7  H2  UNL     1       9.373  14.169  31.146  1.00  0.00     0.189 HD
BRANCH   6   8
HETATM    8  C3  UNL     1       8.946  15.577  29.638  1.00  0.00     0.199 C
HETATM    9  N3  UNL     1      10.254  16.067  29.484  1.00  0.00    -0.068 NA
HETATM   10  S1  UNL     1       7.725  16.259  28.802  1.00  0.00    -0.043 SA
ENDBRANCH   6   8
ENDBRANCH   4   6
TORSDOF 2
ENDMDL