MODEL 3
REMARK VINA RESULT: -4.903383559      1.916      2.671
REMARK  3 active torsions:
REMARK  status: ('A' for Active; 'I' for Inactive)
REMARK    1  A    between atoms: N1_1  and  O1_4
REMARK    2  A    between atoms: O1_4  and  N2_5
REMARK    3  A    between atoms: C4_9  and  C5_10
ROOT
HETATM    1  N2  UNL     1       9.561  22.306  31.465  1.00  0.00    -0.159 NA
HETATM    2  C1  UNL     1       9.090  23.665  31.261  1.00  0.00     0.124 C
HETATM    3  C2  UNL     1       8.510  23.974  32.631  1.00  0.00     0.019 C
HETATM    4  C3  UNL     1       7.641  22.720  32.798  1.00  0.00     0.032 C
HETATM    5  C4  UNL     1       8.632  21.661  32.354  1.00  0.00     0.177 C
ENDROOT
BRANCH   1   6
HETATM    6  O1  UNL     1      10.759  22.403  32.087  1.00  0.00    -0.189 OA
BRANCH   6   7
HETATM    7  N1  UNL     1      11.305  21.201  32.348  1.00  0.00    -0.291 N
ATOM      8  H12 UNL     1      10.795  20.451  32.815  1.00  0.00     0.186 HD
ATOM      9  H11 UNL     1      12.271  21.131  32.029  1.00  0.00     0.186 HD
ENDBRANCH   6   7
ENDBRANCH   1   6
BRANCH   5  10
HETATM   10  C5  UNL     1       7.960  20.499  31.726  1.00  0.00     0.251 C
HETATM   11  N3  UNL     1       8.714  19.562  30.994  1.00  0.00    -0.061 NA
HETATM   12  O2  UNL     1       6.729  20.340  31.838  1.00  0.00    -0.275 OA
ENDBRANCH   5  10
TORSDOF 3
ENDMDL