MODEL 3
REMARK VINA RESULT: -4.660977881      1.956      3.827
REMARK  3 active torsions:
REMARK  status: ('A' for Active; 'I' for Inactive)
REMARK    1  A    between atoms: C1_2  and  C2_4
REMARK    2  A    between atoms: C5_7  and  N2_8
REMARK    3  A    between atoms: C6_12  and  N3_13
ROOT
HETATM    1  C2  UNL     1       6.423  13.876  30.561  1.00  0.00     0.107 C
HETATM    2  C3  UNL     1       7.355  12.695  30.875  1.00  0.00     0.018 C
HETATM    3  C4  UNL     1       8.637  13.468  31.192  1.00  0.00     0.036 C
HETATM    4  C5  UNL     1       8.563  14.736  30.360  1.00  0.00     0.214 C
HETATM    5  C6  UNL     1       7.247  14.620  29.572  1.00  0.00     0.226 C
ENDROOT
BRANCH   4   6
HETATM    6  N2  UNL     1       9.694  14.864  29.497  1.00  0.00    -0.073 N
ATOM      7  H23 UNL     1       9.924  15.843  29.325  1.00  0.00     0.274 HD
ATOM      8  H22 UNL     1      10.554  14.579  29.966  1.00  0.00     0.274 HD
ATOM      9  H21 UNL     1       9.558  14.354  28.624  1.00  0.00     0.274 HD
ENDBRANCH   4   6
BRANCH   5  10
HETATM   10  N3  UNL     1       6.752  15.895  29.192  1.00  0.00    -0.072 N
ATOM     11  H33 UNL     1       7.450  16.388  28.637  1.00  0.00     0.274 HD
ATOM     12  H32 UNL     1       6.010  15.788  28.499  1.00  0.00     0.274 HD
ATOM     13  H31 UNL     1       6.431  16.491  29.955  1.00  0.00     0.274 HD
ENDBRANCH   5  10
BRANCH   1  14
HETATM   14  C1  UNL     1       5.164  13.337  30.067  1.00  0.00     0.237 C
HETATM   15  N1  UNL     1       4.201  14.249  29.552  1.00  0.00    -0.062 NA
HETATM   16  O1  UNL     1       4.852  12.119  30.056  1.00  0.00    -0.276 OA
ENDBRANCH   1  14
TORSDOF 3
ENDMDL