MODEL 1
REMARK VINA RESULT: -4.609676023      0.000      0.000
REMARK  2 active torsions:
REMARK  status: ('A' for Active; 'I' for Inactive)
REMARK    1  A    between atoms: N1_1  and  N2_4
REMARK       I    between atoms: N2_4  and  C1_6
REMARK       I    between atoms: C1_6  and  N3_8
REMARK    2  A    between atoms: N3_8  and  C2_10
ROOT
HETATM    1  N2  UNL     1      12.576  20.364  29.471  1.00  0.00    -0.258 N
ATOM      2  H2  UNL     1      12.105  20.788  28.671  1.00  0.00     0.191 HD
HETATM    3  C1  UNL     1      11.934  20.434  30.723  1.00  0.00     0.334 C
HETATM    4  O1  UNL     1      12.468  19.930  31.732  1.00  0.00    -0.246 OA
HETATM    5  N3  UNL     1      10.685  21.068  30.859  1.00  0.00    -0.335 N
ATOM      6  H3  UNL     1      10.258  21.476  30.027  1.00  0.00     0.164 HD
ENDROOT
BRANCH   5   7
HETATM    7  C2  UNL     1       9.970  21.174  32.115  1.00  0.00     0.116 C
HETATM    8  C3  UNL     1       9.623  22.604  32.460  1.00  0.00     0.064 C
HETATM    9  C4  UNL     1       8.215  22.528  32.987  1.00  0.00     0.253 A
HETATM   10  C5  UNL     1       7.120  22.467  31.970  1.00  0.00     0.308 A
HETATM   11  N4  UNL     1       7.648  21.287  32.584  1.00  0.00     0.099 N
HETATM   12  C6  UNL     1       8.648  20.488  31.955  1.00  0.00     0.298 C
ENDBRANCH   5   7
BRANCH   1  13
HETATM   13  N1  UNL     1      13.805  19.759  29.251  1.00  0.00    -0.341 N
ATOM     14  H12 UNL     1      13.863  18.758  29.440  1.00  0.00     0.177 HD
ATOM     15  H11 UNL     1      14.637  20.246  28.917  1.00  0.00     0.177 HD
ENDBRANCH   1  13
TORSDOF 2
ENDMDL