MODEL 4
REMARK VINA RESULT: -5.348759768      7.812      9.189
REMARK  2 active torsions:
REMARK  status: ('A' for Active; 'I' for Inactive)
REMARK    1  A    between atoms: N1_2  and  C2_4
REMARK    2  A    between atoms: C2_4  and  C4_12
REMARK       I    between atoms: N2_5  and  C3_7
ROOT
HETATM    1  C2  UNL     1       9.102  21.875  32.005  1.00  0.00     0.149 C
HETATM    2  N2  UNL     1       9.535  22.776  32.813  1.00  0.00    -0.314 N
ATOM      3  H2  UNL     1      10.513  22.715  33.098  1.00  0.00     0.170 HD
HETATM    4  C3  UNL     1       8.783  23.835  33.338  1.00  0.00     0.187 C
HETATM    5  N3  UNL     1       9.116  24.340  34.463  1.00  0.00    -0.373 N
ATOM      6  H31 UNL     1       8.569  25.110  34.844  1.00  0.00     0.158 HD
ATOM      7  H32 UNL     1       9.922  23.974  34.971  1.00  0.00     0.158 HD
HETATM    8  N4  UNL     1       7.670  24.339  32.636  1.00  0.00    -0.064 NA
ENDROOT
BRANCH   1   9
HETATM    9  N1  UNL     1       7.763  21.832  31.521  1.00  0.00    -0.378 N
HETATM   10  C1  UNL     1       6.749  21.084  32.230  1.00  0.00     0.148 C
ATOM     11  H1  UNL     1       7.517  22.332  30.667  1.00  0.00     0.160 HD
ENDBRANCH   1   9
BRANCH   1  12
HETATM   12  C4  UNL     1      10.041  20.854  31.570  1.00  0.00     0.189 C
HETATM   13  C5  UNL     1      11.495  20.961  31.880  1.00  0.00     0.100 C
HETATM   14  O1  UNL     1       9.658  19.868  30.927  1.00  0.00    -0.290 OA
ENDBRANCH   1  12
TORSDOF 2
ENDMDL