MODEL 4
REMARK VINA RESULT: -5.230162747      2.076      3.986
REMARK  3 active torsions:
REMARK  status: ('A' for Active; 'I' for Inactive)
REMARK    1  A    between atoms: N1_1  and  N2_4
REMARK    2  A    between atoms: C1_6  and  C2_8
REMARK    3  A    between atoms: C5_11  and  N4_12
ROOT
HETATM    1  C2  UNL     1       6.716  13.095  30.964  1.00  0.00     0.054 C
HETATM    2  C3  UNL     1       5.510  13.412  30.111  1.00  0.00     0.014 C
HETATM    3  C4  UNL     1       4.599  12.244  30.486  1.00  0.00     0.033 C
HETATM    4  C5  UNL     1       5.541  11.089  30.383  1.00  0.00     0.184 C
HETATM    5  C6  UNL     1       6.923  11.635  30.723  1.00  0.00     0.044 C
ENDROOT
BRANCH   1   6
HETATM    6  C1  UNL     1       7.877  13.933  30.658  1.00  0.00     0.111 C
HETATM    7  N2  UNL     1       7.838  14.978  29.914  1.00  0.00    -0.297 N
ATOM      8  H2  UNL     1       6.952  15.264  29.497  1.00  0.00     0.187 HD
HETATM    9  N3  UNL     1       9.131  13.566  31.220  1.00  0.00    -0.086 NA
BRANCH   7  10
HETATM   10  N1  UNL     1       8.987  15.728  29.668  1.00  0.00    -0.344 N
ATOM     11  H12 UNL     1       9.330  16.348  30.401  1.00  0.00     0.176 HD
ATOM     12  H11 UNL     1       9.477  15.661  28.775  1.00  0.00     0.176 HD
ENDBRANCH   7  10
ENDBRANCH   1   6
BRANCH   4  13
HETATM   13  N4  UNL     1       5.192   9.968  31.213  1.00  0.00    -0.075 N
ATOM     14  H43 UNL     1       5.405   9.091  30.736  1.00  0.00     0.274 HD
ATOM     15  H42 UNL     1       5.832   9.896  32.003  1.00  0.00     0.274 HD
ATOM     16  H41 UNL     1       4.224   9.972  31.536  1.00  0.00     0.274 HD
ENDBRANCH   4  13
TORSDOF 3
ENDMDL