MODEL 2
REMARK VINA RESULT: -3.779169522      2.702      4.046
REMARK  2 active torsions:
REMARK  status: ('A' for Active; 'I' for Inactive)
REMARK    1  A    between atoms: S1_2  and  N1_4
REMARK    2  A    between atoms: N1_4  and  C2_6
ROOT
HETATM    1  N1  UNL     1      10.180  22.819  32.060  1.00  0.00    -0.285 N
ATOM      2  H1  UNL     1      10.876  23.515  31.794  1.00  0.00     0.178 HD
ENDROOT
BRANCH   1   3
HETATM    3  S1  UNL     1      10.517  21.161  31.765  1.00  0.00     0.112 S
HETATM    4  C1  UNL     1      12.179  20.737  32.231  1.00  0.00     0.152 C
HETATM    5  O1  UNL     1       9.427  20.216  32.595  1.00  0.00    -0.236 OA
ENDBRANCH   1   3
BRANCH   1   6
HETATM    6  C2  UNL     1       8.972  23.258  32.659  1.00  0.00     0.192 C
HETATM    7  N2  UNL     1       8.994  23.782  33.986  1.00  0.00    -0.069 NA
HETATM    8  S2  UNL     1       7.543  23.199  31.908  1.00  0.00    -0.044 SA
ENDBRANCH   1   6
TORSDOF 2
ENDMDL