MODEL 2
REMARK VINA RESULT: -4.366754397      8.648      9.313
REMARK  2 active torsions:
REMARK  status: ('A' for Active; 'I' for Inactive)
REMARK    1  A    between atoms: N1_1  and  C1_4
REMARK    2  A    between atoms: C2_7  and  C3_8
ROOT
HETATM    1  C1  UNL     1      32.876  -0.267  83.976  1.00  0.00     0.681 A
HETATM    2  N2  UNL     1      32.250   0.861  84.349  1.00  0.00    -0.174 N
ATOM      3  H2  UNL     1      32.769   1.738  84.319  1.00  0.00     0.186 HD
HETATM    4  C2  UNL     1      30.960   0.887  84.765  1.00  0.00     0.163 A
HETATM    5  N3  UNL     1      30.292  -0.266  84.802  1.00  0.00    -0.291 N
ATOM      6  H3  UNL     1      29.321  -0.279  85.110  1.00  0.00     0.172 HD
HETATM    7  C4  UNL     1      30.891  -1.412  84.435  1.00  0.00     0.340 A
HETATM    8  O2  UNL     1      30.271  -2.495  84.468  1.00  0.00    -0.246 OA
HETATM    9  N4  UNL     1      32.182  -1.417  84.020  1.00  0.00    -0.141 N
ATOM     10  H4  UNL     1      32.626  -2.292  83.742  1.00  0.00     0.189 HD
ENDROOT
BRANCH   1  11
HETATM   11  N1  UNL     1      34.126  -0.242  83.579  1.00  0.00    -0.234 N
ATOM     12  H12 UNL     1      34.422  -0.732  82.735  1.00  0.00     0.174 HD
ATOM     13  H11 UNL     1      34.833   0.270  84.108  1.00  0.00     0.174 HD
ENDBRANCH   1  11
BRANCH   4  14
HETATM   14  C3  UNL     1      30.302   2.122  85.165  1.00  0.00     0.307 C
HETATM   15  O1  UNL     1      30.280   3.148  84.436  1.00  0.00    -0.298 OA
ENDBRANCH   4  14
TORSDOF 2
ENDMDL