MODEL 1
REMARK VINA RESULT: -4.536203175      0.000      0.000
REMARK  2 active torsions:
REMARK  status: ('A' for Active; 'I' for Inactive)
REMARK    1  A    between atoms: O1_2  and  C2_3
REMARK    2  A    between atoms: C3_6  and  N2_7
ROOT
HETATM    1  C2  UNL     1      31.303   1.112  84.787  1.00  0.00     0.241 A
HETATM    2  N1  UNL     1      32.530   0.982  84.268  1.00  0.00    -0.155 N
ATOM      3  H1  UNL     1      33.107   1.816  84.157  1.00  0.00     0.188 HD
HETATM    4  C3  UNL     1      33.029  -0.203  83.889  1.00  0.00     0.683 A
HETATM    5  N3  UNL     1      32.295  -1.312  84.024  1.00  0.00    -0.141 N
ATOM      6  H3  UNL     1      32.665  -2.218  83.739  1.00  0.00     0.189 HD
HETATM    7  C4  UNL     1      31.064  -1.210  84.541  1.00  0.00     0.341 A
HETATM    8  O2  UNL     1      30.369  -2.273  84.665  1.00  0.00    -0.246 OA
HETATM    9  N4  UNL     1      30.562  -0.005  84.924  1.00  0.00    -0.273 N
ATOM     10  H4  UNL     1      29.622   0.054  85.315  1.00  0.00     0.174 HD
ENDROOT
BRANCH   4  11
HETATM   11  N2  UNL     1      34.222  -0.340  83.382  1.00  0.00    -0.234 N
ATOM     12  H22 UNL     1      35.003   0.021  83.930  1.00  0.00     0.174 HD
ATOM     13  H21 UNL     1      34.393  -0.786  82.481  1.00  0.00     0.174 HD
ENDBRANCH   4  11
BRANCH   1  14
HETATM   14  O1  UNL     1      30.752   2.300  85.188  1.00  0.00    -0.327 OA
HETATM   15  C1  UNL     1      29.576   2.861  84.654  1.00  0.00     0.213 C
ENDBRANCH   1  14
TORSDOF 2
ENDMDL