MODEL 1
REMARK VINA RESULT: -4.645342974      0.000      0.000
REMARK  3 active torsions:
REMARK  status: ('A' for Active; 'I' for Inactive)
REMARK    1  A    between atoms: O1_2  and  N1_3
REMARK    2  A    between atoms: N1_3  and  C2_5
REMARK    3  A    between atoms: C5_12  and  N4_13
ROOT
HETATM    1  C2  UNL     1      23.884   5.190  77.466  1.00  0.00     0.717 A
HETATM    2  N2  UNL     1      25.199   5.519  77.515  1.00  0.00    -0.178 N
ATOM      3  H2  UNL     1      25.594   5.825  78.404  1.00  0.00     0.185 HD
HETATM    4  C3  UNL     1      26.000   5.460  76.442  1.00  0.00     0.109 A
HETATM    5  C4  UNL     1      27.449   5.840  76.561  1.00  0.00     0.090 C
HETATM    6  N3  UNL     1      25.455   5.056  75.286  1.00  0.00    -0.180 N
ATOM      7  H3  UNL     1      26.045   5.003  74.456  1.00  0.00     0.185 HD
HETATM    8  C5  UNL     1      24.156   4.717  75.184  1.00  0.00     0.691 A
HETATM    9  N5  UNL     1      23.397   4.795  76.292  1.00  0.00    -0.021 N
ATOM     10  H5  UNL     1      22.410   4.541  76.229  1.00  0.00     0.203 HD
ENDROOT
BRANCH   1  11
HETATM   11  N1  UNL     1      23.226   5.286  78.554  1.00  0.00    -0.096 N
ATOM     12  H1  UNL     1      22.507   6.008  78.598  1.00  0.00     0.213 HD
BRANCH  11  13
HETATM   13  O1  UNL     1      23.397   4.514  79.662  1.00  0.00    -0.272 OA
HETATM   14  C1  UNL     1      22.938   3.160  79.666  1.00  0.00     0.238 C
ENDBRANCH  11  13
ENDBRANCH   1  11
BRANCH   8  15
HETATM   15  N4  UNL     1      23.716   4.342  74.045  1.00  0.00    -0.234 N
ATOM     16  H42 UNL     1      23.871   3.413  73.654  1.00  0.00     0.174 HD
ATOM     17  H41 UNL     1      23.178   5.009  73.492  1.00  0.00     0.174 HD
ENDBRANCH   8  15
TORSDOF 3
ENDMDL