MODEL 2
REMARK VINA RESULT: -3.943020477      2.428      3.456
REMARK  2 active torsions:
REMARK  status: ('A' for Active; 'I' for Inactive)
REMARK       I    between atoms: C2_4  and  N2_5
REMARK       I    between atoms: C2_4  and  N4_9
REMARK    1  A    between atoms: N4_9  and  N5_11
REMARK    2  A    between atoms: N5_11  and  C4_12
ROOT
HETATM    1  C1  UNL     1      23.535   5.876  78.590  1.00  0.00     0.165 C
HETATM    2  N1  UNL     1      23.520   4.728  77.676  1.00  0.00    -0.228 N
ATOM      3  H1  UNL     1      22.748   4.061  77.699  1.00  0.00     0.177 HD
HETATM    4  C2  UNL     1      24.535   4.562  76.807  1.00  0.00     0.711 C
HETATM    5  N2  UNL     1      25.567   5.522  76.782  1.00  0.00    -0.124 N
ATOM      6  H2  UNL     1      25.426   6.398  77.286  1.00  0.00     0.197 HD
HETATM    7  C3  UNL     1      26.779   5.333  76.098  1.00  0.00     0.196 C
HETATM    8  N3  UNL     1      27.776   5.155  75.476  1.00  0.00    -0.171 NA
HETATM    9  N4  UNL     1      24.488   3.415  76.004  1.00  0.00    -0.062 N
ATOM     10  H4  UNL     1      24.524   3.649  75.012  1.00  0.00     0.221 HD
ENDROOT
BRANCH   9  11
HETATM   11  N5  UNL     1      24.410   2.137  76.192  1.00  0.00    -0.282 NA
BRANCH  11  12
HETATM   12  C4  UNL     1      24.336   0.814  76.380  1.00  0.00     0.467 C
HETATM   13  O1  UNL     1      24.722  -0.214  75.803  1.00  0.00    -0.266 OA
ENDBRANCH  11  12
ENDBRANCH   9  11
TORSDOF 2
ENDMDL