MODEL 4
REMARK VINA RESULT: -4.459133795      2.259      2.853
REMARK  2 active torsions:
REMARK  status: ('A' for Active; 'I' for Inactive)
REMARK    1  A    between atoms: N1_2  and  C3_5
REMARK    2  A    between atoms: C4_8  and  N4_9
ROOT
HETATM    1  C1  UNL     1      23.428   2.834  77.944  1.00  0.00     0.188 C
HETATM    2  N1  UNL     1      24.292   2.507  76.808  1.00  0.00    -0.120 N
HETATM    3  C2  UNL     1      24.431   1.198  76.394  1.00  0.00     0.198 C
HETATM    4  N2  UNL     1      24.561   0.093  76.056  1.00  0.00    -0.171 NA
ENDROOT
BRANCH   2   5
HETATM    5  C3  UNL     1      24.945   3.623  76.206  1.00  0.00     0.722 A
HETATM    6  N3  UNL     1      26.212   4.057  76.460  1.00  0.00    -0.019 N
HETATM    7  C4  UNL     1      26.494   5.145  75.709  1.00  0.00     0.705 A
ATOM      8  H3  UNL     1      26.856   3.623  77.122  1.00  0.00     0.203 HD
HETATM    9  N5  UNL     1      25.388   5.381  74.989  1.00  0.00    -0.117 N
HETATM   10  N6  UNL     1      24.469   4.481  75.281  1.00  0.00    -0.116 N
ATOM     11  H5  UNL     1      25.275   6.141  74.317  1.00  0.00     0.206 HD
ATOM     12  H6  UNL     1      23.537   4.439  74.868  1.00  0.00     0.206 HD
BRANCH   7  13
HETATM   13  N4  UNL     1      27.610   5.824  75.690  1.00  0.00    -0.233 N
ATOM     14  H42 UNL     1      28.515   5.531  76.057  1.00  0.00     0.174 HD
ATOM     15  H41 UNL     1      27.757   6.757  75.304  1.00  0.00     0.174 HD
ENDBRANCH   7  13
ENDBRANCH   2   5
TORSDOF 2
ENDMDL