MODEL 2
REMARK VINA RESULT: -4.089938725     11.284     11.971
REMARK  1 active torsions:
REMARK  status: ('A' for Active; 'I' for Inactive)
REMARK    1  A    between atoms: S1_2  and  C2_3
ROOT
HETATM    1  C2  UNL     1      23.874   3.801  77.170  1.00  0.00     0.155 A
HETATM    2  N1  UNL     1      23.420   4.999  76.795  1.00  0.00    -0.275 N
ATOM      3  H1  UNL     1      23.562   5.863  77.320  1.00  0.00     0.189 HD
HETATM    4  N2  UNL     1      22.763   4.913  75.655  1.00  0.00    -0.239 N
ATOM      5  H2  UNL     1      22.315   5.678  75.151  1.00  0.00     0.208 HD
HETATM    6  N3  UNL     1      22.798   3.646  75.295  1.00  0.00    -0.249 N
ATOM      7  H3  UNL     1      22.372   3.274  74.446  1.00  0.00     0.192 HD
HETATM    8  C3  UNL     1      23.469   2.917  76.191  1.00  0.00     0.295 A
HETATM    9  O1  UNL     1      23.701   1.661  76.169  1.00  0.00    -0.264 OA
ENDROOT
BRANCH   1  10
HETATM   10  S1  UNL     1      24.817   3.342  78.617  1.00  0.00    -0.110 SA
HETATM   11  C1  UNL     1      23.630   3.151  79.985  1.00  0.00     0.097 C
ENDBRANCH   1  10
TORSDOF 1
ENDMDL