MODEL 1
REMARK VINA RESULT: -4.617731255      0.000      0.000
REMARK  2 active torsions:
REMARK  status: ('A' for Active; 'I' for Inactive)
REMARK    1  A    between atoms: N1_2  and  C3_4
REMARK    2  A    between atoms: C5_11  and  N4_12
ROOT
HETATM    1  C3  UNL     1      25.575   4.293  75.860  1.00  0.00     0.698 A
HETATM    2  N2  UNL     1      26.727   3.601  75.846  1.00  0.00    -0.140 N
ATOM      3  H2  UNL     1      26.689   2.582  75.806  1.00  0.00     0.189 HD
HETATM    4  C4  UNL     1      27.926   4.205  75.885  1.00  0.00     0.352 A
HETATM    5  O1  UNL     1      28.985   3.529  75.872  1.00  0.00    -0.246 OA
HETATM    6  N3  UNL     1      27.907   5.549  75.939  1.00  0.00    -0.141 N
ATOM      7  H3  UNL     1      28.795   6.051  75.970  1.00  0.00     0.189 HD
HETATM    8  C5  UNL     1      26.763   6.257  75.954  1.00  0.00     0.694 A
HETATM    9  N5  UNL     1      25.567   5.641  75.914  1.00  0.00    -0.022 N
ATOM     10  H5  UNL     1      24.695   6.169  75.926  1.00  0.00     0.203 HD
ENDROOT
BRANCH   1  11
HETATM   11  N1  UNL     1      24.287   3.641  75.821  1.00  0.00    -0.226 N
HETATM   12  C1  UNL     1      23.209   4.427  75.255  1.00  0.00     0.168 C
HETATM   13  C2  UNL     1      24.085   2.314  76.323  1.00  0.00     0.168 C
ENDBRANCH   1  11
BRANCH   8  14
HETATM   14  N4  UNL     1      26.843   7.530  76.013  1.00  0.00    -0.234 N
ATOM     15  H42 UNL     1      27.597   7.984  76.528  1.00  0.00     0.174 HD
ATOM     16  H41 UNL     1      26.135   8.080  75.525  1.00  0.00     0.174 HD
ENDBRANCH   8  14
TORSDOF 2
ENDMDL