MODEL 4
REMARK VINA RESULT: -4.494956405      2.001      3.644
REMARK  1 active torsions:
REMARK  status: ('A' for Active; 'I' for Inactive)
REMARK       I    between atoms: C2_2  and  N1_4
REMARK       I    between atoms: N1_4  and  C3_6
REMARK       I    between atoms: C3_6  and  N3_10
REMARK    1  A    between atoms: N3_10  and  N4_12
ROOT
HETATM    1  C1  UNL     1      27.472  -0.000  82.610  1.00  0.00     0.118 C
HETATM    2  C2  UNL     1      28.875  -0.359  82.874  1.00  0.00     0.232 C
HETATM    3  O1  UNL     1      29.131  -1.293  83.650  1.00  0.00    -0.273 OA
HETATM    4  N1  UNL     1      29.920   0.346  82.257  1.00  0.00    -0.159 N
ATOM      5  H1  UNL     1      29.679   1.109  81.625  1.00  0.00     0.187 HD
HETATM    6  C3  UNL     1      31.289   0.058  82.463  1.00  0.00     0.697 C
HETATM    7  N2  UNL     1      32.256   0.692  81.908  1.00  0.00    -0.233 N
ATOM      8  H21 UNL     1      33.243   0.484  82.057  1.00  0.00     0.174 HD
ATOM      9  H22 UNL     1      32.041   1.459  81.272  1.00  0.00     0.174 HD
HETATM   10  N3  UNL     1      31.589  -1.010  83.349  1.00  0.00    -0.072 N
ATOM     11  H3  UNL     1      31.415  -1.961  83.022  1.00  0.00     0.212 HD
ENDROOT
BRANCH  10  12
HETATM   12  N4  UNL     1      32.097  -0.853  84.619  1.00  0.00    -0.024 N
HETATM   13  O2  UNL     1      33.301  -0.599  84.774  1.00  0.00    -0.516 OA
HETATM   14  O3  UNL     1      31.331  -0.961  85.768  1.00  0.00    -0.516 OA
ENDBRANCH  10  12
TORSDOF 1
ENDMDL