MODEL 5
REMARK VINA RESULT: -3.926897576     10.332     10.833
REMARK  3 active torsions:
REMARK  status: ('A' for Active; 'I' for Inactive)
REMARK    1  A    between atoms: S1_2  and  C2_3
REMARK    2  A    between atoms: C3_6  and  N2_7
REMARK    3  A    between atoms: N4_12  and  O1_13
ROOT
HETATM    1  C2  UNL     1      31.272   0.426  83.429  1.00  0.00     0.204 A
HETATM    2  N1  UNL     1      32.301  -0.140  82.769  1.00  0.00    -0.166 N
ATOM      3  H1  UNL     1      32.228  -0.759  81.961  1.00  0.00     0.186 HD
HETATM    4  C3  UNL     1      33.440   0.256  83.361  1.00  0.00     0.694 A
HETATM    5  N3  UNL     1      33.140   1.066  84.389  1.00  0.00    -0.104 N
ATOM      6  H3  UNL     1      33.796   1.520  85.023  1.00  0.00     0.208 HD
HETATM    7  N4  UNL     1      31.822   1.156  84.412  1.00  0.00    -0.124 N
ENDROOT
BRANCH   4   8
HETATM    8  N2  UNL     1      34.657  -0.067  83.029  1.00  0.00    -0.233 N
ATOM      9  H22 UNL     1      35.281  -0.607  83.627  1.00  0.00     0.174 HD
ATOM     10  H21 UNL     1      35.144   0.163  82.162  1.00  0.00     0.174 HD
ENDBRANCH   4   8
BRANCH   1  11
HETATM   11  S1  UNL     1      29.523   0.261  83.093  1.00  0.00    -0.094 SA
HETATM   12  C1  UNL     1      28.827   1.839  82.515  1.00  0.00     0.099 C
ENDBRANCH   1  11
BRANCH   7  13
HETATM   13  O1  UNL     1      31.168   1.927  85.366  1.00  0.00    -0.265 OA
ATOM     14  H1  UNL     1      31.510   2.673  85.844  1.00  0.00     0.247 HD
ENDBRANCH   7  13
TORSDOF 3
ENDMDL