MODEL 2
REMARK VINA RESULT: -4.481615820      9.004     10.356
REMARK  2 active torsions:
REMARK  status: ('A' for Active; 'I' for Inactive)
REMARK    1  A    between atoms: C2_2  and  N1_5
REMARK    2  A    between atoms: C5_10  and  N5_11
ROOT
HETATM    1  N1  UNL     1      31.527   1.279  83.785  1.00  0.00    -0.100 N
HETATM    2  N2  UNL     1      32.445   1.294  84.758  1.00  0.00     0.010 NA
HETATM    3  N3  UNL     1      33.503   0.566  84.369  1.00  0.00     0.007 NA
HETATM    4  N4  UNL     1      33.244   0.099  83.155  1.00  0.00    -0.117 N
ATOM      5  H4  UNL     1      33.863  -0.489  82.598  1.00  0.00     0.202 HD
HETATM    6  C5  UNL     1      32.026   0.533  82.785  1.00  0.00     0.704 A
ENDROOT
BRANCH   1   7
HETATM    7  C2  UNL     1      30.227   1.930  83.767  1.00  0.00     0.059 C
HETATM    8  C1  UNL     1      29.987   2.520  85.163  1.00  0.00     0.040 C
HETATM    9  C3  UNL     1      29.131   0.954  83.407  1.00  0.00     0.040 C
HETATM   10  C4  UNL     1      30.192   3.103  82.810  1.00  0.00     0.040 C
ENDBRANCH   1   7
BRANCH   6  11
HETATM   11  N5  UNL     1      31.452   0.273  81.669  1.00  0.00    -0.232 N
ATOM     12  H52 UNL     1      31.447   0.882  80.851  1.00  0.00     0.174 HD
ATOM     13  H51 UNL     1      30.925  -0.570  81.441  1.00  0.00     0.174 HD
ENDBRANCH   6  11
TORSDOF 2
ENDMDL