MODEL 5
REMARK VINA RESULT: -8.539246302      8.977     12.647
REMARK  17 active torsions:
REMARK  status: ('A' for Active; 'I' for Inactive)
REMARK    1  A    between atoms: C2_2  and  C3_3
REMARK    2  A    between atoms: C3_3  and  C4_4
REMARK    3  A    between atoms: C4_4  and  O1_5
REMARK    4  A    between atoms: O1_5  and  C5_6
REMARK    5  A    between atoms: C5_6  and  C6_8
REMARK    6  A    between atoms: C6_8  and  C7_9
REMARK    7  A    between atoms: C9_11  and  C10_12
REMARK    8  A    between atoms: C10_12  and  O3_13
REMARK    9  A    between atoms: O3_13  and  C11_14
REMARK   10  A    between atoms: C12_16  and  O5_17
REMARK   11  A    between atoms: C13_19  and  O6_21
REMARK   12  A    between atoms: C15_23  and  O7_24
REMARK   13  A    between atoms: C18_29  and  O10_30
REMARK   14  A    between atoms: O10_30  and  C19_31
REMARK   15  A    between atoms: C22_35  and  O12_36
REMARK   16  A    between atoms: C23_38  and  O13_39
REMARK   17  A    between atoms: C24_41  and  O14_42
ROOT
HETATM    1  C7  UNL     1      97.155 -20.161 -13.150  1.00  0.00     0.028 C
HETATM    2  C8  UNL     1      98.671 -20.415 -13.275  1.00  0.00     0.042 C
HETATM    3  C9  UNL     1      99.259 -19.235 -13.976  1.00  0.00     0.145 C
HETATM    4  O9  UNL     1      99.090 -18.149 -13.079  1.00  0.00    -0.381 OA
HETATM    5  C17 UNL     1      97.777 -17.752 -13.311  1.00  0.00     0.200 C
HETATM    6  C18 UNL     1      96.879 -18.815 -12.636  1.00  0.00     0.153 C
ENDROOT
BRANCH   3   7
HETATM    7  C10 UNL     1     100.707 -19.419 -14.333  1.00  0.00     0.205 C
BRANCH   7   8
HETATM    8  O3  UNL     1     101.220 -20.591 -13.780  1.00  0.00    -0.336 OA
BRANCH   8   9
HETATM    9  C11 UNL     1     101.657 -21.373 -14.831  1.00  0.00     0.417 C
HETATM   10  O4  UNL     1     101.387 -22.738 -14.584  1.00  0.00    -0.305 OA
HETATM   11  C12 UNL     1     101.474 -23.345 -15.858  1.00  0.00     0.301 C
HETATM   12  C13 UNL     1     102.858 -23.225 -16.404  1.00  0.00     0.153 C
HETATM   13  C14 UNL     1     102.850 -23.558 -17.883  1.00  0.00     0.056 C
HETATM   14  C15 UNL     1     103.471 -21.869 -16.164  1.00  0.00     0.303 C
HETATM   15  O8  UNL     1     103.010 -21.245 -15.012  1.00  0.00    -0.305 OA
BRANCH  11  16
HETATM   16  O5  UNL     1     101.057 -24.666 -15.832  1.00  0.00    -0.368 OA
ATOM     17  H5  UNL     1     100.154 -24.760 -16.109  1.00  0.00     0.212 HD
ENDBRANCH  11  16
BRANCH  12  18
HETATM   18  O6  UNL     1     103.661 -24.186 -15.789  1.00  0.00    -0.380 OA
ATOM     19  H6  UNL     1     104.570 -23.983 -15.976  1.00  0.00     0.211 HD
ENDBRANCH  12  18
BRANCH  14  20
HETATM   20  O7  UNL     1     104.840 -22.063 -15.977  1.00  0.00    -0.363 OA
HETATM   21  C16 UNL     1     105.490 -20.858 -15.690  1.00  0.00     0.204 C
ENDBRANCH  14  20
ENDBRANCH   8   9
ENDBRANCH   7   8
ENDBRANCH   3   7
BRANCH   1  22
HETATM   22  C6  UNL     1      96.544 -21.291 -12.391  1.00  0.00     0.118 C
BRANCH  22  23
HETATM   23  C5  UNL     1      96.909 -22.635 -12.830  1.00  0.00     0.259 C
HETATM   24  O2  UNL     1      97.350 -23.480 -12.028  1.00  0.00    -0.265 OA
BRANCH  23  25
HETATM   25  O1  UNL     1      96.772 -22.996 -14.153  1.00  0.00    -0.321 OA
BRANCH  25  26
HETATM   26  C4  UNL     1      97.784 -23.281 -15.058  1.00  0.00     0.178 C
BRANCH  26  27
HETATM   27  C3  UNL     1      97.481 -24.411 -16.005  1.00  0.00     0.026 C
BRANCH  27  28
HETATM   28  C2  UNL     1      95.992 -24.566 -16.239  1.00  0.00    -0.002 C
HETATM   29  C1  UNL     1      95.659 -24.956 -17.639  1.00  0.00     0.005 C
ENDBRANCH  27  28
ENDBRANCH  26  27
ENDBRANCH  25  26
ENDBRANCH  23  25
ENDBRANCH  22  23
ENDBRANCH   1  22
BRANCH   6  30
HETATM   30  O10 UNL     1      95.561 -18.419 -12.756  1.00  0.00    -0.351 OA
BRANCH  30  31
HETATM   31  C19 UNL     1      95.401 -17.096 -13.196  1.00  0.00     0.292 C
HETATM   32  O11 UNL     1      94.380 -17.216 -14.171  1.00  0.00    -0.351 OA
HETATM   33  C20 UNL     1      93.919 -16.039 -14.670  1.00  0.00     0.152 C
HETATM   34  C21 UNL     1      92.393 -16.041 -14.468  1.00  0.00     0.042 C
HETATM   35  C22 UNL     1      94.431 -14.819 -13.991  1.00  0.00     0.178 C
HETATM   36  C23 UNL     1      94.252 -14.956 -12.507  1.00  0.00     0.183 C
HETATM   37  C24 UNL     1      94.871 -16.272 -12.078  1.00  0.00     0.204 C
BRANCH  35  38
HETATM   38  O12 UNL     1      93.677 -13.708 -14.415  1.00  0.00    -0.390 OA
ATOM     39  H12 UNL     1      93.241 -13.326 -13.663  1.00  0.00     0.210 HD
ENDBRANCH  35  38
BRANCH  36  40
HETATM   40  O13 UNL     1      92.942 -14.853 -12.089  1.00  0.00    -0.390 OA
ATOM     41  H13 UNL     1      92.528 -15.688 -11.908  1.00  0.00     0.210 HD
ENDBRANCH  36  40
BRANCH  37  42
HETATM   42  O14 UNL     1      95.767 -15.960 -11.079  1.00  0.00    -0.388 OA
ATOM     43  H14 UNL     1      95.683 -16.458 -10.273  1.00  0.00     0.210 HD
ENDBRANCH  37  42
ENDBRANCH  30  31
ENDBRANCH   6  30
TORSDOF 17
ENDMDL