MODEL 3
REMARK VINA RESULT: -8.481798225      2.452      3.177
REMARK  15 active torsions:
REMARK  status: ('A' for Active; 'I' for Inactive)
REMARK    1  A    between atoms: C2_2  and  O1_3
REMARK    2  A    between atoms: O1_3  and  N1_4
REMARK    3  A    between atoms: N1_4  and  C3_6
REMARK    4  A    between atoms: C5_11  and  C6_12
REMARK       I    between atoms: C6_12  and  N3_14
REMARK    5  A    between atoms: N3_14  and  C7_16
REMARK    6  A    between atoms: C7_16  and  O4_17
REMARK    7  A    between atoms: C7_16  and  C8_19
REMARK    8  A    between atoms: C8_19  and  C9_20
REMARK    9  A    between atoms: C8_19  and  O5_26
REMARK   10  A    between atoms: C9_20  and  C10_21
REMARK   11  A    between atoms: C10_21  and  N4_22
REMARK   12  A    between atoms: O5_26  and  C11_27
REMARK   13  A    between atoms: C12_28  and  O6_29
REMARK   14  A    between atoms: O6_29  and  C13_30
REMARK   15  A    between atoms: C22_41  and  O9_42
ROOT
HETATM    1  C8  UNL     1     106.724 -21.691 -18.240  1.00  0.00     0.181 C
ENDROOT
BRANCH   1   2
HETATM    2  C7  UNL     1     106.379 -20.499 -18.916  1.00  0.00     0.250 C
BRANCH   2   3
HETATM    3  N3  UNL     1     105.516 -19.819 -19.812  1.00  0.00    -0.327 N
HETATM    4  C6  UNL     1     104.933 -20.666 -20.858  1.00  0.00     0.277 C
HETATM    5  O3  UNL     1     105.388 -21.854 -20.974  1.00  0.00    -0.266 OA
ATOM      6  H3  UNL     1     105.316 -18.821 -19.735  1.00  0.00     0.165 HD
BRANCH   4   7
HETATM    7  C5  UNL     1     103.868 -20.318 -21.734  1.00  0.00     0.185 A
HETATM    8  C4  UNL     1     104.498 -19.241 -22.527  1.00  0.00     0.293 A
HETATM    9  N2  UNL     1     103.758 -18.582 -23.430  1.00  0.00    -0.151 N
HETATM   10  O2  UNL     1     105.670 -18.956 -22.314  1.00  0.00    -0.265 OA
HETATM   11  C3  UNL     1     102.523 -18.944 -23.516  1.00  0.00     0.721 A
ATOM     12  H2  UNL     1     104.147 -17.839 -24.012  1.00  0.00     0.188 HD
HETATM   13  N6  UNL     1     101.857 -19.946 -22.843  1.00  0.00    -0.126 N
HETATM   14  N5  UNL     1     102.651 -20.603 -21.937  1.00  0.00    -0.275 N
HETATM   15  C23 UNL     1     100.482 -20.150 -23.114  1.00  0.00     0.197 C
ATOM     16  H5  UNL     1     102.238 -21.363 -21.398  1.00  0.00     0.188 HD
BRANCH  11  17
HETATM   17  N1  UNL     1     101.685 -18.011 -23.899  1.00  0.00    -0.095 N
ATOM     18  H1  UNL     1     100.801 -18.401 -23.574  1.00  0.00     0.213 HD
BRANCH  17  19
HETATM   19  O1  UNL     1     101.329 -17.036 -24.368  1.00  0.00    -0.267 OA
BRANCH  19  20
HETATM   20  C2  UNL     1     100.590 -15.870 -24.213  1.00  0.00     0.197 C
HETATM   21  C1  UNL     1     101.228 -15.473 -22.758  1.00  0.00     0.036 C
ENDBRANCH  19  20
ENDBRANCH  17  19
ENDBRANCH  11  17
ENDBRANCH   4   7
ENDBRANCH   2   3
BRANCH   2  22
HETATM   22  O4  UNL     1     107.631 -20.324 -19.827  1.00  0.00    -0.374 OA
ATOM     23  H4  UNL     1     107.128 -20.360 -20.632  1.00  0.00     0.212 HD
ENDBRANCH   2  22
ENDBRANCH   1   2
BRANCH   1  24
HETATM   24  C9  UNL     1     108.065 -22.322 -18.415  1.00  0.00     0.064 C
BRANCH  24  25
HETATM   25  C10 UNL     1     108.453 -23.494 -17.576  1.00  0.00     0.232 C
BRANCH  25  26
HETATM   26  N4  UNL     1     108.086 -24.814 -17.917  1.00  0.00    -0.079 N
ATOM     27  H43 UNL     1     107.714 -25.259 -17.077  1.00  0.00     0.274 HD
ATOM     28  H42 UNL     1     107.261 -24.762 -18.515  1.00  0.00     0.274 HD
ATOM     29  H41 UNL     1     108.742 -25.464 -18.348  1.00  0.00     0.274 HD
ENDBRANCH  25  26
ENDBRANCH  24  25
ENDBRANCH   1  24
BRANCH   1  30
HETATM   30  O5  UNL     1     106.132 -21.896 -16.948  1.00  0.00    -0.317 OA
BRANCH  30  31
HETATM   31  C11 UNL     1     104.784 -22.061 -16.923  1.00  0.00     0.243 C
HETATM   32  C12 UNL     1     104.024 -21.244 -16.244  1.00  0.00     0.241 C
HETATM   33  O7  UNL     1     102.646 -21.463 -16.269  1.00  0.00    -0.310 OA
HETATM   34  C15 UNL     1     102.073 -22.782 -16.155  1.00  0.00     0.124 C
HETATM   35  C16 UNL     1     100.922 -22.802 -17.178  1.00  0.00     0.070 C
HETATM   36  C21 UNL     1     101.609 -22.955 -14.745  1.00  0.00     0.081 C
HETATM   37  C22 UNL     1     103.082 -23.782 -16.648  1.00  0.00     0.301 C
HETATM   38  C17 UNL     1      99.939 -23.844 -16.872  1.00  0.00     0.172 C
HETATM   39  O8  UNL     1      99.918 -24.316 -15.561  1.00  0.00    -0.381 OA
HETATM   40  C18 UNL     1     100.135 -23.285 -14.652  1.00  0.00     0.056 C
HETATM   41  C19 UNL     1      99.934 -23.799 -13.247  1.00  0.00     0.045 C
HETATM   42  C20 UNL     1      99.236 -22.099 -14.854  1.00  0.00     0.045 C
HETATM   43  O10 UNL     1     104.013 -23.099 -17.578  1.00  0.00    -0.292 OA
BRANCH  32  44
HETATM   44  O6  UNL     1     104.406 -20.122 -15.451  1.00  0.00    -0.327 OA
BRANCH  44  45
HETATM   45  C13 UNL     1     103.253 -19.345 -15.053  1.00  0.00     0.173 C
HETATM   46  C14 UNL     1     103.179 -19.240 -13.581  1.00  0.00     0.034 C
ENDBRANCH  44  45
ENDBRANCH  32  44
BRANCH  37  47
HETATM   47  O9  UNL     1     103.849 -24.373 -15.696  1.00  0.00    -0.368 OA
ATOM     48  H9  UNL     1     103.529 -24.310 -14.804  1.00  0.00     0.212 HD
ENDBRANCH  37  47
ENDBRANCH  30  31
ENDBRANCH   1  30
TORSDOF 15
ENDMDL