MODEL 4
REMARK VINA RESULT: -9.346672777      1.996      2.911
REMARK  14 active torsions:
REMARK  status: ('A' for Active; 'I' for Inactive)
REMARK    1  A    between atoms: N1_1  and  C1_4
REMARK    2  A    between atoms: C2_7  and  N3_8
REMARK    3  A    between atoms: C4_14  and  C5_15
REMARK    4  A    between atoms: C5_15  and  N5_16
REMARK    5  A    between atoms: N5_16  and  C6_17
REMARK    6  A    between atoms: N5_16  and  C12_25
REMARK    7  A    between atoms: C6_17  and  C7_18
REMARK    8  A    between atoms: C7_18  and  N6_19
REMARK    9  A    between atoms: C12_25  and  C13_26
REMARK   10  A    between atoms: N7_28  and  C15_29
REMARK   11  A    between atoms: C16_31  and  C17_32
REMARK   12  A    between atoms: C17_32  and  O3_33
REMARK   13  A    between atoms: N8_36  and  N9_37
REMARK   14  A    between atoms: N9_37  and  O4_39
ROOT
HETATM    1  N5  UNL     1     101.599 -21.042 -14.423  1.00  0.00    -0.379 N
ENDROOT
BRANCH   1   2
HETATM    2  C5  UNL     1     101.243 -22.369 -14.430  1.00  0.00     0.117 C
BRANCH   2   3
HETATM    3  C4  UNL     1      99.933 -22.781 -14.933  1.00  0.00     0.063 A
HETATM    4  N4  UNL     1      99.761 -22.968 -16.252  1.00  0.00    -0.348 N
HETATM    5  C3  UNL     1      98.585 -23.353 -16.781  1.00  0.00     0.122 A
ATOM      6  H4  UNL     1     100.553 -22.813 -16.876  1.00  0.00     0.166 HD
HETATM    7  C2  UNL     1      98.386 -23.563 -18.134  1.00  0.00     0.145 A
HETATM    8  C23 UNL     1      97.497 -23.565 -15.941  1.00  0.00     0.151 A
HETATM    9  N2  UNL     1      97.199 -23.955 -18.627  1.00  0.00    -0.175 N
HETATM   10  C1  UNL     1      96.150 -24.160 -17.813  1.00  0.00     0.679 A
ATOM     11  H2  UNL     1      97.093 -24.098 -19.631  1.00  0.00     0.186 HD
HETATM   12  N11 UNL     1      96.334 -23.957 -16.492  1.00  0.00    -0.174 N
ATOM     13  H11 UNL     1      95.539 -24.110 -15.870  1.00  0.00     0.186 HD
HETATM   14  N10 UNL     1      97.651 -23.381 -14.619  1.00  0.00    -0.348 N
HETATM   15  C22 UNL     1      98.857 -22.993 -14.109  1.00  0.00     0.120 A
ATOM     16  H10 UNL     1      96.862 -23.534 -13.992  1.00  0.00     0.167 HD
BRANCH   7  17
HETATM   17  N3  UNL     1      99.352 -23.382 -18.972  1.00  0.00    -0.383 N
ATOM     18  H32 UNL     1      99.222 -23.592 -19.962  1.00  0.00     0.157 HD
ATOM     19  H31 UNL     1     100.235 -23.028 -18.606  1.00  0.00     0.157 HD
ENDBRANCH   7  17
BRANCH  10  20
HETATM   20  N1  UNL     1      95.009 -24.546 -18.266  1.00  0.00    -0.234 N
ATOM     21  H12 UNL     1      94.541 -24.026 -19.008  1.00  0.00     0.174 HD
ATOM     22  H11 UNL     1      94.537 -25.371 -17.896  1.00  0.00     0.174 HD
ENDBRANCH  10  20
ENDBRANCH   2   3
ENDBRANCH   1   2
BRANCH   1  23
HETATM   23  C6  UNL     1     101.371 -20.203 -13.310  1.00  0.00     0.167 C
BRANCH  23  24
HETATM   24  C7  UNL     1     101.455 -18.744 -13.761  1.00  0.00     0.078 C
BRANCH  24  25
HETATM   25  N6  UNL     1     102.411 -17.962 -13.116  1.00  0.00    -0.388 N
HETATM   26  C8  UNL     1     102.488 -16.577 -13.313  1.00  0.00     0.148 C
HETATM   27  C9  UNL     1     103.984 -16.225 -13.473  1.00  0.00     0.187 C
HETATM   28  O1  UNL     1     104.665 -16.415 -12.270  1.00  0.00    -0.388 OA
HETATM   29  C10 UNL     1     104.506 -17.708 -11.822  1.00  0.00     0.187 C
HETATM   30  C11 UNL     1     103.623 -18.564 -12.704  1.00  0.00     0.148 C
ENDBRANCH  24  25
ENDBRANCH  23  24
ENDBRANCH   1  23
BRANCH   1  31
HETATM   31  C12 UNL     1     102.024 -20.364 -15.604  1.00  0.00     0.165 C
BRANCH  31  32
HETATM   32  C13 UNL     1     103.130 -21.122 -16.250  1.00  0.00     0.013 A
HETATM   33  C14 UNL     1     104.476 -21.055 -15.870  1.00  0.00     0.109 A
HETATM   34  N7  UNL     1     105.202 -21.911 -16.604  1.00  0.00    -0.289 N
HETATM   35  C19 UNL     1     104.352 -22.529 -17.457  1.00  0.00     0.185 A
HETATM   36  C20 UNL     1     103.073 -22.049 -17.244  1.00  0.00     0.132 A
HETATM   37  O6  UNL     1     104.279 -23.489 -18.495  1.00  0.00    -0.307 OA
HETATM   38  O5  UNL     1     102.258 -22.713 -18.135  1.00  0.00    -0.321 OA
HETATM   39  C21 UNL     1     103.045 -23.330 -19.159  1.00  0.00     0.353 C
BRANCH  34  40
HETATM   40  C15 UNL     1     106.625 -22.223 -16.548  1.00  0.00     0.356 C
HETATM   41  O2  UNL     1     106.821 -23.590 -16.526  1.00  0.00    -0.338 OA
HETATM   42  C16 UNL     1     107.855 -23.952 -17.347  1.00  0.00     0.169 C
HETATM   43  C18 UNL     1     108.347 -22.691 -18.041  1.00  0.00     0.183 C
HETATM   44  N8  UNL     1     107.302 -21.765 -17.725  1.00  0.00    -0.259 N
BRANCH  42  45
HETATM   45  C17 UNL     1     109.024 -24.441 -16.507  1.00  0.00     0.197 C
BRANCH  45  46
HETATM   46  O3  UNL     1     110.084 -24.892 -17.273  1.00  0.00    -0.398 OA
ATOM     47  H3  UNL     1     110.689 -25.436 -16.782  1.00  0.00     0.209 HD
ENDBRANCH  45  46
ENDBRANCH  42  45
BRANCH  44  48
HETATM   48  N9  UNL     1     107.010 -20.623 -18.449  1.00  0.00    -0.209 N
ATOM     49  H9  UNL     1     106.254 -20.011 -18.143  1.00  0.00     0.215 HD
BRANCH  48  50
HETATM   50  O4  UNL     1     107.670 -20.328 -19.488  1.00  0.00    -0.274 OA
ATOM     51  H4  UNL     1     107.327 -20.519 -20.353  1.00  0.00     0.246 HD
ENDBRANCH  48  50
ENDBRANCH  44  48
ENDBRANCH  34  40
ENDBRANCH  31  32
ENDBRANCH   1  31
TORSDOF 14
ENDMDL