MODEL 4
REMARK VINA RESULT: -7.210248487      1.628      2.068
REMARK  16 active torsions:
REMARK  status: ('A' for Active; 'I' for Inactive)
REMARK    1  A    between atoms: C2_2  and  O1_3
REMARK    2  A    between atoms: O1_3  and  C3_4
REMARK    3  A    between atoms: C4_6  and  S1_7
REMARK    4  A    between atoms: C6_9  and  O3_10
REMARK    5  A    between atoms: C8_12  and  O4_13
REMARK    6  A    between atoms: C9_15  and  O5_16
REMARK    7  A    between atoms: O5_16  and  C10_17
REMARK    8  A    between atoms: C11_18  and  O6_19
REMARK    9  A    between atoms: O6_19  and  C12_20
REMARK   10  A    between atoms: C14_22  and  O7_23
REMARK   11  A    between atoms: C15_25  and  O8_26
REMARK   12  A    between atoms: C17_31  and  C18_32
REMARK   13  A    between atoms: C18_32  and  O11_33
REMARK   14  A    between atoms: C19_35  and  O12_36
REMARK   15  A    between atoms: O12_36  and  C20_37
REMARK   16  A    between atoms: C23_40  and  O13_41
ROOT
HETATM    1  C10 UNL     1     102.789 -21.352 -16.030  1.00  0.00     0.208 C
HETATM    2  C11 UNL     1     102.490 -22.089 -17.314  1.00  0.00     0.295 C
HETATM    3  O10 UNL     1     101.188 -22.027 -17.691  1.00  0.00    -0.348 OA
HETATM    4  C17 UNL     1     100.242 -22.337 -16.770  1.00  0.00     0.179 C
HETATM    5  C19 UNL     1     100.557 -22.080 -15.335  1.00  0.00     0.184 C
HETATM    6  C23 UNL     1     101.994 -22.183 -14.999  1.00  0.00     0.183 C
ENDROOT
BRANCH   1   7
HETATM    7  O5  UNL     1     102.314 -20.066 -16.064  1.00  0.00    -0.365 OA
BRANCH   7   8
HETATM    8  C9  UNL     1     103.009 -19.109 -15.403  1.00  0.00     0.208 C
HETATM    9  C3  UNL     1     102.490 -18.697 -14.053  1.00  0.00     0.292 C
HETATM   10  O2  UNL     1     103.226 -19.229 -13.005  1.00  0.00    -0.340 OA
HETATM   11  C4  UNL     1     104.569 -18.901 -13.002  1.00  0.00     0.217 C
HETATM   12  C6  UNL     1     105.064 -18.365 -14.298  1.00  0.00     0.191 C
HETATM   13  C8  UNL     1     104.506 -19.354 -15.362  1.00  0.00     0.184 C
BRANCH   9  14
HETATM   14  O1  UNL     1     101.164 -19.103 -13.824  1.00  0.00    -0.359 OA
BRANCH  14  15
HETATM   15  C2  UNL     1     100.303 -18.025 -13.620  1.00  0.00     0.166 C
HETATM   16  C1  UNL     1      99.750 -17.480 -14.910  1.00  0.00     0.033 C
ENDBRANCH  14  15
ENDBRANCH   9  14
BRANCH  11  17
HETATM   17  S1  UNL     1     105.026 -17.898 -11.569  1.00  0.00    -0.139 SA
HETATM   18  C5  UNL     1     106.788 -18.151 -11.241  1.00  0.00     0.092 C
ENDBRANCH  11  17
BRANCH  12  19
HETATM   19  O3  UNL     1     104.728 -17.086 -14.619  1.00  0.00    -0.385 OA
HETATM   20  C7  UNL     1     105.727 -16.179 -14.797  1.00  0.00     0.202 C
ENDBRANCH  12  19
BRANCH  13  21
HETATM   21  O4  UNL     1     105.117 -18.985 -16.557  1.00  0.00    -0.390 OA
ATOM     22  H4  UNL     1     105.370 -18.077 -16.436  1.00  0.00     0.210 HD
ENDBRANCH  13  21
ENDBRANCH   7   8
ENDBRANCH   1   7
BRANCH   2  23
HETATM   23  O6  UNL     1     103.320 -21.803 -18.366  1.00  0.00    -0.329 OA
BRANCH  23  24
HETATM   24  C12 UNL     1     104.665 -21.928 -18.090  1.00  0.00     0.265 C
HETATM   25  C13 UNL     1     105.537 -21.119 -19.019  1.00  0.00     0.095 C
HETATM   26  C14 UNL     1     106.978 -21.388 -18.602  1.00  0.00     0.153 C
HETATM   27  C15 UNL     1     107.254 -22.837 -18.931  1.00  0.00     0.170 C
HETATM   28  C16 UNL     1     105.943 -23.560 -19.126  1.00  0.00     0.205 C
HETATM   29  O9  UNL     1     105.015 -23.252 -18.150  1.00  0.00    -0.358 OA
BRANCH  26  30
HETATM   30  O7  UNL     1     107.842 -20.516 -19.221  1.00  0.00    -0.393 OA
ATOM     31  H7  UNL     1     107.378 -19.759 -19.559  1.00  0.00     0.210 HD
ENDBRANCH  26  30
BRANCH  27  32
HETATM   32  O8  UNL     1     108.004 -22.869 -20.096  1.00  0.00    -0.391 OA
ATOM     33  H8  UNL     1     108.459 -22.038 -20.168  1.00  0.00     0.210 HD
ENDBRANCH  27  32
ENDBRANCH  23  24
ENDBRANCH   2  23
BRANCH   6  34
HETATM   34  O13 UNL     1     102.422 -23.500 -15.105  1.00  0.00    -0.390 OA
ATOM     35  H13 UNL     1     101.671 -24.025 -15.356  1.00  0.00     0.210 HD
ENDBRANCH   6  34
BRANCH   5  36
HETATM   36  O12 UNL     1      99.756 -22.885 -14.496  1.00  0.00    -0.376 OA
BRANCH  36  37
HETATM   37  C20 UNL     1      99.365 -22.184 -13.391  1.00  0.00     0.114 C
HETATM   38  C21 UNL     1      98.181 -21.278 -13.645  1.00  0.00     0.039 C
HETATM   39  C22 UNL     1      98.936 -23.201 -12.339  1.00  0.00     0.039 C
ENDBRANCH  36  37
ENDBRANCH   5  36
BRANCH   4  40
HETATM   40  C18 UNL     1      99.964 -23.846 -16.909  1.00  0.00     0.198 C
BRANCH  40  41
HETATM   41  O11 UNL     1      98.556 -23.944 -16.822  1.00  0.00    -0.398 OA
ATOM     42  H11 UNL     1      98.372 -23.804 -15.901  1.00  0.00     0.209 HD
ENDBRANCH  40  41
ENDBRANCH   4  40
TORSDOF 16
ENDMDL