MODEL 1
REMARK VINA RESULT: -6.764479205      0.000      0.000
REMARK  14 active torsions:
REMARK  status: ('A' for Active; 'I' for Inactive)
REMARK    1  A    between atoms: O1_2  and  C2_3
REMARK    2  A    between atoms: C2_3  and  C3_5
REMARK    3  A    between atoms: C4_6  and  N1_7
REMARK    4  A    between atoms: N1_7  and  C6_9
REMARK    5  A    between atoms: C6_9  and  C7_10
REMARK    6  A    between atoms: C7_10  and  S1_11
REMARK    7  A    between atoms: S1_11  and  C8_12
REMARK    8  A    between atoms: C8_12  and  C9_13
REMARK    9  A    between atoms: C9_13  and  N2_14
REMARK   10  A    between atoms: C9_13  and  N3_18
REMARK   11  A    between atoms: C10_23  and  C11_24
REMARK   12  A    between atoms: C17_36  and  O5_37
REMARK   13  A    between atoms: C20_40  and  O6_41
REMARK   14  A    between atoms: O6_41  and  C21_42
ROOT
HETATM    1  C3  UNL     1     102.904 -20.083 -15.351  1.00  0.00     0.097 C
HETATM    2  C4  UNL     1     102.470 -19.115 -14.539  1.00  0.00     0.122 C
HETATM    3  N4  UNL     1     103.543 -18.221 -14.281  1.00  0.00    -0.311 N
HETATM    4  C10 UNL     1     103.838 -16.896 -13.780  1.00  0.00     0.139 C
HETATM    5  C16 UNL     1     104.352 -16.181 -15.056  1.00  0.00     0.109 C
HETATM    6  S2  UNL     1     105.633 -17.430 -15.496  1.00  0.00    -0.101 SA
HETATM    7  C17 UNL     1     104.771 -18.857 -14.718  1.00  0.00     0.222 C
HETATM    8  C19 UNL     1     104.278 -19.729 -15.792  1.00  0.00     0.051 C
HETATM    9  C20 UNL     1     104.847 -20.153 -16.895  1.00  0.00     0.161 C
ENDROOT
BRANCH   2  10
HETATM   10  N1  UNL     1     101.126 -19.128 -14.068  1.00  0.00    -0.370 N
HETATM   11  C5  UNL     1     100.077 -18.444 -14.856  1.00  0.00     0.151 C
BRANCH  10  12
HETATM   12  C6  UNL     1     100.772 -19.835 -12.878  1.00  0.00     0.134 C
BRANCH  12  13
HETATM   13  C7  UNL     1      99.343 -20.338 -12.874  1.00  0.00     0.093 C
BRANCH  13  14
HETATM   14  S1  UNL     1      99.381 -22.113 -13.206  1.00  0.00    -0.164 SA
BRANCH  14  15
HETATM   15  C8  UNL     1      98.631 -22.575 -14.764  1.00  0.00     0.136 C
BRANCH  15  16
HETATM   16  C9  UNL     1      99.166 -23.840 -15.368  1.00  0.00     0.387 C
BRANCH  16  17
HETATM   17  N2  UNL     1      99.609 -23.627 -16.743  1.00  0.00    -0.050 N
ATOM     18  H23 UNL     1     100.539 -23.209 -16.775  1.00  0.00     0.276 HD
ATOM     19  H22 UNL     1      99.818 -24.510 -17.209  1.00  0.00     0.276 HD
ATOM     20  H21 UNL     1      98.933 -23.075 -17.270  1.00  0.00     0.276 HD
ENDBRANCH  16  17
BRANCH  16  21
HETATM   21  N3  UNL     1     100.163 -24.486 -14.566  1.00  0.00    -0.050 N
ATOM     22  H33 UNL     1     100.830 -23.804 -14.205  1.00  0.00     0.276 HD
ATOM     23  H32 UNL     1      99.760 -24.814 -13.688  1.00  0.00     0.276 HD
ATOM     24  H31 UNL     1     100.647 -25.245 -15.045  1.00  0.00     0.276 HD
ENDBRANCH  16  21
ENDBRANCH  15  16
ENDBRANCH  14  15
ENDBRANCH  13  14
ENDBRANCH  12  13
ENDBRANCH  10  12
ENDBRANCH   2  10
BRANCH   1  25
HETATM   25  C2  UNL     1     102.154 -21.224 -15.837  1.00  0.00     0.297 C
HETATM   26  O2  UNL     1     101.287 -21.048 -16.725  1.00  0.00    -0.259 OA
BRANCH  25  27
HETATM   27  O1  UNL     1     102.303 -22.528 -15.404  1.00  0.00    -0.322 OA
HETATM   28  C1  UNL     1     103.208 -23.435 -16.046  1.00  0.00     0.213 C
ENDBRANCH  25  27
ENDBRANCH   1  25
BRANCH   4  29
HETATM   29  C11 UNL     1     104.848 -16.927 -12.746  1.00  0.00     0.049 A
HETATM   30  C12 UNL     1     105.944 -16.076 -12.796  1.00  0.00     0.110 A
HETATM   31  N5  UNL     1     106.899 -16.073 -11.821  1.00  0.00    -0.313 N
HETATM   32  C13 UNL     1     108.039 -15.177 -11.889  1.00  0.00     0.160 C
HETATM   33  C14 UNL     1     106.822 -16.884 -10.779  1.00  0.00     0.328 A
HETATM   34  O3  UNL     1     107.721 -16.866  -9.882  1.00  0.00    -0.246 OA
HETATM   35  N6  UNL     1     105.769 -17.711 -10.718  1.00  0.00    -0.275 N
HETATM   36  C15 UNL     1     104.792 -17.754 -11.661  1.00  0.00     0.259 A
ATOM     37  H6  UNL     1     105.697 -18.343  -9.921  1.00  0.00     0.173 HD
HETATM   38  O4  UNL     1     103.873 -18.584 -11.457  1.00  0.00    -0.267 OA
ENDBRANCH   4  29
BRANCH   7  39
HETATM   39  O5  UNL     1     105.508 -19.474 -13.773  1.00  0.00    -0.352 OA
HETATM   40  C18 UNL     1     106.833 -19.686 -14.021  1.00  0.00     0.206 C
ENDBRANCH   7  39
BRANCH   9  41
HETATM   41  O6  UNL     1     106.095 -19.875 -17.374  1.00  0.00    -0.275 OA
BRANCH  41  42
HETATM   42  C21 UNL     1     106.806 -20.650 -18.265  1.00  0.00     0.377 C
HETATM   43  N7  UNL     1     107.192 -20.178 -19.555  1.00  0.00    -0.032 NA
HETATM   44  O7  UNL     1     107.123 -21.816 -17.929  1.00  0.00    -0.242 OA
ENDBRANCH  41  42
ENDBRANCH   9  41
TORSDOF 14
ENDMDL