MODEL 5
REMARK VINA RESULT: -7.974744315      1.515      4.140
REMARK  17 active torsions:
REMARK  status: ('A' for Active; 'I' for Inactive)
REMARK    1  A    between atoms: O1_2  and  C2_3
REMARK    2  A    between atoms: C2_3  and  C3_4
REMARK    3  A    between atoms: C2_3  and  C20_31
REMARK    4  A    between atoms: C3_4  and  C7_8
REMARK    5  A    between atoms: C8_10  and  O3_11
REMARK    6  A    between atoms: O3_11  and  C9_12
REMARK    7  A    between atoms: C11_14  and  O4_15
REMARK    8  A    between atoms: O4_15  and  C12_16
REMARK    9  A    between atoms: C16_21  and  O6_23
REMARK   10  A    between atoms: C19_27  and  O8_28
REMARK   11  A    between atoms: C20_31  and  O10_32
REMARK   12  A    between atoms: C20_31  and  C21_34
REMARK   13  A    between atoms: C21_34  and  O11_35
REMARK   14  A    between atoms: C21_34  and  C22_37
REMARK   15  A    between atoms: C21_34  and  O13_40
REMARK   16  A    between atoms: C22_37  and  O12_38
REMARK   17  A    between atoms: O13_40  and  C23_41
ROOT
HETATM    1  C7  UNL     1      99.278 -23.355 -16.263  1.00  0.00     0.304 C
HETATM    2  O2  UNL     1     100.611 -23.690 -15.944  1.00  0.00    -0.304 OA
HETATM    3  C8  UNL     1     100.919 -23.080 -17.188  1.00  0.00     0.418 C
HETATM    4  O9  UNL     1      99.809 -22.247 -16.899  1.00  0.00    -0.304 OA
ENDROOT
BRANCH   1   5
HETATM    5  C3  UNL     1      98.419 -23.142 -15.077  1.00  0.00     0.008 C
HETATM    6  C4  UNL     1      97.234 -23.721 -15.146  1.00  0.00    -0.078 C
HETATM    7  C5  UNL     1      96.284 -23.632 -14.025  1.00  0.00     0.043 C
HETATM    8  C6  UNL     1      96.820 -24.458 -16.365  1.00  0.00     0.043 C
BRANCH   5   9
HETATM    9  C2  UNL     1      98.858 -22.381 -13.889  1.00  0.00     0.189 C
BRANCH   9  10
HETATM   10  O1  UNL     1     100.152 -22.876 -13.577  1.00  0.00    -0.383 OA
HETATM   11  C1  UNL     1     100.118 -23.957 -12.727  1.00  0.00     0.202 C
ENDBRANCH   9  10
BRANCH   9  12
HETATM   12  C20 UNL     1      98.901 -20.883 -14.013  1.00  0.00     0.216 C
BRANCH  12  13
HETATM   13  O10 UNL     1      97.803 -20.310 -13.480  1.00  0.00    -0.387 OA
ATOM     14  H10 UNL     1      98.006 -19.474 -13.077  1.00  0.00     0.210 HD
ENDBRANCH  12  13
BRANCH  12  15
HETATM   15  C21 UNL     1     100.206 -20.211 -13.966  1.00  0.00     0.221 C
BRANCH  15  16
HETATM   16  O11 UNL     1     101.109 -20.832 -14.877  1.00  0.00    -0.361 OA
ATOM     17  H11 UNL     1     101.995 -20.530 -14.714  1.00  0.00     0.213 HD
ENDBRANCH  15  16
BRANCH  15  18
HETATM   18  C22 UNL     1     100.907 -20.046 -12.676  1.00  0.00     0.235 C
BRANCH  18  19
HETATM   19  O12 UNL     1     100.186 -19.675 -11.583  1.00  0.00    -0.395 OA
ATOM     20  H12 UNL     1     100.128 -18.752 -11.366  1.00  0.00     0.209 HD
ENDBRANCH  18  19
ENDBRANCH  15  18
BRANCH  15  21
HETATM   21  O13 UNL     1     100.166 -18.885 -14.546  1.00  0.00    -0.279 OA
BRANCH  21  22
HETATM   22  C23 UNL     1      99.960 -17.712 -13.918  1.00  0.00     0.257 C
HETATM   23  C24 UNL     1     101.043 -16.649 -13.867  1.00  0.00     0.126 C
HETATM   24  O14 UNL     1      98.860 -17.478 -13.360  1.00  0.00    -0.266 OA
ENDBRANCH  21  22
ENDBRANCH  15  21
ENDBRANCH  12  15
ENDBRANCH   9  12
ENDBRANCH   5   9
ENDBRANCH   1   5
BRANCH   3  25
HETATM   25  O3  UNL     1     102.108 -22.407 -17.260  1.00  0.00    -0.331 OA
BRANCH  25  26
HETATM   26  C9  UNL     1     103.138 -23.218 -17.750  1.00  0.00     0.163 C
HETATM   27  C10 UNL     1     104.162 -23.579 -16.743  1.00  0.00     0.104 C
HETATM   28  C11 UNL     1     105.584 -23.425 -17.253  1.00  0.00     0.176 C
HETATM   29  C14 UNL     1     105.962 -21.985 -17.186  1.00  0.00     0.072 C
HETATM   30  O7  UNL     1     105.578 -23.948 -18.556  1.00  0.00    -0.344 OA
HETATM   31  C15 UNL     1     106.520 -21.401 -18.442  1.00  0.00     0.045 C
HETATM   32  C16 UNL     1     105.972 -21.964 -19.713  1.00  0.00     0.083 C
HETATM   33  C17 UNL     1     105.402 -20.963 -20.661  1.00  0.00     0.049 C
HETATM   34  C18 UNL     1     104.976 -23.094 -19.449  1.00  0.00     0.190 C
HETATM   35  C19 UNL     1     103.696 -22.487 -18.952  1.00  0.00     0.179 C
BRANCH  28  36
HETATM   36  O4  UNL     1     106.469 -24.260 -16.524  1.00  0.00    -0.283 OA
BRANCH  36  37
HETATM   37  C12 UNL     1     107.615 -24.824 -17.050  1.00  0.00     0.257 C
HETATM   38  C13 UNL     1     108.838 -24.011 -17.291  1.00  0.00     0.126 C
HETATM   39  O5  UNL     1     107.596 -26.048 -17.320  1.00  0.00    -0.266 OA
ENDBRANCH  36  37
ENDBRANCH  28  36
BRANCH  32  40
HETATM   40  O6  UNL     1     107.045 -22.591 -20.387  1.00  0.00    -0.388 OA
ATOM     41  H6  UNL     1     107.076 -22.228 -21.264  1.00  0.00     0.210 HD
ENDBRANCH  32  40
BRANCH  35  42
HETATM   42  O8  UNL     1     102.757 -22.657 -19.996  1.00  0.00    -0.390 OA
ATOM     43  H8  UNL     1     103.236 -22.550 -20.809  1.00  0.00     0.210 HD
ENDBRANCH  35  42
ENDBRANCH  25  26
ENDBRANCH   3  25
TORSDOF 17
ENDMDL