MODEL 1
REMARK VINA RESULT: -7.808217661      0.000      0.000
REMARK  16 active torsions:
REMARK  status: ('A' for Active; 'I' for Inactive)
REMARK    1  A    between atoms: C3_3  and  C4_4
REMARK    2  A    between atoms: C4_4  and  C5_5
REMARK    3  A    between atoms: C5_5  and  O1_6
REMARK    4  A    between atoms: O1_6  and  C6_7
REMARK    5  A    between atoms: C6_7  and  O2_8
REMARK    6  A    between atoms: O2_8  and  C7_9
REMARK    7  A    between atoms: C9_13  and  C10_14
REMARK    8  A    between atoms: C10_14  and  O5_15
REMARK    9  A    between atoms: C11_18  and  O7_19
REMARK   10  A    between atoms: C13_21  and  O8_23
REMARK   11  A    between atoms: C15_25  and  O9_26
REMARK   12  A    between atoms: C16_28  and  O10_29
REMARK   13  A    between atoms: O10_29  and  C17_30
REMARK   14  A    between atoms: C20_35  and  C21_36
REMARK   15  A    between atoms: C23_38  and  O13_39
REMARK   16  A    between atoms: C24_41  and  O14_42
ROOT
HETATM    1  C6  UNL     1     104.021 -22.480 -18.022  1.00  0.00     0.223 C
HETATM    2  C16 UNL     1     104.890 -21.647 -17.060  1.00  0.00     0.220 C
HETATM    3  C19 UNL     1     106.330 -21.695 -17.344  1.00  0.00     0.206 C
HETATM    4  O12 UNL     1     106.979 -22.696 -16.650  1.00  0.00    -0.381 OA
HETATM    5  C20 UNL     1     107.027 -23.794 -17.543  1.00  0.00     0.152 C
HETATM    6  C23 UNL     1     105.589 -24.333 -17.506  1.00  0.00     0.181 C
HETATM    7  C24 UNL     1     104.723 -23.666 -18.535  1.00  0.00     0.214 C
ENDROOT
BRANCH   1   8
HETATM    8  O1  UNL     1     103.485 -21.590 -18.885  1.00  0.00    -0.350 OA
BRANCH   8   9
HETATM    9  C5  UNL     1     103.803 -21.495 -20.169  1.00  0.00     0.175 C
BRANCH   9  10
HETATM   10  C4  UNL     1     102.507 -21.769 -20.975  1.00  0.00     0.053 C
BRANCH  10  11
HETATM   11  C3  UNL     1     102.813 -21.755 -22.432  1.00  0.00    -0.029 C
HETATM   12  C2  UNL     1     101.901 -21.828 -23.372  1.00  0.00    -0.035 C
HETATM   13  C1  UNL     1     100.479 -21.934 -23.017  1.00  0.00     0.036 C
ENDBRANCH  10  11
ENDBRANCH   9  10
ENDBRANCH   8   9
ENDBRANCH   1   8
BRANCH   1  14
HETATM   14  O2  UNL     1     102.972 -22.929 -17.191  1.00  0.00    -0.339 OA
BRANCH  14  15
HETATM   15  C7  UNL     1     101.740 -22.390 -17.353  1.00  0.00     0.199 C
HETATM   16  C8  UNL     1     100.739 -23.394 -17.758  1.00  0.00     0.226 C
HETATM   17  O3  UNL     1      99.605 -22.855 -18.364  1.00  0.00    -0.227 OA
HETATM   18  C15 UNL     1     100.128 -24.257 -16.717  1.00  0.00     0.220 C
HETATM   19  O4  UNL     1      98.631 -22.810 -17.544  1.00  0.00    -0.195 OA
HETATM   20  C9  UNL     1      98.922 -23.430 -16.366  1.00  0.00     0.249 C
HETATM   21  O6  UNL     1      99.299 -22.590 -15.350  1.00  0.00    -0.315 OA
HETATM   22  C11 UNL     1      99.849 -21.450 -15.920  1.00  0.00     0.299 C
HETATM   23  C13 UNL     1     101.324 -21.534 -16.169  1.00  0.00     0.132 C
HETATM   24  C14 UNL     1     101.999 -21.913 -14.887  1.00  0.00     0.054 C
BRANCH  20  25
HETATM   25  C10 UNL     1      97.731 -24.277 -15.962  1.00  0.00     0.238 C
BRANCH  25  26
HETATM   26  O5  UNL     1      96.798 -23.530 -15.252  1.00  0.00    -0.395 OA
ATOM     27  H5  UNL     1      95.988 -23.438 -15.739  1.00  0.00     0.209 HD
ENDBRANCH  25  26
ENDBRANCH  20  25
BRANCH  22  28
HETATM   28  O7  UNL     1      99.725 -20.468 -14.901  1.00  0.00    -0.363 OA
HETATM   29  C12 UNL     1      98.725 -20.828 -14.011  1.00  0.00     0.204 C
ENDBRANCH  22  28
BRANCH  23  30
HETATM   30  O8  UNL     1     101.686 -20.179 -16.402  1.00  0.00    -0.382 OA
ATOM     31  H8  UNL     1     102.631 -20.086 -16.358  1.00  0.00     0.210 HD
ENDBRANCH  23  30
BRANCH  18  32
HETATM   32  O9  UNL     1     100.892 -24.694 -15.702  1.00  0.00    -0.387 OA
ATOM     33  H9  UNL     1     100.537 -25.338 -15.102  1.00  0.00     0.210 HD
ENDBRANCH  18  32
ENDBRANCH  14  15
ENDBRANCH   1  14
BRANCH   2  34
HETATM   34  O10 UNL     1     104.486 -20.275 -17.146  1.00  0.00    -0.308 OA
BRANCH  34  35
HETATM   35  C17 UNL     1     104.995 -19.330 -16.299  1.00  0.00     0.255 C
HETATM   36  C18 UNL     1     104.867 -19.374 -14.825  1.00  0.00     0.126 C
HETATM   37  O11 UNL     1     105.617 -18.355 -16.797  1.00  0.00    -0.266 OA
ENDBRANCH  34  35
ENDBRANCH   2  34
BRANCH   7  38
HETATM   38  O14 UNL     1     105.454 -23.482 -19.721  1.00  0.00    -0.387 OA
ATOM     39  H14 UNL     1     105.021 -23.752 -20.522  1.00  0.00     0.210 HD
ENDBRANCH   7  38
BRANCH   6  40
HETATM   40  O13 UNL     1     105.110 -24.283 -16.233  1.00  0.00    -0.390 OA
ATOM     41  H13 UNL     1     105.594 -23.637 -15.732  1.00  0.00     0.210 HD
ENDBRANCH   6  40
BRANCH   5  42
HETATM   42  C21 UNL     1     107.985 -24.783 -16.944  1.00  0.00     0.030 C
HETATM   43  C22 UNL     1     109.339 -24.108 -16.853  1.00  0.00     0.007 C
ENDBRANCH   5  42
TORSDOF 16
ENDMDL