MODEL 5
REMARK VINA RESULT: -6.909532738      2.573      7.544
REMARK  16 active torsions:
REMARK  status: ('A' for Active; 'I' for Inactive)
REMARK    1  A    between atoms: O1_2  and  C2_3
REMARK    2  A    between atoms: C2_3  and  O2_4
REMARK    3  A    between atoms: O2_4  and  C3_5
REMARK    4  A    between atoms: C4_6  and  O3_7
REMARK    5  A    between atoms: C7_11  and  O4_12
REMARK    6  A    between atoms: C8_14  and  O5_15
REMARK    7  A    between atoms: O5_15  and  C9_16
REMARK    8  A    between atoms: C9_16  and  C14_25
REMARK    9  A    between atoms: C10_17  and  C11_18
REMARK   10  A    between atoms: C14_25  and  C15_26
REMARK   11  A    between atoms: C15_26  and  O7_28
REMARK   12  A    between atoms: O7_28  and  C16_29
REMARK   13  A    between atoms: N3_34  and  O8_36
REMARK   14  A    between atoms: C22_38  and  C23_39
REMARK   15  A    between atoms: C23_39  and  O9_40
REMARK   16  A    between atoms: C23_39  and  O10_42
ROOT
HETATM    1  C3  UNL     1     106.058 -22.881 -17.441  1.00  0.00     0.158 C
HETATM    2  C4  UNL     1     107.063 -22.025 -18.198  1.00  0.00     0.148 C
HETATM    3  C5  UNL     1     106.351 -20.710 -18.360  1.00  0.00     0.042 C
HETATM    4  C6  UNL     1     105.764 -20.543 -16.972  1.00  0.00     0.027 C
HETATM    5  C7  UNL     1     104.773 -19.462 -16.817  1.00  0.00     0.158 C
HETATM    6  C8  UNL     1     104.080 -19.697 -15.469  1.00  0.00     0.205 C
HETATM    7  C20 UNL     1     103.366 -20.991 -15.540  1.00  0.00     0.051 C
HETATM    8  N3  UNL     1     102.362 -21.163 -14.758  1.00  0.00    -0.272 N
ATOM      9  H3  UNL     1     101.871 -22.055 -14.808  1.00  0.00     0.193 HD
HETATM   10  C22 UNL     1     103.824 -22.072 -16.514  1.00  0.00     0.098 C
HETATM   11  C25 UNL     1     105.280 -21.939 -16.631  1.00  0.00     0.038 C
ENDROOT
BRANCH   6  12
HETATM   12  O5  UNL     1     103.277 -18.643 -15.060  1.00  0.00    -0.341 OA
BRANCH  12  13
HETATM   13  C9  UNL     1     103.599 -17.806 -14.009  1.00  0.00     0.060 C
HETATM   14  C10 UNL     1     102.809 -16.892 -13.496  1.00  0.00     0.080 C
BRANCH  14  15
HETATM   15  C11 UNL     1     101.456 -16.623 -13.970  1.00  0.00     0.099 C
HETATM   16  N1  UNL     1     100.865 -15.484 -13.730  1.00  0.00    -0.375 N
HETATM   17  C12 UNL     1      99.545 -15.453 -14.294  1.00  0.00     0.141 C
ATOM     18  H1  UNL     1     101.286 -14.716 -13.208  1.00  0.00     0.161 HD
HETATM   19  C13 UNL     1      99.444 -16.662 -15.201  1.00  0.00     0.141 C
HETATM   20  N2  UNL     1     100.578 -17.445 -14.710  1.00  0.00    -0.375 N
ATOM     21  H2  UNL     1     100.714 -18.442 -14.876  1.00  0.00     0.161 HD
ENDBRANCH  14  15
BRANCH  13  22
HETATM   22  C14 UNL     1     104.963 -17.993 -13.438  1.00  0.00     0.175 C
BRANCH  22  23
HETATM   23  C15 UNL     1     104.965 -18.279 -11.995  1.00  0.00     0.265 C
HETATM   24  O6  UNL     1     104.539 -19.413 -11.583  1.00  0.00    -0.265 OA
BRANCH  23  25
HETATM   25  O7  UNL     1     105.403 -17.389 -11.045  1.00  0.00    -0.311 OA
BRANCH  25  26
HETATM   26  C16 UNL     1     106.756 -17.093 -10.759  1.00  0.00     0.060 C
HETATM   27  C17 UNL     1     107.668 -18.247 -11.032  1.00  0.00     0.045 C
HETATM   28  C18 UNL     1     106.804 -16.687  -9.281  1.00  0.00     0.045 C
HETATM   29  C19 UNL     1     107.224 -15.872 -11.541  1.00  0.00     0.045 C
ENDBRANCH  25  26
ENDBRANCH  23  25
ENDBRANCH  22  23
ENDBRANCH  13  22
ENDBRANCH  12  13
ENDBRANCH   6  12
BRANCH   5  30
HETATM   30  O4  UNL     1     105.496 -18.244 -16.755  1.00  0.00    -0.392 OA
ATOM     31  H4  UNL     1     105.923 -18.134 -17.597  1.00  0.00     0.210 HD
ENDBRANCH   5  30
BRANCH   8  32
HETATM   32  O8  UNL     1     101.908 -20.248 -13.875  1.00  0.00    -0.285 OA
HETATM   33  C21 UNL     1     100.824 -20.548 -13.011  1.00  0.00     0.237 C
ENDBRANCH   8  32
BRANCH  10  34
HETATM   34  C23 UNL     1     102.949 -22.114 -17.691  1.00  0.00     0.266 C
BRANCH  34  35
HETATM   35  O9  UNL     1     101.695 -21.459 -17.396  1.00  0.00    -0.371 OA
ATOM     36  H9  UNL     1     101.814 -20.516 -17.392  1.00  0.00     0.212 HD
ENDBRANCH  34  35
BRANCH  34  37
HETATM   37  O10 UNL     1     102.533 -23.381 -18.067  1.00  0.00    -0.366 OA
HETATM   38  C24 UNL     1     101.904 -24.043 -16.981  1.00  0.00     0.204 C
ENDBRANCH  34  37
ENDBRANCH  10  34
BRANCH   2  39
HETATM   39  O3  UNL     1     108.224 -21.857 -17.444  1.00  0.00    -0.393 OA
ATOM     40  H3  UNL     1     108.386 -20.934 -17.287  1.00  0.00     0.210 HD
ENDBRANCH   2  39
BRANCH   1  41
HETATM   41  O2  UNL     1     106.751 -23.768 -16.583  1.00  0.00    -0.359 OA
BRANCH  41  42
HETATM   42  C2  UNL     1     107.077 -24.947 -17.251  1.00  0.00     0.337 C
BRANCH  42  43
HETATM   43  O1  UNL     1     108.052 -25.585 -16.485  1.00  0.00    -0.372 OA
HETATM   44  C1  UNL     1     109.118 -24.735 -16.191  1.00  0.00     0.204 C
ENDBRANCH  42  43
ENDBRANCH  41  42
ENDBRANCH   1  41
TORSDOF 16
ENDMDL