MODEL 3
REMARK VINA RESULT: -7.271359344      2.692      6.347
REMARK  15 active torsions:
REMARK  status: ('A' for Active; 'I' for Inactive)
REMARK    1  A    between atoms: O1_2  and  C2_3
REMARK    2  A    between atoms: C5_6  and  N1_7
REMARK    3  A    between atoms: C6_12  and  N3_13
REMARK    4  A    between atoms: N4_19  and  C11_20
REMARK    5  A    between atoms: C11_20  and  C12_21
REMARK    6  A    between atoms: C12_21  and  O3_23
REMARK    7  A    between atoms: C14_25  and  N5_26
REMARK    8  A    between atoms: N5_26  and  C15_28
REMARK    9  A    between atoms: C15_28  and  C16_29
REMARK   10  A    between atoms: C15_28  and  C17_32
REMARK   11  A    between atoms: C16_29  and  O4_30
REMARK   12  A    between atoms: C17_32  and  O5_33
REMARK   13  A    between atoms: C17_32  and  C18_35
REMARK   14  A    between atoms: C21_44  and  O6_45
REMARK   15  A    between atoms: C23_47  and  O7_48
ROOT
HETATM    1  C2  UNL     1     100.175 -21.568 -15.475  1.00  0.00     0.105 A
HETATM    2  C3  UNL     1     101.063 -22.556 -15.825  1.00  0.00     0.056 A
HETATM    3  C4  UNL     1     102.441 -22.355 -15.813  1.00  0.00     0.028 A
HETATM    4  C5  UNL     1     103.112 -23.509 -16.183  1.00  0.00     0.126 C
HETATM    5  N2  UNL     1     104.448 -23.649 -16.337  1.00  0.00    -0.176 N
ATOM      6  H2  UNL     1     104.842 -24.582 -16.221  1.00  0.00     0.186 HD
HETATM    7  C6  UNL     1     105.319 -22.618 -16.640  1.00  0.00     0.685 C
HETATM    8  N4  UNL     1     105.146 -21.293 -16.474  1.00  0.00    -0.165 N
HETATM    9  C14 UNL     1     104.301 -20.694 -15.536  1.00  0.00     0.138 C
HETATM   10  C20 UNL     1     102.928 -21.100 -15.433  1.00  0.00     0.059 A
HETATM   11  C21 UNL     1     102.072 -20.127 -15.080  1.00  0.00     0.119 A
HETATM   12  C23 UNL     1     100.677 -20.350 -15.102  1.00  0.00     0.136 A
ENDROOT
BRANCH   9  13
HETATM   13  N5  UNL     1     104.672 -19.862 -14.766  1.00  0.00    -0.343 N
ATOM     14  H5  UNL     1     103.883 -19.217 -14.756  1.00  0.00     0.167 HD
BRANCH  13  15
HETATM   15  C15 UNL     1     105.552 -19.251 -13.870  1.00  0.00     0.048 C
BRANCH  15  16
HETATM   16  C16 UNL     1     105.945 -17.825 -14.028  1.00  0.00     0.219 C
BRANCH  16  17
HETATM   17  O4  UNL     1     106.747 -17.509 -15.110  1.00  0.00    -0.395 OA
ATOM     18  H4  UNL     1     107.427 -16.861 -14.969  1.00  0.00     0.209 HD
ENDBRANCH  16  17
ENDBRANCH  15  16
BRANCH  15  19
HETATM   19  C17 UNL     1     106.733 -20.068 -13.384  1.00  0.00     0.234 C
BRANCH  19  20
HETATM   20  O5  UNL     1     107.862 -19.999 -14.140  1.00  0.00    -0.382 OA
ATOM     21  H5  UNL     1     108.549 -19.429 -13.815  1.00  0.00     0.211 HD
ENDBRANCH  19  20
BRANCH  19  22
HETATM   22  C18 UNL     1     107.034 -19.731 -11.981  1.00  0.00     0.132 A
HETATM   23  N6  UNL     1     108.254 -19.486 -11.448  1.00  0.00    -0.338 N
HETATM   24  C19 UNL     1     108.117 -19.276 -10.139  1.00  0.00     0.198 A
ATOM     25  H6  UNL     1     109.134 -19.466 -11.964  1.00  0.00     0.168 HD
HETATM   26  N7  UNL     1     106.819 -19.386  -9.834  1.00  0.00    -0.295 N
HETATM   27  N8  UNL     1     106.171 -19.660 -10.947  1.00  0.00    -0.286 N
ATOM     28  H7  UNL     1     106.406 -19.277  -8.908  1.00  0.00     0.187 HD
ATOM     29  H8  UNL     1     105.162 -19.799 -11.017  1.00  0.00     0.188 HD
ENDBRANCH  19  22
ENDBRANCH  15  19
ENDBRANCH  13  15
ENDBRANCH   9  13
BRANCH   8  30
HETATM   30  C11 UNL     1     105.807 -20.393 -17.369  1.00  0.00     0.180 C
BRANCH  30  31
HETATM   31  C12 UNL     1     105.279 -20.336 -18.760  1.00  0.00     0.133 C
HETATM   32  C13 UNL     1     106.176 -20.658 -19.878  1.00  0.00     0.041 C
BRANCH  31  33
HETATM   33  O3  UNL     1     104.130 -21.150 -18.895  1.00  0.00    -0.394 OA
ATOM     34  H3  UNL     1     103.976 -21.368 -19.807  1.00  0.00     0.210 HD
ENDBRANCH  31  33
ENDBRANCH  30  31
ENDBRANCH   8  30
BRANCH   7  35
HETATM   35  N3  UNL     1     106.548 -23.030 -17.173  1.00  0.00    -0.213 N
HETATM   36  C7  UNL     1     106.549 -24.031 -18.253  1.00  0.00     0.167 C
HETATM   37  C8  UNL     1     107.263 -25.244 -17.711  1.00  0.00     0.188 C
HETATM   38  O2  UNL     1     108.398 -24.919 -16.990  1.00  0.00    -0.388 OA
HETATM   39  C9  UNL     1     108.861 -23.640 -17.278  1.00  0.00     0.188 C
HETATM   40  C10 UNL     1     107.864 -22.600 -16.756  1.00  0.00     0.167 C
ENDBRANCH   7  35
BRANCH  11  41
HETATM   41  O6  UNL     1     102.430 -18.869 -14.650  1.00  0.00    -0.352 OA
HETATM   42  C22 UNL     1     102.257 -18.625 -13.190  1.00  0.00     0.210 C
ENDBRANCH  11  41
BRANCH   4  43
HETATM   43  N1  UNL     1     102.343 -24.526 -16.389  1.00  0.00    -0.384 N
ATOM     44  H12 UNL     1     101.487 -24.623 -15.842  1.00  0.00     0.157 HD
ATOM     45  H11 UNL     1     102.677 -25.164 -17.111  1.00  0.00     0.157 HD
ENDBRANCH   4  43
BRANCH  12  46
HETATM   46  O7  UNL     1      99.784 -19.367 -14.755  1.00  0.00    -0.351 OA
HETATM   47  C24 UNL     1      98.991 -19.405 -13.582  1.00  0.00     0.210 C
ENDBRANCH  12  46
BRANCH   1  48
HETATM   48  O1  UNL     1      98.786 -21.801 -15.499  1.00  0.00    -0.353 OA
HETATM   49  C1  UNL     1      98.237 -23.009 -15.049  1.00  0.00     0.210 C
ENDBRANCH   1  48
TORSDOF 15
ENDMDL