MODEL 2
REMARK VINA RESULT: -10.556342352      1.299      1.572
REMARK  11 active torsions:
REMARK  status: ('A' for Active; 'I' for Inactive)
REMARK    1  A    between atoms: O1_2  and  C2_3
REMARK    2  A    between atoms: C5_8  and  C6_9
REMARK       I    between atoms: C6_9  and  N2_11
REMARK    3  A    between atoms: N2_11  and  C7_13
REMARK    4  A    between atoms: C7_13  and  C8_14
REMARK    5  A    between atoms: N3_16  and  C10_17
REMARK    6  A    between atoms: C10_17  and  C11_18
REMARK    7  A    between atoms: C13_20  and  C14_21
REMARK    8  A    between atoms: C14_21  and  N4_22
REMARK    9  A    between atoms: C15_27  and  N8_28
REMARK   10  A    between atoms: C16_33  and  N10_34
REMARK   11  A    between atoms: C20_47  and  O6_48
ROOT
HETATM    1  C8  UNL     1     104.568 -21.231 -20.744  1.00  0.00     0.062 A
HETATM    2  C9  UNL     1     103.992 -21.233 -22.020  1.00  0.00     0.140 A
HETATM    3  N3  UNL     1     104.040 -20.047 -22.580  1.00  0.00    -0.283 N
HETATM    4  N11 UNL     1     104.652 -19.267 -21.663  1.00  0.00    -0.240 N
ATOM      5  H11 UNL     1     104.848 -18.273 -21.787  1.00  0.00     0.208 HD
HETATM    6  N12 UNL     1     104.962 -19.959 -20.587  1.00  0.00    -0.287 N
ATOM      7  H12 UNL     1     105.429 -19.585 -19.761  1.00  0.00     0.188 HD
ENDROOT
BRANCH   1   8
HETATM    8  C7  UNL     1     104.673 -22.407 -19.842  1.00  0.00     0.183 C
BRANCH   8   9
HETATM    9  N2  UNL     1     103.332 -22.809 -19.478  1.00  0.00    -0.349 N
HETATM   10  C6  UNL     1     102.753 -22.329 -18.282  1.00  0.00     0.286 C
HETATM   11  O2  UNL     1     103.414 -21.545 -17.527  1.00  0.00    -0.264 OA
ATOM     12  H2  UNL     1     102.805 -23.438 -20.084  1.00  0.00     0.163 HD
BRANCH  10  13
HETATM   13  C5  UNL     1     101.409 -22.703 -17.876  1.00  0.00     0.177 A
HETATM   14  N1  UNL     1     100.958 -22.587 -16.614  1.00  0.00    -0.337 N
HETATM   15  C4  UNL     1      99.705 -22.939 -16.268  1.00  0.00     0.052 A
ATOM     16  H1  UNL     1     101.585 -22.222 -15.897  1.00  0.00     0.167 HD
HETATM   17  C3  UNL     1      99.242 -22.819 -14.969  1.00  0.00     0.070 A
HETATM   18  C18 UNL     1      98.865 -23.427 -17.225  1.00  0.00     0.061 A
HETATM   19  C2  UNL     1      97.947 -23.189 -14.652  1.00  0.00     0.103 A
HETATM   20  C20 UNL     1      97.115 -23.678 -15.626  1.00  0.00     0.102 A
HETATM   21  C19 UNL     1      97.550 -23.807 -16.927  1.00  0.00     0.059 A
HETATM   22  C17 UNL     1      99.310 -23.553 -18.530  1.00  0.00     0.259 A
HETATM   23  N13 UNL     1     100.570 -23.184 -18.804  1.00  0.00    -0.304 N
HETATM   24  O5  UNL     1      98.528 -24.001 -19.391  1.00  0.00    -0.267 OA
ATOM     25  H13 UNL     1     100.906 -23.274 -19.763  1.00  0.00     0.171 HD
BRANCH  19  26
HETATM   26  O1  UNL     1      97.516 -23.060 -13.363  1.00  0.00    -0.353 OA
HETATM   27  C1  UNL     1      98.439 -23.042 -12.269  1.00  0.00     0.210 C
ENDBRANCH  19  26
BRANCH  20  28
HETATM   28  O6  UNL     1      95.826 -24.039 -15.279  1.00  0.00    -0.353 OA
HETATM   29  C21 UNL     1      95.020 -24.752 -16.207  1.00  0.00     0.210 C
ENDBRANCH  20  28
ENDBRANCH  10  13
ENDBRANCH   8   9
ENDBRANCH   1   8
BRANCH   3  30
HETATM   30  C10 UNL     1     103.582 -19.569 -23.883  1.00  0.00     0.192 C
BRANCH  30  31
HETATM   31  C11 UNL     1     102.112 -19.481 -23.976  1.00  0.00     0.013 A
HETATM   32  C12 UNL     1     101.466 -20.669 -24.411  1.00  0.00     0.025 A
HETATM   33  C13 UNL     1     100.106 -20.782 -24.446  1.00  0.00     0.007 A
HETATM   34  C15 UNL     1      99.355 -19.702 -24.045  1.00  0.00     0.108 A
HETATM   35  N9  UNL     1      99.924 -18.565 -23.631  1.00  0.00    -0.323 N
HETATM   36  C16 UNL     1     101.308 -18.456 -23.599  1.00  0.00     0.183 A
ATOM     37  H9  UNL     1      99.343 -17.779 -23.339  1.00  0.00     0.169 HD
BRANCH  33  38
HETATM   38  C14 UNL     1      99.477 -22.030 -24.894  1.00  0.00     0.210 C
BRANCH  38  39
HETATM   39  N4  UNL     1      98.719 -22.673 -23.842  1.00  0.00    -0.203 N
HETATM   40  N5  UNL     1      97.646 -23.438 -23.827  1.00  0.00    -0.213 N
HETATM   41  N6  UNL     1      97.710 -23.525 -22.493  1.00  0.00     0.010 NA
ATOM     42  H5  UNL     1      97.021 -23.811 -24.541  1.00  0.00     0.206 HD
HETATM   43  N7  UNL     1      98.792 -22.751 -22.525  1.00  0.00     0.012 NA
ENDBRANCH  38  39
ENDBRANCH  33  38
BRANCH  34  44
HETATM   44  N8  UNL     1      98.068 -19.839 -24.086  1.00  0.00    -0.385 N
ATOM     45  H82 UNL     1      97.634 -20.715 -24.378  1.00  0.00     0.157 HD
ATOM     46  H81 UNL     1      97.511 -19.030 -23.813  1.00  0.00     0.157 HD
ENDBRANCH  34  44
BRANCH  36  47
HETATM   47  N10 UNL     1     101.837 -17.184 -23.261  1.00  0.00    -0.097 N
HETATM   48  O3  UNL     1     101.492 -16.161 -23.952  1.00  0.00    -0.531 OA
HETATM   49  O4  UNL     1     102.689 -16.904 -22.260  1.00  0.00    -0.531 OA
ENDBRANCH  36  47
ENDBRANCH  30  31
ENDBRANCH   3  30
TORSDOF 11
ENDMDL