MODEL 5
REMARK VINA RESULT: -4.320761235      2.519      3.580
REMARK  5 active torsions:
REMARK  status: ('A' for Active; 'I' for Inactive)
REMARK    1  A    between atoms: N1_2  and  C2_4
REMARK    2  A    between atoms: C2_4  and  C3_5
REMARK    3  A    between atoms: C2_4  and  C5_12
REMARK    4  A    between atoms: C3_5  and  N2_6
REMARK    5  A    between atoms: C3_5  and  C4_10
ROOT
HETATM    1  C2  UNL     1     -10.972  18.642  -9.251  1.00  0.00     0.117 C
ENDROOT
BRANCH   1   2
HETATM    2  N1  UNL     1     -11.990  17.964  -8.603  1.00  0.00    -0.418 N
HETATM    3  C1  UNL     1     -12.148  17.963  -7.217  1.00  0.00     0.140 C
ATOM      4  H1  UNL     1     -12.658  17.440  -9.166  1.00  0.00     0.153 HD
ENDBRANCH   1   2
BRANCH   1   5
HETATM    5  C3  UNL     1      -9.599  18.063  -9.294  1.00  0.00     0.266 C
BRANCH   5   6
HETATM    6  N2  UNL     1      -9.689  16.601  -9.392  1.00  0.00    -0.067 N
ATOM      7  H23 UNL     1     -10.086  16.182  -8.551  1.00  0.00     0.275 HD
ATOM      8  H22 UNL     1     -10.405  16.303 -10.055  1.00  0.00     0.275 HD
ATOM      9  H21 UNL     1      -8.771  16.220  -9.618  1.00  0.00     0.275 HD
ENDBRANCH   5   6
BRANCH   5  10
HETATM   10  C4  UNL     1      -8.832  18.501 -10.477  1.00  0.00     0.266 C
HETATM   11  O1  UNL     1      -7.602  18.666 -10.459  1.00  0.00    -0.305 OA
ENDBRANCH   5  10
ENDBRANCH   1   5
BRANCH   1  12
HETATM   12  C5  UNL     1     -11.467  18.961 -10.676  1.00  0.00     0.010 A
HETATM   13  C6  UNL     1     -12.635  18.131 -11.182  1.00  0.00     0.007 A
HETATM   14  C7  UNL     1     -12.757  19.621 -10.892  1.00  0.00     0.007 A
ENDBRANCH   1  12
TORSDOF 5
ENDMDL