MODEL 5
REMARK VINA RESULT: -4.135722378      1.160      5.024
REMARK  5 active torsions:
REMARK  status: ('A' for Active; 'I' for Inactive)
REMARK    1  A    between atoms: N1_2  and  C2_4
REMARK    2  A    between atoms: C2_4  and  C3_5
REMARK    3  A    between atoms: C3_5  and  C4_6
REMARK    4  A    between atoms: C4_6  and  N2_7
REMARK    5  A    between atoms: N2_7  and  C5_9
ROOT
HETATM    1  N2  UNL     1     -11.384  17.610 -10.096  1.00  0.00    -0.362 N
ATOM      2  H2  UNL     1     -11.651  16.758 -10.589  1.00  0.00     0.162 HD
ENDROOT
BRANCH   1   3
HETATM    3  C4  UNL     1     -10.406  17.554  -9.042  1.00  0.00     0.124 C
BRANCH   3   4
HETATM    4  C3  UNL     1      -9.070  17.036  -9.433  1.00  0.00     0.039 C
BRANCH   4   5
HETATM    5  C2  UNL     1      -8.365  18.198 -10.189  1.00  0.00     0.115 C
BRANCH   5   6
HETATM    6  N1  UNL     1      -7.068  17.898 -10.614  1.00  0.00    -0.425 N
HETATM    7  C1  UNL     1      -6.543  18.402 -11.811  1.00  0.00     0.139 C
ATOM      8  H1  UNL     1      -6.485  17.293 -10.034  1.00  0.00     0.152 HD
ENDBRANCH   5   6
ENDBRANCH   4   5
ENDBRANCH   3   4
ENDBRANCH   1   3
BRANCH   1   9
HETATM    9  C5  UNL     1     -11.980  18.856 -10.451  1.00  0.00     0.171 C
HETATM   10  N3  UNL     1     -11.419  19.936 -10.896  1.00  0.00    -0.361 N
HETATM   11  C6  UNL     1     -12.387  20.980 -11.127  1.00  0.00     0.142 C
ATOM     12  H3  UNL     1     -10.418  20.034 -11.063  1.00  0.00     0.162 HD
HETATM   13  C7  UNL     1     -13.708  20.474 -10.625  1.00  0.00     0.142 C
HETATM   14  N4  UNL     1     -13.408  19.079 -10.341  1.00  0.00    -0.361 N
ATOM     15  H4  UNL     1     -14.097  18.367 -10.102  1.00  0.00     0.162 HD
ENDBRANCH   1   9
TORSDOF 5
ENDMDL