MODEL 1
REMARK VINA RESULT: -4.596836597      0.000      0.000
REMARK  6 active torsions:
REMARK  status: ('A' for Active; 'I' for Inactive)
REMARK    1  A    between atoms: C2_2  and  C3_3
REMARK    2  A    between atoms: C3_3  and  N1_4
REMARK    3  A    between atoms: C3_3  and  C4_8
REMARK    4  A    between atoms: C4_8  and  N2_9
REMARK    5  A    between atoms: N2_9  and  N3_10
REMARK    6  A    between atoms: N3_10  and  C5_12
ROOT
HETATM    1  C4  UNL     1     -11.018  17.849  -8.995  1.00  0.00     0.167 C
ENDROOT
BRANCH   1   2
HETATM    2  C3  UNL     1     -11.724  17.479  -7.714  1.00  0.00     0.199 C
BRANCH   2   3
HETATM    3  C2  UNL     1     -12.546  18.541  -7.086  1.00  0.00     0.029 C
HETATM    4  C1  UNL     1     -13.922  18.708  -7.634  1.00  0.00     0.007 C
ENDBRANCH   2   3
BRANCH   2   5
HETATM    5  N1  UNL     1     -10.730  17.013  -6.761  1.00  0.00    -0.074 N
ATOM      6  H13 UNL     1     -10.531  17.707  -6.041  1.00  0.00     0.274 HD
ATOM      7  H12 UNL     1     -11.091  16.275  -6.157  1.00  0.00     0.274 HD
ATOM      8  H11 UNL     1      -9.890  16.725  -7.263  1.00  0.00     0.274 HD
ENDBRANCH   2   5
ENDBRANCH   1   2
BRANCH   1   9
HETATM    9  N2  UNL     1     -11.580  17.096 -10.106  1.00  0.00    -0.138 NA
BRANCH   9  10
HETATM   10  N3  UNL     1     -12.263  17.876 -10.970  1.00  0.00    -0.293 N
ATOM     11  H3  UNL     1     -12.773  17.393 -11.710  1.00  0.00     0.183 HD
BRANCH  10  12
HETATM   12  C5  UNL     1     -12.351  19.292 -10.963  1.00  0.00     0.090 A
HETATM   13  N4  UNL     1     -11.697  20.355 -11.175  1.00  0.00    -0.379 N
HETATM   14  C6  UNL     1     -12.691  21.330 -10.899  1.00  0.00     0.128 A
ATOM     15  H4  UNL     1     -10.726  20.476 -11.463  1.00  0.00     0.160 HD
HETATM   16  C7  UNL     1     -13.562  20.168 -10.665  1.00  0.00     0.097 A
ENDBRANCH  10  12
ENDBRANCH   9  10
ENDBRANCH   1   9
TORSDOF 6
ENDMDL