MODEL 2
REMARK VINA RESULT: -4.480196961      0.580      1.185
REMARK  5 active torsions:
REMARK  status: ('A' for Active; 'I' for Inactive)
REMARK    1  A    between atoms: N1_1  and  C1_5
REMARK    2  A    between atoms: C1_5  and  C2_6
REMARK    3  A    between atoms: C2_6  and  C3_7
REMARK    4  A    between atoms: C3_7  and  C4_8
REMARK    5  A    between atoms: C4_8  and  C5_9
ROOT
HETATM    1  C4  UNL     1      -9.768  17.946  -9.687  1.00  0.00     0.076 C
ENDROOT
BRANCH   1   2
HETATM    2  C3  UNL     1      -8.674  18.549 -10.480  1.00  0.00     0.009 C
BRANCH   2   3
HETATM    3  C2  UNL     1      -7.398  17.795 -10.565  1.00  0.00     0.027 C
BRANCH   3   4
HETATM    4  C1  UNL     1      -6.472  18.322 -11.647  1.00  0.00     0.229 C
BRANCH   4   5
HETATM    5  N1  UNL     1      -7.264  19.068 -12.625  1.00  0.00    -0.079 N
ATOM      6  H13 UNL     1      -8.266  18.911 -12.516  1.00  0.00     0.274 HD
ATOM      7  H12 UNL     1      -7.257  20.072 -12.447  1.00  0.00     0.274 HD
ATOM      8  H11 UNL     1      -6.934  18.837 -13.563  1.00  0.00     0.274 HD
ENDBRANCH   4   5
ENDBRANCH   3   4
ENDBRANCH   2   3
ENDBRANCH   1   2
BRANCH   1   9
HETATM    9  C5  UNL     1     -11.082  18.602  -9.877  1.00  0.00     0.072 C
HETATM   10  N2  UNL     1     -12.171  18.344  -9.267  1.00  0.00    -0.378 N
HETATM   11  C6  UNL     1     -13.257  19.171  -9.697  1.00  0.00     0.140 C
ATOM     12  H2  UNL     1     -12.259  17.625  -8.549  1.00  0.00     0.160 HD
HETATM   13  C7  UNL     1     -12.778  19.701 -11.028  1.00  0.00     0.140 C
HETATM   14  N3  UNL     1     -11.326  19.659 -10.829  1.00  0.00    -0.378 N
ATOM     15  H3  UNL     1     -10.629  20.256 -11.273  1.00  0.00     0.160 HD
ENDBRANCH   1   9
TORSDOF 5
ENDMDL