MODEL 4
REMARK VINA RESULT: -4.413752903      2.537      3.870
REMARK  5 active torsions:
REMARK  status: ('A' for Active; 'I' for Inactive)
REMARK    1  A    between atoms: N1_1  and  C1_5
REMARK    2  A    between atoms: C1_5  and  C2_6
REMARK    3  A    between atoms: C2_6  and  C3_7
REMARK    4  A    between atoms: C3_7  and  C4_8
REMARK    5  A    between atoms: C4_8  and  C5_9
ROOT
HETATM    1  C4  UNL     1     -11.590  17.645 -10.333  1.00  0.00     0.076 C
ENDROOT
BRANCH   1   2
HETATM    2  C3  UNL     1     -10.312  17.745  -9.533  1.00  0.00     0.009 C
BRANCH   2   3
HETATM    3  C2  UNL     1     -10.490  17.196  -8.139  1.00  0.00     0.027 C
BRANCH   3   4
HETATM    4  C1  UNL     1     -11.863  17.491  -7.587  1.00  0.00     0.229 C
BRANCH   4   5
HETATM    5  N1  UNL     1     -11.752  18.310  -6.409  1.00  0.00    -0.079 N
ATOM      6  H13 UNL     1     -12.664  18.559  -6.028  1.00  0.00     0.274 HD
ATOM      7  H12 UNL     1     -11.395  17.786  -5.610  1.00  0.00     0.274 HD
ATOM      8  H11 UNL     1     -11.184  19.133  -6.612  1.00  0.00     0.274 HD
ENDBRANCH   4   5
ENDBRANCH   3   4
ENDBRANCH   2   3
ENDBRANCH   1   2
BRANCH   1   9
HETATM    9  C5  UNL     1     -12.163  19.018 -10.572  1.00  0.00     0.080 A
HETATM   10  N2  UNL     1     -11.517  20.138 -10.940  1.00  0.00    -0.354 N
HETATM   11  C6  UNL     1     -12.342  21.178 -11.060  1.00  0.00     0.106 A
ATOM     12  H2  UNL     1     -10.512  20.186 -11.108  1.00  0.00     0.166 HD
HETATM   13  C7  UNL     1     -13.589  20.676 -10.747  1.00  0.00     0.106 A
HETATM   14  N3  UNL     1     -13.464  19.370 -10.455  1.00  0.00    -0.354 N
ATOM     15  H3  UNL     1     -14.225  18.747 -10.188  1.00  0.00     0.166 HD
ENDBRANCH   1   9
TORSDOF 5
ENDMDL