MODEL 4
REMARK VINA RESULT: -3.930401220      2.043      3.811
REMARK  6 active torsions:
REMARK  status: ('A' for Active; 'I' for Inactive)
REMARK    1  A    between atoms: O1_2  and  C2_3
REMARK    2  A    between atoms: C2_3  and  C3_4
REMARK    3  A    between atoms: C2_3  and  C4_9
REMARK    4  A    between atoms: C3_4  and  N1_5
REMARK    5  A    between atoms: C4_9  and  N2_10
REMARK    6  A    between atoms: C4_9  and  C5_14
ROOT
HETATM    1  C2  UNL     1     -12.159  19.373 -10.582  1.00  0.00     0.176 C
ENDROOT
BRANCH   1   2
HETATM    2  O1  UNL     1     -12.222  18.786 -11.838  1.00  0.00    -0.387 OA
HETATM    3  C1  UNL     1     -12.961  17.611 -11.844  1.00  0.00     0.202 C
ENDBRANCH   1   2
BRANCH   1   4
HETATM    4  C3  UNL     1     -12.274  20.855 -10.766  1.00  0.00     0.263 C
BRANCH   4   5
HETATM    5  N1  UNL     1     -13.602  21.367 -10.646  1.00  0.00    -0.077 N
ATOM      6  H13 UNL     1     -14.253  20.615 -10.420  1.00  0.00     0.274 HD
ATOM      7  H12 UNL     1     -13.688  21.935  -9.804  1.00  0.00     0.274 HD
ATOM      8  H11 UNL     1     -13.931  21.887 -11.460  1.00  0.00     0.274 HD
ENDBRANCH   4   5
ENDBRANCH   1   4
BRANCH   1   9
HETATM    9  C4  UNL     1     -10.977  18.928  -9.779  1.00  0.00     0.217 C
BRANCH   9  10
HETATM   10  N2  UNL     1      -9.803  18.932 -10.591  1.00  0.00    -0.072 N
ATOM     11  H23 UNL     1      -9.096  19.576 -10.236  1.00  0.00     0.274 HD
ATOM     12  H22 UNL     1      -9.273  18.064 -10.500  1.00  0.00     0.274 HD
ATOM     13  H21 UNL     1     -10.048  19.131 -11.561  1.00  0.00     0.274 HD
ENDBRANCH   9  10
BRANCH   9  14
HETATM   14  C5  UNL     1     -11.197  17.634  -9.041  1.00  0.00     0.010 C
HETATM   15  C6  UNL     1      -9.812  16.989  -8.889  1.00  0.00     0.011 C
HETATM   16  C7  UNL     1     -11.688  17.873  -7.628  1.00  0.00     0.011 C
ENDBRANCH   9  14
ENDBRANCH   1   9
TORSDOF 6
ENDMDL