MODEL 4
REMARK VINA RESULT: -4.498888601      2.365      5.308
REMARK  5 active torsions:
REMARK  status: ('A' for Active; 'I' for Inactive)
REMARK    1  A    between atoms: N1_1  and  C1_5
REMARK    2  A    between atoms: C1_5  and  N2_6
REMARK    3  A    between atoms: N2_6  and  C2_8
REMARK    4  A    between atoms: N3_9  and  O1_11
REMARK    5  A    between atoms: O1_11  and  C3_12
ROOT
HETATM    1  C2  UNL     1     -11.204  17.912  -9.464  1.00  0.00     0.201 C
HETATM    2  N3  UNL     1     -10.562  18.851 -10.068  1.00  0.00    -0.262 N
ATOM      3  H3  UNL     1     -10.798  19.828  -9.897  1.00  0.00     0.195 HD
ENDROOT
BRANCH   1   4
HETATM    4  N2  UNL     1     -12.238  18.273  -8.564  1.00  0.00    -0.362 N
ATOM      5  H2  UNL     1     -13.046  18.802  -8.892  1.00  0.00     0.161 HD
BRANCH   4   6
HETATM    6  C1  UNL     1     -12.139  17.888  -7.188  1.00  0.00     0.352 C
BRANCH   6   7
HETATM    7  N1  UNL     1     -10.952  17.050  -7.046  1.00  0.00    -0.064 N
ATOM      8  H13 UNL     1     -10.301  17.402  -6.344  1.00  0.00     0.276 HD
ATOM      9  H12 UNL     1     -11.152  16.151  -6.607  1.00  0.00     0.276 HD
ATOM     10  H11 UNL     1     -10.527  16.954  -7.968  1.00  0.00     0.276 HD
ENDBRANCH   6   7
ENDBRANCH   4   6
ENDBRANCH   1   4
BRANCH   2  11
HETATM   11  O1  UNL     1      -9.569  18.527 -10.933  1.00  0.00    -0.270 OA
BRANCH  11  12
HETATM   12  C3  UNL     1      -8.232  18.945 -10.644  1.00  0.00     0.175 A
HETATM   13  C4  UNL     1      -7.280  18.872 -11.427  1.00  0.00     0.003 A
HETATM   14  C5  UNL     1      -6.721  18.417 -11.616  1.00  0.00    -0.028 A
HETATM   15  C6  UNL     1      -6.238  17.327 -11.321  1.00  0.00     0.030 A
HETATM   16  C7  UNL     1      -7.609  17.309 -10.112  1.00  0.00     0.042 A
ENDBRANCH  11  12
ENDBRANCH   2  11
TORSDOF 5
ENDMDL