MODEL 2
REMARK VINA RESULT: -4.191268831      1.024      1.024
REMARK  4 active torsions:
REMARK  status: ('A' for Active; 'I' for Inactive)
REMARK    1  A    between atoms: C2_2  and  C3_3
REMARK    2  A    between atoms: C3_3  and  N1_4
REMARK    3  A    between atoms: N1_4  and  N2_5
REMARK    4  A    between atoms: C6_8  and  N3_9
ROOT
HETATM    1  N2  UNL     1      -9.635  17.794  -9.785  1.00  0.00    -0.329 N
HETATM    2  C4  UNL     1     -10.547  18.754 -10.238  1.00  0.00     0.140 C
HETATM    3  C5  UNL     1     -11.579  18.912  -9.113  1.00  0.00     0.055 C
HETATM    4  C6  UNL     1     -11.527  17.502  -8.509  1.00  0.00     0.204 C
HETATM    5  C7  UNL     1     -10.033  17.235  -8.546  1.00  0.00     0.171 C
ENDROOT
BRANCH   1   6
HETATM    6  N1  UNL     1      -8.323  17.861 -10.011  1.00  0.00    -0.140 NA
BRANCH   6   7
HETATM    7  C3  UNL     1      -7.955  18.959 -10.877  1.00  0.00     0.161 C
BRANCH   7   8
HETATM    8  C2  UNL     1      -6.927  18.544 -11.834  1.00  0.00    -0.019 C
HETATM    9  C1  UNL     1      -5.901  17.774 -11.569  1.00  0.00     0.008 C
ENDBRANCH   7   8
ENDBRANCH   6   7
ENDBRANCH   1   6
BRANCH   4  10
HETATM   10  N3  UNL     1     -12.029  17.497  -7.141  1.00  0.00    -0.073 N
ATOM     11  H33 UNL     1     -11.718  16.670  -6.630  1.00  0.00     0.274 HD
ATOM     12  H32 UNL     1     -11.576  18.212  -6.572  1.00  0.00     0.274 HD
ATOM     13  H31 UNL     1     -13.045  17.590  -7.122  1.00  0.00     0.274 HD
ENDBRANCH   4  10
TORSDOF 4
ENDMDL