MODEL 5
REMARK VINA RESULT: -3.931254832      2.222      3.154
REMARK  4 active torsions:
REMARK  status: ('A' for Active; 'I' for Inactive)
REMARK    1  A    between atoms: C2_2  and  C3_3
REMARK    2  A    between atoms: C3_3  and  N1_4
REMARK    3  A    between atoms: N1_4  and  C4_7
REMARK    4  A    between atoms: C4_7  and  C5_8
ROOT
HETATM    1  C5  UNL     1     -11.477  18.774 -10.544  1.00  0.00     0.237 C
HETATM    2  C6  UNL     1     -12.548  18.151 -11.359  1.00  0.00     0.204 C
HETATM    3  O1  UNL     1     -13.739  18.695 -10.933  1.00  0.00    -0.362 OA
HETATM    4  C7  UNL     1     -13.363  20.041 -10.758  1.00  0.00     0.399 C
HETATM    5  N2  UNL     1     -12.199  19.907  -9.896  1.00  0.00    -0.046 N
ATOM      6  H21 UNL     1     -11.651  20.757  -9.770  1.00  0.00     0.280 HD
ATOM      7  H22 UNL     1     -12.405  19.781  -8.904  1.00  0.00     0.280 HD
ENDROOT
BRANCH   1   8
HETATM    8  C4  UNL     1     -10.918  17.926  -9.434  1.00  0.00     0.267 C
BRANCH   8   9
HETATM    9  N1  UNL     1      -9.511  17.639  -9.567  1.00  0.00    -0.070 N
ATOM     10  H12 UNL     1      -9.331  16.676  -9.851  1.00  0.00     0.277 HD
ATOM     11  H11 UNL     1      -9.029  17.612  -8.669  1.00  0.00     0.277 HD
BRANCH   9  12
HETATM   12  C3  UNL     1      -8.940  18.602 -10.475  1.00  0.00     0.259 C
BRANCH  12  13
HETATM   13  C2  UNL     1      -7.506  18.356 -10.787  1.00  0.00    -0.010 C
HETATM   14  C1  UNL     1      -7.026  18.709 -11.955  1.00  0.00     0.008 C
ENDBRANCH  12  13
ENDBRANCH   9  12
ENDBRANCH   8   9
ENDBRANCH   1   8
TORSDOF 4
ENDMDL