MODEL 2
REMARK VINA RESULT: -5.828524566      2.397      3.349
REMARK  6 active torsions:
REMARK  status: ('A' for Active; 'I' for Inactive)
REMARK    1  A    between atoms: C4_4  and  C5_5
REMARK    2  A    between atoms: C5_5  and  S1_6
REMARK    3  A    between atoms: S1_6  and  N1_9
REMARK    4  A    between atoms: C15_20  and  N2_21
REMARK    5  A    between atoms: N2_21  and  S2_23
REMARK    6  A    between atoms: S2_23  and  C16_26
ROOT
HETATM    1  C1  UNL     1     -12.494 -17.778  -7.412  1.00  0.00     0.010 C
HETATM    2  C2  UNL     1     -13.876 -17.314  -6.968  1.00  0.00    -0.014 C
HETATM    3  C3  UNL     1     -13.828 -16.723  -5.574  1.00  0.00     0.017 C
HETATM    4  C4  UNL     1     -15.154 -16.965  -4.906  1.00  0.00    -0.004 C
HETATM    5  C11 UNL     1     -16.160 -16.681  -6.104  1.00  0.00     0.013 C
HETATM    6  C12 UNL     1     -16.221 -17.853  -7.005  1.00  0.00     0.006 C
HETATM    7  C13 UNL     1     -14.838 -18.497  -7.010  1.00  0.00    -0.009 C
HETATM    8  C14 UNL     1     -14.742 -19.289  -5.722  1.00  0.00     0.031 C
HETATM    9  C15 UNL     1     -15.346 -18.409  -4.622  1.00  0.00     0.102 C
ENDROOT
BRANCH   4  10
HETATM   10  C5  UNL     1     -15.559 -15.998  -3.898  1.00  0.00     0.175 C
BRANCH  10  11
HETATM   11  S1  UNL     1     -14.647 -15.630  -2.494  1.00  0.00     0.235 S
HETATM   12  O1  UNL     1     -15.425 -15.505  -1.228  1.00  0.00    -0.205 OA
HETATM   13  O2  UNL     1     -13.524 -16.578  -2.179  1.00  0.00    -0.205 OA
BRANCH  11  14
HETATM   14  N1  UNL     1     -13.839 -14.089  -2.675  1.00  0.00    -0.245 N
HETATM   15  C6  UNL     1     -13.981 -13.384  -3.922  1.00  0.00     0.144 C
HETATM   16  C7  UNL     1     -12.621 -12.981  -4.405  1.00  0.00     0.022 C
HETATM   17  C8  UNL     1     -11.755 -12.344  -3.377  1.00  0.00     0.011 C
HETATM   18  C9  UNL     1     -12.340 -12.240  -2.010  1.00  0.00     0.104 C
HETATM   19  C10 UNL     1     -13.055 -13.504  -1.656  1.00  0.00     0.233 C
HETATM   20  O3  UNL     1     -12.985 -14.043  -0.524  1.00  0.00    -0.272 OA
ENDBRANCH  11  14
ENDBRANCH  10  11
ENDBRANCH   4  10
BRANCH   9  21
HETATM   21  N2  UNL     1     -14.898 -18.949  -3.401  1.00  0.00    -0.314 N
ATOM     22  H2  UNL     1     -13.914 -19.125  -3.202  1.00  0.00     0.172 HD
BRANCH  21  23
HETATM   23  S2  UNL     1     -16.157 -19.286  -2.275  1.00  0.00     0.231 S
HETATM   24  O4  UNL     1     -17.458 -18.674  -2.657  1.00  0.00    -0.206 OA
HETATM   25  O5  UNL     1     -15.751 -18.706  -0.938  1.00  0.00    -0.206 OA
BRANCH  23  26
HETATM   26  C16 UNL     1     -16.264 -21.044  -2.070  1.00  0.00     0.129 A
HETATM   27  C17 UNL     1     -15.790 -21.561  -0.738  1.00  0.00     0.023 A
HETATM   28  C18 UNL     1     -14.926 -21.804  -1.933  1.00  0.00     0.023 A
ENDBRANCH  23  26
ENDBRANCH  21  23
ENDBRANCH   9  21
TORSDOF 6
ENDMDL