MODEL 3
REMARK VINA RESULT: -6.451130510      3.634      8.897
REMARK  6 active torsions:
REMARK  status: ('A' for Active; 'I' for Inactive)
REMARK       I    between atoms: C1_2  and  N1_3
REMARK    1  A    between atoms: C1_2  and  C5_8
REMARK    2  A    between atoms: N1_3  and  C2_5
REMARK    3  A    between atoms: N2_11  and  S1_12
REMARK    4  A    between atoms: S1_12  and  N3_15
REMARK    5  A    between atoms: N4_18  and  C10_19
REMARK    6  A    between atoms: C10_19  and  C11_20
ROOT
HETATM    1  S1  UNL     1     -10.221 -18.479  -9.721  1.00  0.00     0.300 S
HETATM    2  O2  UNL     1      -9.529 -18.906  -8.460  1.00  0.00    -0.188 OA
HETATM    3  O3  UNL     1      -9.905 -17.004  -9.885  1.00  0.00    -0.188 OA
ENDROOT
BRANCH   1   4
HETATM    4  N2  UNL     1      -9.687 -19.362 -11.064  1.00  0.00    -0.298 N
HETATM    5  C7  UNL     1     -10.515 -19.184 -12.195  1.00  0.00     0.137 C
HETATM    6  C6  UNL     1     -11.484 -20.328 -12.427  1.00  0.00     0.034 C
HETATM    7  C5  UNL     1     -10.822 -21.661 -12.339  1.00  0.00     0.081 C
HETATM    8  C21 UNL     1     -10.066 -21.796 -11.032  1.00  0.00     0.034 C
HETATM    9  C20 UNL     1      -9.136 -20.639 -10.824  1.00  0.00     0.137 C
BRANCH   7  10
HETATM   10  C1  UNL     1     -11.824 -22.746 -12.359  1.00  0.00     0.222 C
HETATM   11  O1  UNL     1     -11.503 -23.871 -11.921  1.00  0.00    -0.273 OA
HETATM   12  N1  UNL     1     -13.117 -22.466 -12.878  1.00  0.00    -0.356 N
ATOM     13  H1  UNL     1     -13.312 -21.524 -13.219  1.00  0.00     0.162 HD
BRANCH  12  14
HETATM   14  C2  UNL     1     -14.173 -23.462 -12.942  1.00  0.00     0.084 A
HETATM   15  C3  UNL     1     -14.499 -24.154 -14.212  1.00  0.00     0.027 A
HETATM   16  C4  UNL     1     -15.416 -23.099 -13.713  1.00  0.00     0.027 A
ENDBRANCH  12  14
ENDBRANCH   7  10
ENDBRANCH   1   4
BRANCH   1  17
HETATM   17  N3  UNL     1     -11.908 -18.652  -9.539  1.00  0.00    -0.190 NA
HETATM   18  C8  UNL     1     -12.522 -17.445  -9.025  1.00  0.00     0.139 C
HETATM   19  C9  UNL     1     -12.495 -17.355  -7.552  1.00  0.00     0.288 C
HETATM   20  N4  UNL     1     -13.012 -18.591  -6.883  1.00  0.00     0.091 N
HETATM   21  C18 UNL     1     -12.222 -19.689  -7.384  1.00  0.00     0.288 C
HETATM   22  C19 UNL     1     -12.345 -19.827  -8.860  1.00  0.00     0.139 C
BRANCH  20  23
HETATM   23  C10 UNL     1     -14.405 -18.637  -7.014  1.00  0.00     0.277 C
BRANCH  23  24
HETATM   24  C11 UNL     1     -15.323 -18.365  -5.867  1.00  0.00     0.014 C
HETATM   25  C12 UNL     1     -15.697 -16.946  -5.724  1.00  0.00     0.006 C
HETATM   26  C13 UNL     1     -16.526 -16.585  -4.517  1.00  0.00     0.000 C
HETATM   27  C14 UNL     1     -16.085 -17.153  -3.229  1.00  0.00     0.000 C
HETATM   28  C15 UNL     1     -16.660 -18.571  -3.146  1.00  0.00     0.000 C
HETATM   29  C16 UNL     1     -15.622 -19.522  -3.634  1.00  0.00     0.000 C
HETATM   30  C17 UNL     1     -14.662 -18.953  -4.616  1.00  0.00     0.006 C
ENDBRANCH  23  24
ENDBRANCH  20  23
ENDBRANCH   1  17
TORSDOF 6
ENDMDL