MODEL 3
REMARK VINA RESULT: -5.847249630      2.048      2.776
REMARK  6 active torsions:
REMARK  status: ('A' for Active; 'I' for Inactive)
REMARK    1  A    between atoms: C1_2  and  C2_3
REMARK       I    between atoms: C1_2  and  N3_22
REMARK    2  A    between atoms: C2_3  and  C3_4
REMARK    3  A    between atoms: C3_4  and  S1_5
REMARK    4  A    between atoms: S1_5  and  N1_8
REMARK    5  A    between atoms: C7_12  and  C8_13
REMARK       I    between atoms: C8_13  and  N2_15
REMARK    6  A    between atoms: N3_22  and  C15_24
ROOT
HETATM    1  S1  UNL     1     -14.425 -17.674  -9.047  1.00  0.00     0.212 S
HETATM    2  O2  UNL     1     -15.184 -18.932  -9.397  1.00  0.00    -0.211 OA
HETATM    3  O3  UNL     1     -14.091 -17.018 -10.340  1.00  0.00    -0.211 OA
ENDROOT
BRANCH   1   4
HETATM    4  C3  UNL     1     -15.396 -16.651  -8.042  1.00  0.00     0.167 C
BRANCH   4   5
HETATM    5  C2  UNL     1     -16.513 -17.242  -7.286  1.00  0.00     0.119 C
BRANCH   5   6
HETATM    6  C1  UNL     1     -16.241 -17.932  -6.040  1.00  0.00     0.218 C
HETATM    7  O1  UNL     1     -16.176 -19.208  -5.999  1.00  0.00    -0.274 OA
HETATM    8  N3  UNL     1     -16.032 -17.258  -4.813  1.00  0.00    -0.356 N
ATOM      9  H3  UNL     1     -16.069 -16.239  -4.775  1.00  0.00     0.162 HD
BRANCH   8  10
HETATM   10  C15 UNL     1     -15.771 -18.011  -3.624  1.00  0.00     0.088 C
HETATM   11  C16 UNL     1     -14.862 -17.309  -2.633  1.00  0.00     0.030 C
HETATM   12  C17 UNL     1     -15.491 -17.489  -1.272  1.00  0.00    -0.012 C
HETATM   13  C18 UNL     1     -16.601 -16.486  -1.136  1.00  0.00     0.005 C
HETATM   14  C21 UNL     1     -16.313 -18.768  -1.511  1.00  0.00     0.011 C
HETATM   15  C19 UNL     1     -17.547 -16.933  -2.259  1.00  0.00     0.007 C
HETATM   16  C20 UNL     1     -17.008 -18.238  -2.781  1.00  0.00     0.009 C
ENDBRANCH   8  10
ENDBRANCH   5   6
ENDBRANCH   4   5
ENDBRANCH   1   4
BRANCH   1  17
HETATM   17  N1  UNL     1     -12.946 -18.162  -8.331  1.00  0.00    -0.211 NA
HETATM   18  C4  UNL     1     -13.004 -19.351  -7.568  1.00  0.00     0.107 C
HETATM   19  C5  UNL     1     -11.651 -19.966  -7.338  1.00  0.00     0.016 C
HETATM   20  C6  UNL     1     -11.029 -20.604  -8.529  1.00  0.00     0.015 C
HETATM   21  C7  UNL     1     -11.854 -20.504  -9.798  1.00  0.00     0.079 C
HETATM   22  C13 UNL     1     -11.839 -19.086 -10.334  1.00  0.00     0.029 C
HETATM   23  C14 UNL     1     -11.833 -18.055  -9.225  1.00  0.00     0.108 C
BRANCH  21  24
HETATM   24  C8  UNL     1     -11.217 -21.387 -10.807  1.00  0.00     0.224 C
HETATM   25  O4  UNL     1      -9.977 -21.695 -10.689  1.00  0.00    -0.273 OA
HETATM   26  N2  UNL     1     -11.947 -21.886 -11.889  1.00  0.00    -0.352 N
HETATM   27  C9  UNL     1     -13.356 -21.638 -12.143  1.00  0.00     0.126 C
HETATM   28  C12 UNL     1     -11.433 -22.747 -12.962  1.00  0.00     0.126 C
HETATM   29  C10 UNL     1     -13.806 -22.933 -12.801  1.00  0.00     0.021 C
HETATM   30  C11 UNL     1     -12.570 -23.715 -13.137  1.00  0.00     0.021 C
ENDBRANCH  21  24
ENDBRANCH   1  17
TORSDOF 6
ENDMDL