MODEL 3
REMARK VINA RESULT: -5.850453784      1.783      2.402
REMARK  9 active torsions:
REMARK  status: ('A' for Active; 'I' for Inactive)
REMARK    1  A    between atoms: C2_2  and  C3_3
REMARK    2  A    between atoms: C6_6  and  N1_7
REMARK       I    between atoms: N1_7  and  C7_9
REMARK    3  A    between atoms: C7_9  and  C8_11
REMARK    4  A    between atoms: N2_15  and  C12_16
REMARK    5  A    between atoms: C12_16  and  O2_17
REMARK    6  A    between atoms: C12_16  and  C13_19
REMARK    7  A    between atoms: C13_19  and  C14_20
REMARK    8  A    between atoms: C13_19  and  N3_22
REMARK       I    between atoms: N4_25  and  C18_26
REMARK    9  A    between atoms: C18_26  and  C19_28
ROOT
HETATM    1  C12 UNL     1     -13.296 -19.622  -9.587  1.00  0.00     0.137 C
ENDROOT
BRANCH   1   2
HETATM    2  N2  UNL     1     -14.032 -18.682  -8.854  1.00  0.00    -0.350 N
HETATM    3  C8  UNL     1     -13.893 -18.259  -7.501  1.00  0.00     0.178 C
HETATM    4  C9  UNL     1     -14.150 -16.742  -7.535  1.00  0.00     0.037 C
HETATM    5  C10 UNL     1     -15.260 -16.661  -8.571  1.00  0.00     0.022 C
HETATM    6  C11 UNL     1     -15.123 -17.875  -9.446  1.00  0.00     0.126 C
BRANCH   3   7
HETATM    7  C7  UNL     1     -14.907 -18.793  -6.550  1.00  0.00     0.240 C
HETATM    8  N1  UNL     1     -15.105 -18.360  -5.242  1.00  0.00    -0.355 N
ATOM      9  H1  UNL     1     -14.478 -17.615  -4.939  1.00  0.00     0.162 HD
HETATM   10  O1  UNL     1     -15.629 -19.730  -7.041  1.00  0.00    -0.271 OA
BRANCH   8  11
HETATM   11  C6  UNL     1     -16.038 -18.787  -4.258  1.00  0.00     0.085 C
HETATM   12  C5  UNL     1     -16.471 -17.730  -3.309  1.00  0.00     0.026 C
HETATM   13  C4  UNL     1     -16.916 -18.478  -2.075  1.00  0.00     0.010 C
HETATM   14  C3  UNL     1     -15.774 -19.492  -1.945  1.00  0.00     0.009 C
HETATM   15  C24 UNL     1     -15.600 -19.941  -3.391  1.00  0.00     0.033 C
BRANCH  14  16
HETATM   16  C2  UNL     1     -16.129 -20.607  -1.058  1.00  0.00    -0.032 C
HETATM   17  C1  UNL     1     -15.723 -21.842  -1.308  1.00  0.00     0.007 C
ENDBRANCH  14  16
ENDBRANCH   8  11
ENDBRANCH   3   7
ENDBRANCH   1   2
BRANCH   1  18
HETATM   18  O2  UNL     1     -14.024 -20.463 -10.268  1.00  0.00    -0.348 OA
ATOM     19  H2  UNL     1     -14.665 -20.053 -10.837  1.00  0.00     0.219 HD
ENDBRANCH   1  18
BRANCH   1  20
HETATM   20  C13 UNL     1     -11.823 -19.759  -9.675  1.00  0.00     0.157 C
BRANCH  20  21
HETATM   21  C14 UNL     1     -11.246 -20.428  -8.472  1.00  0.00     0.029 C
HETATM   22  C15 UNL     1     -10.258 -19.477  -7.756  1.00  0.00     0.007 C
ENDBRANCH  20  21
BRANCH  20  23
HETATM   23  N3  UNL     1     -11.394 -20.326 -10.908  1.00  0.00    -0.378 N
HETATM   24  C16 UNL     1     -10.876 -21.637 -10.894  1.00  0.00     0.143 C
HETATM   25  C17 UNL     1     -10.907 -22.142 -12.341  1.00  0.00     0.146 C
HETATM   26  N4  UNL     1     -10.008 -21.296 -13.098  1.00  0.00    -0.346 N
HETATM   27  C18 UNL     1      -9.282 -21.826 -14.213  1.00  0.00     0.224 C
HETATM   28  C22 UNL     1      -9.873 -19.913 -12.689  1.00  0.00     0.170 C
HETATM   29  O3  UNL     1      -9.438 -23.019 -14.519  1.00  0.00    -0.273 OA
HETATM   30  C23 UNL     1     -11.182 -19.510 -12.022  1.00  0.00     0.079 C
BRANCH  27  31
HETATM   31  C19 UNL     1      -8.350 -21.013 -15.025  1.00  0.00     0.078 A
HETATM   32  C20 UNL     1      -8.020 -21.502 -16.387  1.00  0.00     0.015 A
HETATM   33  C21 UNL     1      -8.992 -20.357 -16.265  1.00  0.00     0.015 A
ENDBRANCH  27  31
ENDBRANCH  20  23
ENDBRANCH   1  20
TORSDOF 9
ENDMDL