MODEL 2
REMARK VINA RESULT: -6.713486613      2.134      2.958
REMARK  6 active torsions:
REMARK  status: ('A' for Active; 'I' for Inactive)
REMARK       I    between atoms: C1_2  and  N1_3
REMARK    1  A    between atoms: C1_2  and  C8_11
REMARK    2  A    between atoms: N1_3  and  C2_5
REMARK    3  A    between atoms: N2_15  and  S1_16
REMARK    4  A    between atoms: S1_16  and  N3_19
REMARK    5  A    between atoms: N4_23  and  C15_24
REMARK    6  A    between atoms: C15_24  and  C16_25
ROOT
HETATM    1  C8  UNL     1     -10.974 -21.278 -11.551  1.00  0.00     0.092 C
HETATM    2  C9  UNL     1      -9.635 -21.682 -10.982  1.00  0.00     0.016 C
HETATM    3  C10 UNL     1      -8.885 -20.431 -10.617  1.00  0.00     0.016 C
HETATM    4  C11 UNL     1      -9.695 -19.189 -10.792  1.00  0.00     0.108 C
HETATM    5  N2  UNL     1     -11.026 -19.245 -10.292  1.00  0.00    -0.197 NA
HETATM    6  C21 UNL     1     -11.678 -20.502 -10.429  1.00  0.00     0.122 C
ENDROOT
BRANCH   5   7
HETATM    7  S1  UNL     1     -11.165 -18.505  -8.765  1.00  0.00     0.283 S
HETATM    8  O2  UNL     1     -10.560 -19.346  -7.686  1.00  0.00    -0.194 OA
HETATM    9  O3  UNL     1     -10.513 -17.156  -8.714  1.00  0.00    -0.194 OA
BRANCH   7  10
HETATM   10  N3  UNL     1     -12.835 -18.306  -8.413  1.00  0.00    -0.196 NA
HETATM   11  C12 UNL     1     -13.062 -17.830  -7.069  1.00  0.00     0.110 C
HETATM   12  C13 UNL     1     -14.474 -18.203  -6.677  1.00  0.00     0.046 C
HETATM   13  C14 UNL     1     -15.011 -19.348  -7.473  1.00  0.00     0.273 C
HETATM   14  N4  UNL     1     -15.363 -19.037  -8.821  1.00  0.00     0.090 N
HETATM   15  C19 UNL     1     -14.988 -17.735  -9.269  1.00  0.00     0.287 C
HETATM   16  C20 UNL     1     -13.519 -17.508  -9.404  1.00  0.00     0.138 C
BRANCH  14  17
HETATM   17  C15 UNL     1     -16.781 -19.210  -8.992  1.00  0.00     0.277 C
BRANCH  17  18
HETATM   18  C16 UNL     1     -17.170 -19.508 -10.411  1.00  0.00     0.014 A
HETATM   19  C17 UNL     1     -18.468 -20.190 -10.612  1.00  0.00     0.007 A
HETATM   20  C18 UNL     1     -18.327 -18.770 -11.015  1.00  0.00     0.007 A
ENDBRANCH  17  18
ENDBRANCH  14  17
ENDBRANCH   7  10
ENDBRANCH   5   7
BRANCH   1  21
HETATM   21  C1  UNL     1     -11.772 -22.415 -12.006  1.00  0.00     0.223 C
HETATM   22  O1  UNL     1     -11.412 -23.585 -11.717  1.00  0.00    -0.273 OA
HETATM   23  N1  UNL     1     -12.961 -22.298 -12.773  1.00  0.00    -0.356 N
ATOM     24  H1  UNL     1     -13.279 -21.361 -13.021  1.00  0.00     0.162 HD
BRANCH  23  25
HETATM   25  C2  UNL     1     -13.750 -23.421 -13.224  1.00  0.00     0.084 C
HETATM   26  C3  UNL     1     -15.117 -22.907 -13.598  1.00  0.00     0.025 C
HETATM   27  C4  UNL     1     -16.046 -24.023 -14.025  1.00  0.00     0.002 C
HETATM   28  C5  UNL     1     -15.293 -25.267 -14.444  1.00  0.00     0.000 C
HETATM   29  C6  UNL     1     -14.027 -24.936 -15.208  1.00  0.00     0.002 C
HETATM   30  C7  UNL     1     -13.072 -24.106 -14.389  1.00  0.00     0.025 C
ENDBRANCH  23  25
ENDBRANCH   1  21
TORSDOF 6
ENDMDL