MODEL 1
REMARK VINA RESULT: -6.354454132      0.000      0.000
REMARK  6 active torsions:
REMARK  status: ('A' for Active; 'I' for Inactive)
REMARK    1  A    between atoms: C4_5  and  C5_6
REMARK       I    between atoms: C5_6  and  N2_8
REMARK    2  A    between atoms: N2_8  and  C6_10
REMARK    3  A    between atoms: N3_13  and  C9_14
REMARK    4  A    between atoms: N4_17  and  S1_18
REMARK    5  A    between atoms: S1_18  and  C12_21
REMARK    6  A    between atoms: C12_21  and  C13_22
ROOT
HETATM    1  C6  UNL     1     -13.539 -18.825  -8.603  1.00  0.00     0.087 C
HETATM    2  C7  UNL     1     -14.933 -19.308  -8.956  1.00  0.00     0.055 C
HETATM    3  C8  UNL     1     -15.923 -18.778  -7.948  1.00  0.00     0.275 C
HETATM    4  N3  UNL     1     -15.681 -17.423  -7.578  1.00  0.00     0.093 N
HETATM    5  C18 UNL     1     -14.829 -16.723  -8.469  1.00  0.00     0.275 C
HETATM    6  C19 UNL     1     -13.444 -17.312  -8.626  1.00  0.00     0.055 C
ENDROOT
BRANCH   4   7
HETATM    7  C9  UNL     1     -15.407 -17.324  -6.194  1.00  0.00     0.225 C
HETATM    8  C10 UNL     1     -15.747 -18.680  -5.565  1.00  0.00     0.051 C
HETATM    9  C11 UNL     1     -16.503 -18.399  -4.284  1.00  0.00     0.109 C
HETATM   10  N4  UNL     1     -15.662 -17.505  -3.499  1.00  0.00    -0.210 NA
HETATM   11  C16 UNL     1     -15.793 -16.188  -4.032  1.00  0.00     0.109 C
HETATM   12  C17 UNL     1     -16.153 -16.213  -5.495  1.00  0.00     0.051 C
BRANCH  10  13
HETATM   13  S1  UNL     1     -16.001 -17.629  -1.833  1.00  0.00     0.211 S
HETATM   14  O2  UNL     1     -14.747 -17.328  -1.061  1.00  0.00    -0.211 OA
HETATM   15  O3  UNL     1     -17.020 -16.586  -1.474  1.00  0.00    -0.211 OA
BRANCH  13  16
HETATM   16  C12 UNL     1     -16.675 -19.203  -1.380  1.00  0.00     0.162 C
BRANCH  16  17
HETATM   17  C13 UNL     1     -15.532 -20.195  -1.344  1.00  0.00     0.001 A
HETATM   18  C14 UNL     1     -15.719 -21.473  -0.610  1.00  0.00     0.006 A
HETATM   19  C15 UNL     1     -15.732 -21.474  -2.140  1.00  0.00     0.006 A
ENDBRANCH  16  17
ENDBRANCH  13  16
ENDBRANCH  10  13
ENDBRANCH   4   7
BRANCH   1  20
HETATM   20  N2  UNL     1     -12.631 -19.435  -9.544  1.00  0.00    -0.356 N
HETATM   21  C5  UNL     1     -11.582 -20.246  -9.048  1.00  0.00     0.222 C
HETATM   22  O1  UNL     1     -11.403 -20.460  -7.826  1.00  0.00    -0.273 OA
ATOM     23  H2  UNL     1     -12.742 -19.284 -10.546  1.00  0.00     0.162 HD
BRANCH  21  24
HETATM   24  C4  UNL     1     -10.648 -20.874 -10.004  1.00  0.00     0.081 C
HETATM   25  C3  UNL     1     -11.331 -21.392 -11.250  1.00  0.00     0.044 C
HETATM   26  C2  UNL     1     -10.256 -22.002 -12.130  1.00  0.00     0.272 C
HETATM   27  N1  UNL     1      -8.946 -21.739 -11.566  1.00  0.00     0.084 N
HETATM   28  C1  UNL     1      -7.865 -21.915 -12.484  1.00  0.00     0.309 C
HETATM   29  C21 UNL     1      -8.756 -22.404 -10.295  1.00  0.00     0.272 C
HETATM   30  C20 UNL     1      -9.899 -22.030  -9.380  1.00  0.00     0.044 C
ENDBRANCH  21  24
ENDBRANCH   1  20
TORSDOF 6
ENDMDL