MODEL 5
REMARK VINA RESULT: -5.460519216      2.571      3.030
REMARK  7 active torsions:
REMARK  status: ('A' for Active; 'I' for Inactive)
REMARK    1  A    between atoms: C2_2  and  C4_4
REMARK    2  A    between atoms: C4_4  and  C5_5
REMARK    3  A    between atoms: C5_5  and  C6_6
REMARK    4  A    between atoms: C5_5  and  N2_14
REMARK       I    between atoms: C6_6  and  N1_8
REMARK    5  A    between atoms: N3_17  and  S1_18
REMARK    6  A    between atoms: S1_18  and  N4_21
REMARK    7  A    between atoms: N4_21  and  C14_23
ROOT
HETATM    1  N2  UNL     1     -13.575 -19.047  -8.953  1.00  0.00    -0.377 N
HETATM    2  C12 UNL     1     -12.456 -18.196  -8.918  1.00  0.00     0.143 C
HETATM    3  C13 UNL     1     -11.214 -18.837  -9.547  1.00  0.00     0.157 C
HETATM    4  N3  UNL     1     -11.548 -19.204 -10.876  1.00  0.00    -0.288 N
HETATM    5  C20 UNL     1     -12.918 -19.131 -11.231  1.00  0.00     0.181 C
HETATM    6  C21 UNL     1     -13.761 -19.745 -10.128  1.00  0.00     0.079 C
ENDROOT
BRANCH   1   7
HETATM    7  C5  UNL     1     -14.656 -18.763  -8.060  1.00  0.00     0.176 C
BRANCH   7   8
HETATM    8  C4  UNL     1     -15.872 -19.412  -8.598  1.00  0.00     0.038 C
BRANCH   8   9
HETATM    9  C2  UNL     1     -16.948 -18.626  -9.199  1.00  0.00    -0.020 C
HETATM   10  C1  UNL     1     -16.538 -17.260  -9.647  1.00  0.00     0.009 C
HETATM   11  C3  UNL     1     -17.488 -19.444 -10.391  1.00  0.00     0.009 C
ENDBRANCH   8   9
ENDBRANCH   7   8
BRANCH   7  12
HETATM   12  C6  UNL     1     -14.330 -18.889  -6.656  1.00  0.00     0.242 C
HETATM   13  O1  UNL     1     -13.322 -19.596  -6.250  1.00  0.00    -0.271 OA
HETATM   14  N1  UNL     1     -15.039 -18.278  -5.593  1.00  0.00    -0.350 N
HETATM   15  C7  UNL     1     -16.183 -17.426  -5.837  1.00  0.00     0.126 C
HETATM   16  C11 UNL     1     -14.694 -18.443  -4.189  1.00  0.00     0.126 C
HETATM   17  C8  UNL     1     -16.320 -16.407  -4.693  1.00  0.00     0.020 C
HETATM   18  C9  UNL     1     -16.634 -17.126  -3.393  1.00  0.00     0.003 C
HETATM   19  C10 UNL     1     -15.985 -18.503  -3.390  1.00  0.00     0.020 C
ENDBRANCH   7  12
ENDBRANCH   1   7
BRANCH   4  20
HETATM   20  S1  UNL     1     -10.828 -20.620 -11.473  1.00  0.00     0.317 S
HETATM   21  O2  UNL     1      -9.416 -20.405 -11.890  1.00  0.00    -0.183 OA
HETATM   22  O3  UNL     1     -10.811 -21.666 -10.380  1.00  0.00    -0.183 OA
BRANCH  20  23
HETATM   23  N4  UNL     1     -11.808 -21.254 -12.745  1.00  0.00    -0.298 N
ATOM     24  H4  UNL     1     -11.828 -20.879 -13.693  1.00  0.00     0.174 HD
BRANCH  23  25
HETATM   25  C14 UNL     1     -12.597 -22.385 -12.299  1.00  0.00     0.094 C
HETATM   26  C15 UNL     1     -11.867 -23.642 -12.673  1.00  0.00     0.026 C
HETATM   27  C16 UNL     1     -12.095 -24.078 -14.092  1.00  0.00     0.002 C
HETATM   28  C17 UNL     1     -13.539 -24.071 -14.496  1.00  0.00     0.000 C
HETATM   29  C18 UNL     1     -14.380 -23.736 -13.295  1.00  0.00     0.002 C
HETATM   30  C19 UNL     1     -13.997 -22.350 -12.813  1.00  0.00     0.026 C
ENDBRANCH  23  25
ENDBRANCH  20  23
ENDBRANCH   4  20
TORSDOF 7
ENDMDL