MODEL 3
REMARK VINA RESULT: -6.230307256      1.531      2.258
REMARK  7 active torsions:
REMARK  status: ('A' for Active; 'I' for Inactive)
REMARK    1  A    between atoms: C2_4  and  C3_5
REMARK    2  A    between atoms: C2_4  and  N5_26
REMARK    3  A    between atoms: C3_5  and  C4_6
REMARK    4  A    between atoms: C4_6  and  N2_7
REMARK       I    between atoms: N2_7  and  C5_9
REMARK    5  A    between atoms: C5_9  and  C6_11
REMARK    6  A    between atoms: N3_14  and  S1_15
REMARK    7  A    between atoms: S1_15  and  N4_18
ROOT
HETATM    1  N2  UNL     1     -14.452 -19.388  -8.986  1.00  0.00    -0.340 N
ATOM      2  H2  UNL     1     -13.753 -19.020  -8.342  1.00  0.00     0.167 HD
HETATM    3  C5  UNL     1     -15.704 -19.553  -8.421  1.00  0.00     0.225 C
HETATM    4  O1  UNL     1     -16.710 -19.958  -8.973  1.00  0.00    -0.273 OA
ENDROOT
BRANCH   3   5
HETATM    5  C6  UNL     1     -15.856 -19.192  -6.954  1.00  0.00     0.081 C
HETATM    6  C7  UNL     1     -14.493 -19.294  -6.288  1.00  0.00     0.034 C
HETATM    7  C8  UNL     1     -14.662 -18.787  -4.864  1.00  0.00     0.137 C
HETATM    8  N3  UNL     1     -15.068 -17.428  -4.943  1.00  0.00    -0.294 N
HETATM    9  C14 UNL     1     -16.311 -17.157  -5.566  1.00  0.00     0.137 C
HETATM   10  C15 UNL     1     -16.438 -17.816  -6.926  1.00  0.00     0.034 C
BRANCH   8  11
HETATM   11  S1  UNL     1     -14.857 -16.519  -3.508  1.00  0.00     0.326 S
HETATM   12  O2  UNL     1     -13.531 -16.872  -2.884  1.00  0.00    -0.182 OA
HETATM   13  O3  UNL     1     -14.706 -15.061  -3.940  1.00  0.00    -0.182 OA
BRANCH  11  14
HETATM   14  N4  UNL     1     -16.140 -16.588  -2.423  1.00  0.00    -0.253 N
HETATM   15  C9  UNL     1     -16.784 -17.805  -2.198  1.00  0.00     0.082 C
HETATM   16  C10 UNL     1     -18.196 -17.711  -1.690  1.00  0.00     0.046 C
HETATM   17  C11 UNL     1     -18.783 -16.336  -1.810  1.00  0.00     0.010 C
HETATM   18  C12 UNL     1     -17.887 -15.236  -1.350  1.00  0.00     0.046 C
HETATM   19  C13 UNL     1     -16.430 -15.464  -1.639  1.00  0.00     0.082 C
ENDBRANCH  11  14
ENDBRANCH   8  11
ENDBRANCH   3   5
BRANCH   1  20
HETATM   20  C4  UNL     1     -13.962 -19.632 -10.281  1.00  0.00     0.071 C
BRANCH  20  21
HETATM   21  C3  UNL     1     -13.053 -20.746 -10.494  1.00  0.00     0.120 C
BRANCH  21  22
HETATM   22  C2  UNL     1     -11.683 -20.460 -10.920  1.00  0.00     0.079 C
HETATM   23  N1  UNL     1     -11.443 -20.362 -12.142  1.00  0.00    -0.384 N
HETATM   24  C1  UNL     1     -10.359 -20.115 -12.973  1.00  0.00     0.147 C
ATOM     25  H1  UNL     1     -12.293 -20.505 -12.689  1.00  0.00     0.160 HD
BRANCH  22  26
HETATM   26  N5  UNL     1     -10.672 -20.369  -9.935  1.00  0.00    -0.371 N
HETATM   27  C16 UNL     1     -10.294 -19.036  -9.455  1.00  0.00     0.124 C
HETATM   28  C17 UNL     1     -10.833 -18.944  -8.049  1.00  0.00     0.020 C
HETATM   29  C18 UNL     1     -11.181 -20.288  -7.490  1.00  0.00     0.003 C
HETATM   30  C19 UNL     1     -10.177 -21.369  -7.824  1.00  0.00     0.020 C
HETATM   31  C20 UNL     1      -9.948 -21.448  -9.311  1.00  0.00     0.124 C
ENDBRANCH  22  26
ENDBRANCH  21  22
ENDBRANCH  20  21
ENDBRANCH   1  20
TORSDOF 7
ENDMDL