MODEL 4
REMARK VINA RESULT: -5.812604370      0.949      1.346
REMARK  6 active torsions:
REMARK  status: ('A' for Active; 'I' for Inactive)
REMARK       I    between atoms: C1_2  and  N1_3
REMARK    1  A    between atoms: C1_2  and  C11_16
REMARK    2  A    between atoms: N1_3  and  C2_5
REMARK    3  A    between atoms: C2_5  and  C3_6
REMARK    4  A    between atoms: C3_6  and  C4_7
REMARK       I    between atoms: C4_7  and  N2_9
REMARK    5  A    between atoms: N3_19  and  S1_20
REMARK    6  A    between atoms: S1_20  and  N4_23
ROOT
HETATM    1  O1  UNL     1     -14.115 -18.361 -10.348  1.00  0.00    -0.273 OA
HETATM    2  C1  UNL     1     -14.207 -19.407  -9.698  1.00  0.00     0.226 C
HETATM    3  N1  UNL     1     -13.778 -20.645 -10.229  1.00  0.00    -0.337 N
ATOM      4  H1  UNL     1     -13.908 -21.474  -9.648  1.00  0.00     0.168 HD
ENDROOT
BRANCH   2   5
HETATM    5  C11 UNL     1     -14.794 -19.317  -8.318  1.00  0.00     0.084 C
HETATM    6  C12 UNL     1     -15.693 -18.096  -8.214  1.00  0.00     0.035 C
HETATM    7  C13 UNL     1     -16.010 -17.854  -6.745  1.00  0.00     0.142 C
HETATM    8  N3  UNL     1     -14.857 -17.588  -5.970  1.00  0.00    -0.278 N
HETATM    9  C18 UNL     1     -13.669 -17.977  -6.616  1.00  0.00     0.078 C
HETATM   10  C19 UNL     1     -13.707 -19.326  -7.286  1.00  0.00     0.059 C
BRANCH   8  11
HETATM   11  S1  UNL     1     -15.018 -17.876  -4.339  1.00  0.00     0.304 S
HETATM   12  O3  UNL     1     -13.994 -17.136  -3.486  1.00  0.00    -0.188 OA
HETATM   13  O4  UNL     1     -14.648 -19.346  -4.111  1.00  0.00    -0.188 OA
BRANCH  11  14
HETATM   14  N4  UNL     1     -16.523 -17.659  -3.611  1.00  0.00    -0.193 NA
HETATM   15  C14 UNL     1     -16.878 -16.331  -3.241  1.00  0.00     0.109 C
HETATM   16  C15 UNL     1     -17.288 -16.396  -1.779  1.00  0.00     0.017 C
HETATM   17  C16 UNL     1     -17.789 -17.827  -1.672  1.00  0.00     0.017 C
HETATM   18  C17 UNL     1     -16.854 -18.578  -2.584  1.00  0.00     0.109 C
ENDBRANCH  11  14
ENDBRANCH   8  11
ENDBRANCH   2   5
BRANCH   3  19
HETATM   19  C2  UNL     1     -13.186 -20.828 -11.489  1.00  0.00     0.096 C
BRANCH  19  20
HETATM   20  C3  UNL     1     -11.738 -20.844 -11.692  1.00  0.00     0.091 C
BRANCH  20  21
HETATM   21  C4  UNL     1     -10.849 -19.785 -11.296  1.00  0.00     0.244 C
HETATM   22  O2  UNL     1     -10.931 -18.648 -11.901  1.00  0.00    -0.268 OA
HETATM   23  N2  UNL     1      -9.870 -19.861 -10.273  1.00  0.00    -0.349 N
HETATM   24  C5  UNL     1      -9.756 -21.117  -9.598  1.00  0.00     0.126 C
HETATM   25  C10 UNL     1      -9.117 -18.658 -10.039  1.00  0.00     0.126 C
HETATM   26  C6  UNL     1     -10.620 -21.188  -8.355  1.00  0.00     0.020 C
HETATM   27  C7  UNL     1      -9.941 -20.251  -7.345  1.00  0.00     0.002 C
HETATM   28  C8  UNL     1     -10.222 -18.838  -7.804  1.00  0.00     0.002 C
HETATM   29  C9  UNL     1      -9.003 -18.348  -8.557  1.00  0.00     0.020 C
ENDBRANCH  20  21
ENDBRANCH  19  20
ENDBRANCH   3  19
TORSDOF 6
ENDMDL