MODEL 4
REMARK VINA RESULT: -7.542658318      3.328      9.298
REMARK  7 active torsions:
REMARK  status: ('A' for Active; 'I' for Inactive)
REMARK       I    between atoms: C1_2  and  N1_3
REMARK       I    between atoms: C1_2  and  N4_17
REMARK    1  A    between atoms: N1_3  and  N2_5
REMARK    2  A    between atoms: C2_7  and  C3_8
REMARK    3  A    between atoms: C6_11  and  N3_12
REMARK    4  A    between atoms: N4_17  and  S1_19
REMARK    5  A    between atoms: S1_19  and  C9_22
REMARK    6  A    between atoms: C12_25  and  N5_26
REMARK    7  A    between atoms: C13_28  and  C14_29
ROOT
HETATM    1  O1  UNL     1     -52.142  -1.033 -22.408  1.00  0.00    -0.245 OA
HETATM    2  C1  UNL     1     -51.985   0.108 -22.891  1.00  0.00     0.348 C
HETATM    3  N1  UNL     1     -51.326   0.253 -24.125  1.00  0.00    -0.251 N
ATOM      4  H1  UNL     1     -51.205   1.192 -24.505  1.00  0.00     0.191 HD
HETATM    5  N4  UNL     1     -52.464   1.227 -22.199  1.00  0.00    -0.231 N
ATOM      6  H4  UNL     1     -52.310   2.126 -22.655  1.00  0.00     0.183 HD
ENDROOT
BRANCH   5   7
HETATM    7  S1  UNL     1     -53.267   1.288 -20.704  1.00  0.00     0.266 S
HETATM    8  O4  UNL     1     -53.940   2.617 -20.548  1.00  0.00    -0.200 OA
HETATM    9  O5  UNL     1     -54.337   0.200 -20.690  1.00  0.00    -0.200 OA
BRANCH   7  10
HETATM   10  C9  UNL     1     -52.189   1.053 -19.343  1.00  0.00     0.080 A
HETATM   11  C10 UNL     1     -51.027   0.322 -19.417  1.00  0.00     0.027 A
HETATM   12  C11 UNL     1     -50.194   0.153 -18.321  1.00  0.00     0.031 A
HETATM   13  C12 UNL     1     -50.494   0.716 -17.091  1.00  0.00     0.031 A
HETATM   14  C17 UNL     1     -51.662   1.451 -17.011  1.00  0.00     0.031 A
HETATM   15  C18 UNL     1     -52.489   1.617 -18.107  1.00  0.00     0.027 A
BRANCH  13  16
HETATM   16  N5  UNL     1     -49.663   0.568 -15.963  1.00  0.00    -0.369 N
HETATM   17  C13 UNL     1     -49.792  -0.309 -15.050  1.00  0.00     0.066 C
ATOM     18  H5  UNL     1     -48.887   1.223 -15.869  1.00  0.00     0.165 HD
BRANCH  17  19
HETATM   19  C14 UNL     1     -50.856  -1.306 -15.058  1.00  0.00     0.024 A
HETATM   20  C15 UNL     1     -52.057  -1.155 -14.190  1.00  0.00     0.010 A
HETATM   21  C16 UNL     1     -51.013  -2.141 -13.786  1.00  0.00     0.010 A
ENDBRANCH  17  19
ENDBRANCH  13  16
ENDBRANCH   7  10
ENDBRANCH   5   7
BRANCH   3  22
HETATM   22  N2  UNL     1     -50.837  -0.813 -24.839  1.00  0.00    -0.307 N
HETATM   23  C2  UNL     1     -50.521  -0.808 -26.086  1.00  0.00     0.118 C
ATOM     24  H2  UNL     1     -50.713  -1.690 -24.333  1.00  0.00     0.186 HD
BRANCH  23  25
HETATM   25  C3  UNL     1     -50.012  -2.046 -26.690  1.00  0.00    -0.019 A
HETATM   26  C4  UNL     1     -50.928  -2.958 -27.224  1.00  0.00     0.015 A
HETATM   27  C5  UNL     1     -50.527  -4.148 -27.790  1.00  0.00     0.037 A
HETATM   28  C6  UNL     1     -49.153  -4.409 -27.808  1.00  0.00     0.102 A
HETATM   29  C7  UNL     1     -48.255  -3.505 -27.280  1.00  0.00     0.037 A
HETATM   30  C8  UNL     1     -48.674  -2.303 -26.711  1.00  0.00     0.015 A
BRANCH  28  31
HETATM   31  N3  UNL     1     -48.711  -5.622 -28.375  1.00  0.00    -0.116 N
HETATM   32  O2  UNL     1     -48.306  -6.531 -27.644  1.00  0.00    -0.532 OA
HETATM   33  O3  UNL     1     -48.744  -5.801 -29.723  1.00  0.00    -0.532 OA
ENDBRANCH  28  31
ENDBRANCH  23  25
ENDBRANCH   3  22
TORSDOF 7
ENDMDL