MODEL 2
REMARK VINA RESULT: -7.112581273      3.261      6.904
REMARK  9 active torsions:
REMARK  status: ('A' for Active; 'I' for Inactive)
REMARK    1  A    between atoms: C3_4  and  C4_5
REMARK    2  A    between atoms: C4_5  and  O1_6
REMARK    3  A    between atoms: O1_6  and  C5_7
REMARK    4  A    between atoms: C5_7  and  C6_8
REMARK    5  A    between atoms: C6_8  and  C7_9
REMARK    6  A    between atoms: C7_9  and  C8_10
REMARK    7  A    between atoms: C8_10  and  C9_11
REMARK    8  A    between atoms: C9_11  and  C10_12
REMARK    9  A    between atoms: C10_12  and  N2_13
ROOT
HETATM    1  N1  UNL     1     -48.735  -2.648 -27.132  1.00  0.00    -0.182 NA
HETATM    2  C1  UNL     1     -48.632  -2.462 -26.005  1.00  0.00     0.152 C
HETATM    3  C2  UNL     1     -48.485  -2.241 -24.628  1.00  0.00     0.015 C
HETATM    4  C3  UNL     1     -48.343  -2.066 -23.449  1.00  0.00    -0.064 C
ENDROOT
BRANCH   4   5
HETATM    5  C4  UNL     1     -48.145  -1.855 -21.995  1.00  0.00     0.271 C
BRANCH   5   6
HETATM    6  O1  UNL     1     -48.348  -0.502 -21.711  1.00  0.00    -0.327 OA
BRANCH   6   7
HETATM    7  C5  UNL     1     -49.445  -0.130 -20.858  1.00  0.00     0.127 C
HETATM    8  N5  UNL     1     -49.321  -0.546 -19.682  1.00  0.00    -0.277 N
HETATM    9  C19 UNL     1     -50.065  -0.449 -18.563  1.00  0.00     0.183 C
ATOM     10  H5  UNL     1     -48.462  -1.077 -19.539  1.00  0.00     0.180 HD
HETATM   11  N6  UNL     1     -50.682  -0.379 -17.586  1.00  0.00    -0.172 NA
BRANCH   7  12
HETATM   12  C6  UNL     1     -50.516   0.663 -21.473  1.00  0.00     0.085 C
BRANCH  12  13
HETATM   13  C7  UNL     1     -51.521  -0.072 -22.287  1.00  0.00     0.008 C
BRANCH  13  14
HETATM   14  C8  UNL     1     -51.981   0.628 -23.522  1.00  0.00     0.002 C
BRANCH  14  15
HETATM   15  C9  UNL     1     -51.747  -0.180 -24.783  1.00  0.00     0.020 C
BRANCH  15  16
HETATM   16  C10 UNL     1     -52.923  -1.018 -25.188  1.00  0.00     0.132 C
BRANCH  16  17
HETATM   17  N2  UNL     1     -52.424  -2.312 -25.596  1.00  0.00    -0.322 N
HETATM   18  C11 UNL     1     -52.359  -2.755 -26.858  1.00  0.00     0.179 A
HETATM   19  S1  UNL     1     -52.817  -1.975 -28.215  1.00  0.00    -0.040 SA
HETATM   20  N3  UNL     1     -51.836  -3.996 -26.798  1.00  0.00    -0.331 N
HETATM   21  C12 UNL     1     -51.569  -4.337 -25.504  1.00  0.00     0.063 A
ATOM     22  H3  UNL     1     -51.664  -4.595 -27.605  1.00  0.00     0.168 HD
HETATM   23  C13 UNL     1     -51.045  -5.464 -24.944  1.00  0.00     0.063 A
HETATM   24  C18 UNL     1     -51.953  -3.247 -24.756  1.00  0.00     0.065 A
HETATM   25  C14 UNL     1     -50.865  -5.577 -23.558  1.00  0.00     0.055 A
HETATM   26  N4  UNL     1     -50.368  -6.619 -22.921  1.00  0.00    -0.316 N
HETATM   27  C16 UNL     1     -51.244  -4.499 -22.815  1.00  0.00     0.039 A
HETATM   28  C15 UNL     1     -50.267  -6.555 -21.594  1.00  0.00     0.289 A
ATOM     29  H4  UNL     1     -50.070  -7.451 -23.430  1.00  0.00     0.170 HD
HETATM   30  O2  UNL     1     -49.813  -7.464 -20.807  1.00  0.00    -0.260 OA
HETATM   31  S2  UNL     1     -50.878  -5.009 -21.225  1.00  0.00    -0.027 SA
HETATM   32  C17 UNL     1     -51.784  -3.339 -23.395  1.00  0.00     0.053 A
ENDBRANCH  16  17
ENDBRANCH  15  16
ENDBRANCH  14  15
ENDBRANCH  13  14
ENDBRANCH  12  13
ENDBRANCH   7  12
ENDBRANCH   6   7
ENDBRANCH   5   6
ENDBRANCH   4   5
TORSDOF 9
ENDMDL