MODEL 3
REMARK VINA RESULT: -7.598686373      1.109      2.457
REMARK  8 active torsions:
REMARK  status: ('A' for Active; 'I' for Inactive)
REMARK    1  A    between atoms: C2_2  and  C3_3
REMARK    2  A    between atoms: C4_4  and  O1_5
REMARK    3  A    between atoms: N2_12  and  S1_14
REMARK    4  A    between atoms: S1_14  and  C8_17
REMARK    5  A    between atoms: C11_20  and  N3_21
REMARK    6  A    between atoms: N4_23  and  N5_25
REMARK       I    between atoms: N5_25  and  C12_26
REMARK       I    between atoms: N5_25  and  C14_29
REMARK    7  A    between atoms: C14_29  and  O6_31
REMARK    8  A    between atoms: O6_31  and  C15_32
ROOT
HETATM    1  C8  UNL     1     -51.302  -3.420 -22.114  1.00  0.00     0.080 A
HETATM    2  C9  UNL     1     -51.879  -2.774 -23.172  1.00  0.00     0.027 A
HETATM    3  C10 UNL     1     -52.079  -3.443 -24.359  1.00  0.00     0.032 A
HETATM    4  C11 UNL     1     -51.704  -4.782 -24.519  1.00  0.00     0.049 A
HETATM    5  C17 UNL     1     -51.119  -5.405 -23.416  1.00  0.00     0.032 A
HETATM    6  C18 UNL     1     -50.921  -4.729 -22.229  1.00  0.00     0.027 A
ENDROOT
BRANCH   1   7
HETATM    7  S1  UNL     1     -51.062  -2.566 -20.613  1.00  0.00     0.264 S
HETATM    8  O2  UNL     1     -49.604  -2.298 -20.343  1.00  0.00    -0.200 OA
HETATM    9  O3  UNL     1     -51.554  -3.430 -19.458  1.00  0.00    -0.200 OA
BRANCH   7  10
HETATM   10  N2  UNL     1     -51.994  -1.151 -20.612  1.00  0.00    -0.265 N
HETATM   11  C7  UNL     1     -52.079  -0.201 -19.784  1.00  0.00     0.127 A
HETATM   12  C3  UNL     1     -52.966   0.836 -20.094  1.00  0.00     0.041 A
HETATM   13  N1  UNL     1     -51.377  -0.184 -18.650  1.00  0.00    -0.351 N
HETATM   14  C4  UNL     1     -53.074   1.869 -19.175  1.00  0.00     0.081 A
HETATM   15  C5  UNL     1     -52.321   1.847 -17.999  1.00  0.00     0.054 A
HETATM   16  C6  UNL     1     -51.467   0.804 -17.748  1.00  0.00     0.092 A
ATOM     17  H1  UNL     1     -50.741  -0.959 -18.460  1.00  0.00     0.166 HD
ATOM     18  H2  UNL     1     -52.595  -1.047 -21.430  1.00  0.00     0.180 HD
BRANCH  12  19
HETATM   19  C2  UNL     1     -53.758   0.827 -21.293  1.00  0.00     0.008 C
HETATM   20  C1  UNL     1     -53.514   1.343 -22.458  1.00  0.00     0.012 C
ENDBRANCH  12  19
BRANCH  14  21
HETATM   21  O1  UNL     1     -53.916   2.945 -19.375  1.00  0.00    -0.360 OA
ATOM     22  H1  UNL     1     -53.655   3.836 -19.171  1.00  0.00     0.217 HD
ENDBRANCH  14  21
ENDBRANCH   7  10
ENDBRANCH   1   7
BRANCH   4  23
HETATM   23  N3  UNL     1     -51.912  -5.417 -25.733  1.00  0.00    -0.286 N
HETATM   24  N4  UNL     1     -51.128  -5.523 -26.659  1.00  0.00    -0.228 N
ATOM     25  H4  UNL     1     -51.436  -6.026 -27.492  1.00  0.00     0.209 HD
ATOM     26  H3  UNL     1     -52.828  -5.845 -25.868  1.00  0.00     0.188 HD
BRANCH  24  27
HETATM   27  N5  UNL     1     -49.832  -4.997 -26.651  1.00  0.00    -0.151 N
HETATM   28  C12 UNL     1     -49.554  -3.696 -27.130  1.00  0.00     0.244 C
HETATM   29  C13 UNL     1     -48.196  -3.122 -27.112  1.00  0.00     0.119 C
HETATM   30  O4  UNL     1     -50.477  -2.953 -27.603  1.00  0.00    -0.272 OA
HETATM   31  C14 UNL     1     -48.819  -5.854 -26.165  1.00  0.00     0.390 C
HETATM   32  O5  UNL     1     -49.054  -7.045 -25.766  1.00  0.00    -0.236 OA
BRANCH  31  33
HETATM   33  O6  UNL     1     -47.504  -5.456 -26.090  1.00  0.00    -0.303 OA
BRANCH  33  34
HETATM   34  C15 UNL     1     -46.777  -5.626 -24.886  1.00  0.00     0.176 C
HETATM   35  C16 UNL     1     -47.278  -4.649 -23.849  1.00  0.00     0.034 C
ENDBRANCH  33  34
ENDBRANCH  31  33
ENDBRANCH  24  27
ENDBRANCH   4  23
TORSDOF 8
ENDMDL