MODEL 3
REMARK VINA RESULT: -7.176746084      2.358      5.947
REMARK  9 active torsions:
REMARK  status: ('A' for Active; 'I' for Inactive)
REMARK    1  A    between atoms: C1_2  and  O2_3
REMARK    2  A    between atoms: C1_2  and  C8_12
REMARK    3  A    between atoms: O2_3  and  C2_4
REMARK    4  A    between atoms: C5_7  and  O3_8
REMARK    5  A    between atoms: C8_12  and  C15_24
REMARK       I    between atoms: N1_13  and  C9_15
REMARK    6  A    between atoms: C9_15  and  C10_17
REMARK    7  A    between atoms: C15_24  and  C16_25
REMARK    8  A    between atoms: C15_24  and  C17_28
REMARK    9  A    between atoms: C17_28  and  C18_30
ROOT
HETATM    1  C8  UNL     1     -50.304  -1.386 -23.208  1.00  0.00     0.110 C
HETATM    2  N1  UNL     1     -50.563  -0.148 -23.194  1.00  0.00    -0.319 N
ATOM      3  H1  UNL     1     -49.791   0.478 -23.422  1.00  0.00     0.169 HD
HETATM    4  C9  UNL     1     -51.789   0.459 -22.900  1.00  0.00     0.272 C
HETATM    5  O4  UNL     1     -52.633   0.633 -23.804  1.00  0.00    -0.266 OA
ENDROOT
BRANCH   1   6
HETATM    6  C1  UNL     1     -51.327  -2.365 -22.898  1.00  0.00     0.312 C
HETATM    7  O1  UNL     1     -51.313  -2.929 -21.781  1.00  0.00    -0.258 OA
BRANCH   6   8
HETATM    8  O2  UNL     1     -52.339  -2.711 -23.801  1.00  0.00    -0.274 OA
BRANCH   8   9
HETATM    9  C2  UNL     1     -52.094  -2.939 -25.146  1.00  0.00     0.079 A
HETATM   10  C3  UNL     1     -52.077  -1.929 -26.082  1.00  0.00     0.040 A
HETATM   11  C4  UNL     1     -51.827  -2.230 -27.401  1.00  0.00     0.039 A
HETATM   12  C5  UNL     1     -51.592  -3.534 -27.805  1.00  0.00     0.065 A
HETATM   13  C6  UNL     1     -51.612  -4.532 -26.862  1.00  0.00     0.039 A
HETATM   14  C7  UNL     1     -51.858  -4.250 -25.548  1.00  0.00     0.040 A
BRANCH  12  15
HETATM   15  O3  UNL     1     -51.343  -3.814 -29.130  1.00  0.00    -0.361 OA
ATOM     16  H3  UNL     1     -51.995  -4.265 -29.653  1.00  0.00     0.217 HD
ENDBRANCH  12  15
ENDBRANCH   8   9
ENDBRANCH   6   8
ENDBRANCH   1   6
BRANCH   1  17
HETATM   17  C15 UNL     1     -48.909  -1.793 -23.561  1.00  0.00     0.218 C
BRANCH  17  18
HETATM   18  C16 UNL     1     -48.072  -1.531 -22.342  1.00  0.00     0.191 C
HETATM   19  O5  UNL     1     -46.858  -1.843 -22.309  1.00  0.00    -0.647 OA
HETATM   20  O6  UNL     1     -48.617  -0.933 -21.207  1.00  0.00    -0.647 OA
ENDBRANCH  17  18
BRANCH  17  21
HETATM   21  C17 UNL     1     -48.792  -3.211 -23.915  1.00  0.00     0.186 C
HETATM   22  O7  UNL     1     -49.018  -4.095 -23.073  1.00  0.00    -0.290 OA
BRANCH  21  23
HETATM   23  C18 UNL     1     -48.402  -3.646 -25.269  1.00  0.00     0.051 A
HETATM   24  C19 UNL     1     -48.304  -2.878 -26.401  1.00  0.00     0.023 A
HETATM   25  C20 UNL     1     -47.925  -3.489 -27.531  1.00  0.00     0.009 A
HETATM   26  C21 UNL     1     -47.666  -4.832 -27.464  1.00  0.00     0.050 A
HETATM   27  S1  UNL     1     -47.960  -5.197 -25.828  1.00  0.00    -0.098 SA
ENDBRANCH  21  23
ENDBRANCH  17  21
ENDBRANCH   1  17
BRANCH   4  28
HETATM   28  C10 UNL     1     -52.093   0.893 -21.554  1.00  0.00     0.100 A
HETATM   29  C11 UNL     1     -53.166   1.749 -21.304  1.00  0.00     0.035 A
HETATM   30  C12 UNL     1     -53.441   2.151 -20.014  1.00  0.00     0.004 A
HETATM   31  C13 UNL     1     -52.657   1.709 -18.967  1.00  0.00     0.017 A
HETATM   32  C14 UNL     1     -51.615   0.867 -19.278  1.00  0.00     0.088 A
HETATM   33  N2  UNL     1     -51.333   0.466 -20.526  1.00  0.00    -0.361 N
ATOM     34  H2  UNL     1     -50.545  -0.160 -20.696  1.00  0.00     0.165 HD
ENDBRANCH   4  28
TORSDOF 9
ENDMDL