MODEL 3
REMARK VINA RESULT: -6.991463145      2.129      5.652
REMARK  10 active torsions:
REMARK  status: ('A' for Active; 'I' for Inactive)
REMARK    1  A    between atoms: C2_2  and  C3_4
REMARK    2  A    between atoms: C3_4  and  C4_5
REMARK    3  A    between atoms: C4_5  and  C5_6
REMARK    4  A    between atoms: C6_7  and  C8_9
REMARK    5  A    between atoms: C8_9  and  C9_10
REMARK    6  A    between atoms: C11_15  and  C12_16
REMARK    7  A    between atoms: C12_16  and  O3_17
REMARK    8  A    between atoms: C12_16  and  O4_19
REMARK    9  A    between atoms: O4_19  and  C13_20
REMARK   10  A    between atoms: C18_28  and  O8_29
ROOT
HETATM    1  C9  UNL     1     -50.859  -2.148 -21.609  1.00  0.00     0.021 C
HETATM    2  N1  UNL     1     -51.267  -3.185 -22.303  1.00  0.00    -0.274 N
ATOM      3  H1  UNL     1     -50.882  -4.066 -21.964  1.00  0.00     0.193 HD
HETATM    4  O2  UNL     1     -52.079  -3.340 -23.357  1.00  0.00    -0.280 OA
HETATM    5  C10 UNL     1     -52.667  -2.677 -24.438  1.00  0.00     0.210 C
HETATM    6  C11 UNL     1     -51.796  -1.652 -25.091  1.00  0.00     0.070 C
HETATM    7  C15 UNL     1     -51.171  -0.652 -24.196  1.00  0.00     0.045 C
HETATM    8  C16 UNL     1     -51.998  -0.469 -22.956  1.00  0.00     0.142 C
HETATM    9  O6  UNL     1     -52.494   0.863 -22.838  1.00  0.00    -0.313 OA
HETATM   10  C17 UNL     1     -53.452   1.019 -21.812  1.00  0.00     0.288 C
HETATM   11  O7  UNL     1     -54.263   1.962 -21.774  1.00  0.00    -0.262 OA
HETATM   12  C18 UNL     1     -53.379  -0.076 -20.779  1.00  0.00     0.222 C
HETATM   13  C19 UNL     1     -51.894  -0.262 -20.499  1.00  0.00     0.032 C
HETATM   14  C20 UNL     1     -51.369   1.120 -20.108  1.00  0.00     0.014 C
HETATM   15  C21 UNL     1     -51.127  -0.717 -21.723  1.00  0.00     0.070 C
ENDROOT
BRANCH   1  16
HETATM   16  C8  UNL     1     -49.966  -2.660 -20.567  1.00  0.00     0.088 C
BRANCH  16  17
HETATM   17  C6  UNL     1     -48.498  -2.769 -20.960  1.00  0.00    -0.082 C
HETATM   18  C5  UNL     1     -48.288  -3.058 -22.225  1.00  0.00    -0.024 C
HETATM   19  C7  UNL     1     -47.453  -2.577 -19.947  1.00  0.00     0.043 C
BRANCH  18  20
HETATM   20  C4  UNL     1     -47.120  -3.277 -23.044  1.00  0.00     0.035 C
BRANCH  20  21
HETATM   21  C3  UNL     1     -47.217  -4.314 -24.097  1.00  0.00     0.081 C
BRANCH  21  22
HETATM   22  C2  UNL     1     -48.471  -3.980 -24.903  1.00  0.00     0.123 C
HETATM   23  C1  UNL     1     -48.405  -2.898 -25.887  1.00  0.00     0.091 C
HETATM   24  O1  UNL     1     -49.489  -4.590 -24.736  1.00  0.00    -0.298 OA
ENDBRANCH  21  22
ENDBRANCH  20  21
ENDBRANCH  18  20
ENDBRANCH  16  17
ENDBRANCH   1  16
BRANCH  12  25
HETATM   25  O8  UNL     1     -54.003   0.312 -19.624  1.00  0.00    -0.385 OA
ATOM     26  H8  UNL     1     -53.365   0.603 -18.982  1.00  0.00     0.210 HD
ENDBRANCH  12  25
BRANCH   6  27
HETATM   27  C12 UNL     1     -52.596  -0.920 -26.160  1.00  0.00     0.272 C
BRANCH  27  28
HETATM   28  O3  UNL     1     -53.939  -1.296 -26.126  1.00  0.00    -0.370 OA
ATOM     29  H3  UNL     1     -54.333  -1.235 -26.988  1.00  0.00     0.212 HD
ENDBRANCH  27  28
BRANCH  27  30
HETATM   30  O4  UNL     1     -52.120  -1.234 -27.455  1.00  0.00    -0.290 OA
BRANCH  30  31
HETATM   31  C13 UNL     1     -52.449  -2.414 -28.086  1.00  0.00     0.257 C
HETATM   32  C14 UNL     1     -51.573  -3.614 -28.145  1.00  0.00     0.126 C
HETATM   33  O5  UNL     1     -53.581  -2.509 -28.673  1.00  0.00    -0.266 OA
ENDBRANCH  30  31
ENDBRANCH  27  30
ENDBRANCH   6  27
TORSDOF 10
ENDMDL