MODEL 2
REMARK VINA RESULT: -7.507680573      2.736      3.308
REMARK  8 active torsions:
REMARK  status: ('A' for Active; 'I' for Inactive)
REMARK    1  A    between atoms: C1_2  and  C2_4
REMARK    2  A    between atoms: C3_8  and  C4_9
REMARK    3  A    between atoms: C4_9  and  O2_10
REMARK    4  A    between atoms: C4_9  and  N3_12
REMARK       I    between atoms: N3_12  and  C5_13
REMARK    5  A    between atoms: N3_12  and  C13_26
REMARK    6  A    between atoms: C5_13  and  C6_15
REMARK    7  A    between atoms: C6_15  and  C7_17
REMARK    8  A    between atoms: C10_20  and  N4_21
ROOT
HETATM    1  N3  UNL     1     -49.453  -2.664 -22.832  1.00  0.00    -0.254 N
HETATM    2  C5  UNL     1     -49.604  -3.005 -21.481  1.00  0.00     0.305 C
HETATM    3  O3  UNL     1     -48.674  -3.557 -20.858  1.00  0.00    -0.263 OA
ENDROOT
BRANCH   1   4
HETATM    4  C4  UNL     1     -48.334  -2.823 -23.644  1.00  0.00     0.171 C
BRANCH   4   5
HETATM    5  C3  UNL     1     -48.038  -3.747 -24.705  1.00  0.00     0.099 A
HETATM    6  S1  UNL     1     -47.359  -5.300 -24.754  1.00  0.00    -0.008 SA
HETATM    7  N2  UNL     1     -47.362  -5.605 -26.391  1.00  0.00    -0.320 N
HETATM    8  C2  UNL     1     -47.894  -4.497 -26.906  1.00  0.00     0.130 A
ATOM      9  H2  UNL     1     -47.035  -6.438 -26.880  1.00  0.00     0.174 HD
HETATM   10  C19 UNL     1     -48.253  -3.523 -26.072  1.00  0.00     0.101 A
HETATM   11  N5  UNL     1     -48.845  -2.271 -26.505  1.00  0.00    -0.098 NA
BRANCH   8  12
HETATM   12  C1  UNL     1     -48.063  -4.389 -28.383  1.00  0.00     0.283 C
HETATM   13  N1  UNL     1     -49.290  -4.816 -28.948  1.00  0.00    -0.056 NA
HETATM   14  O1  UNL     1     -47.171  -3.941 -29.136  1.00  0.00    -0.269 OA
ENDBRANCH   8  12
ENDBRANCH   4   5
BRANCH   4  15
HETATM   15  O2  UNL     1     -47.384  -1.948 -23.365  1.00  0.00    -0.345 OA
ATOM     16  H2  UNL     1     -46.496  -2.233 -23.545  1.00  0.00     0.219 HD
ENDBRANCH   4  15
ENDBRANCH   1   4
BRANCH   1  17
HETATM   17  C13 UNL     1     -50.614  -2.060 -23.513  1.00  0.00     0.044 A
HETATM   18  C14 UNL     1     -50.687  -0.710 -23.693  1.00  0.00     0.030 A
HETATM   19  C15 UNL     1     -51.744  -0.137 -24.374  1.00  0.00     0.002 A
HETATM   20  C16 UNL     1     -52.729  -0.921 -24.873  1.00  0.00     0.000 A
HETATM   21  C17 UNL     1     -52.696  -2.297 -24.714  1.00  0.00     0.002 A
HETATM   22  C18 UNL     1     -51.614  -2.854 -24.020  1.00  0.00     0.030 A
ENDBRANCH   1  17
BRANCH   2  23
HETATM   23  C6  UNL     1     -50.807  -2.757 -20.709  1.00  0.00     0.250 C
HETATM   24  O4  UNL     1     -51.439  -3.760 -20.224  1.00  0.00    -0.281 OA
BRANCH  23  25
HETATM   25  C7  UNL     1     -51.392  -1.459 -20.415  1.00  0.00     0.020 A
HETATM   26  C8  UNL     1     -50.687  -0.381 -19.971  1.00  0.00     0.018 A
HETATM   27  C9  UNL     1     -51.311   0.845 -19.721  1.00  0.00     0.037 A
HETATM   28  C10 UNL     1     -52.662   1.028 -19.908  1.00  0.00     0.102 A
HETATM   29  C11 UNL     1     -53.372  -0.063 -20.356  1.00  0.00     0.037 A
HETATM   30  C12 UNL     1     -52.772  -1.276 -20.608  1.00  0.00     0.018 A
BRANCH  28  31
HETATM   31  N4  UNL     1     -53.323   2.253 -19.665  1.00  0.00    -0.116 N
HETATM   32  O5  UNL     1     -54.049   2.810 -20.502  1.00  0.00    -0.532 OA
HETATM   33  O6  UNL     1     -53.173   2.884 -18.454  1.00  0.00    -0.532 OA
ENDBRANCH  28  31
ENDBRANCH  23  25
ENDBRANCH   2  23
TORSDOF 8
ENDMDL