MODEL 2
REMARK VINA RESULT: -7.826540521      2.814      7.731
REMARK  8 active torsions:
REMARK  status: ('A' for Active; 'I' for Inactive)
REMARK    1  A    between atoms: C4_5  and  C5_6
REMARK       I    between atoms: C5_6  and  N2_8
REMARK    2  A    between atoms: C6_10  and  C7_11
REMARK    3  A    between atoms: C6_10  and  C14_20
REMARK    4  A    between atoms: C7_11  and  C8_12
REMARK    5  A    between atoms: C13_17  and  O2_18
REMARK    6  A    between atoms: C14_20  and  C15_22
REMARK    7  A    between atoms: C18_25  and  N3_26
REMARK    8  A    between atoms: C19_29  and  C20_30
ROOT
HETATM    1  C5  UNL     1     -51.681  -3.149 -23.149  1.00  0.00     0.256 C
HETATM    2  O1  UNL     1     -51.934  -4.234 -22.533  1.00  0.00    -0.267 OA
HETATM    3  N2  UNL     1     -51.116  -2.073 -22.457  1.00  0.00    -0.323 N
ATOM      4  H2  UNL     1     -51.748  -1.372 -22.070  1.00  0.00     0.169 HD
HETATM    5  C6  UNL     1     -49.823  -1.907 -22.273  1.00  0.00     0.069 C
ENDROOT
BRANCH   5   6
HETATM    6  C7  UNL     1     -48.966  -2.932 -22.841  1.00  0.00     0.102 C
BRANCH   6   7
HETATM    7  C8  UNL     1     -48.751  -2.884 -24.296  1.00  0.00    -0.019 A
HETATM    8  C9  UNL     1     -48.927  -1.767 -25.085  1.00  0.00     0.010 A
HETATM    9  C10 UNL     1     -48.684  -1.793 -26.439  1.00  0.00     0.001 A
HETATM   10  C11 UNL     1     -48.247  -2.960 -27.072  1.00  0.00     0.003 A
HETATM   11  C12 UNL     1     -48.072  -4.080 -26.283  1.00  0.00     0.037 A
HETATM   12  C13 UNL     1     -48.313  -4.057 -24.927  1.00  0.00     0.072 A
BRANCH  12  13
HETATM   13  O2  UNL     1     -48.118  -5.208 -24.200  1.00  0.00    -0.360 OA
ATOM     14  H2  UNL     1     -47.300  -5.351 -23.738  1.00  0.00     0.217 HD
ENDBRANCH  12  13
ENDBRANCH   6   7
ENDBRANCH   5   6
BRANCH   5  15
HETATM   15  C14 UNL     1     -49.444  -0.762 -21.479  1.00  0.00     0.221 C
HETATM   16  O3  UNL     1     -48.241  -0.290 -21.581  1.00  0.00    -0.284 OA
BRANCH  15  17
HETATM   17  C15 UNL     1     -50.299  -0.056 -20.537  1.00  0.00     0.085 A
HETATM   18  C16 UNL     1     -50.033  -0.111 -19.163  1.00  0.00     0.036 A
HETATM   19  C17 UNL     1     -50.805   0.526 -18.264  1.00  0.00     0.041 A
HETATM   20  C18 UNL     1     -51.936   1.296 -18.645  1.00  0.00     0.132 A
HETATM   21  C19 UNL     1     -52.170   1.335 -19.984  1.00  0.00     0.104 A
HETATM   22  N4  UNL     1     -51.360   0.670 -20.862  1.00  0.00    -0.349 N
ATOM     23  H4  UNL     1     -51.591   0.740 -21.853  1.00  0.00     0.166 HD
BRANCH  20  24
HETATM   24  N3  UNL     1     -52.671   1.929 -17.621  1.00  0.00    -0.113 N
HETATM   25  O4  UNL     1     -52.978   1.171 -16.635  1.00  0.00    -0.532 OA
HETATM   26  O5  UNL     1     -53.098   3.199 -17.490  1.00  0.00    -0.532 OA
ENDBRANCH  20  24
BRANCH  21  27
HETATM   27  C20 UNL     1     -53.262   2.106 -20.544  1.00  0.00     0.290 C
HETATM   28  O6  UNL     1     -54.283   1.747 -21.103  1.00  0.00    -0.300 OA
ENDBRANCH  21  27
ENDBRANCH  15  17
ENDBRANCH   5  15
BRANCH   1  29
HETATM   29  C4  UNL     1     -52.013  -3.122 -24.568  1.00  0.00     0.032 A
HETATM   30  C3  UNL     1     -52.543  -1.967 -25.088  1.00  0.00     0.019 A
HETATM   31  C2  UNL     1     -52.882  -1.879 -26.429  1.00  0.00     0.027 A
HETATM   32  C1  UNL     1     -52.701  -2.947 -27.287  1.00  0.00     0.046 A
HETATM   33  N1  UNL     1     -53.055  -2.838 -28.655  1.00  0.00    -0.102 NA
HETATM   34  C22 UNL     1     -52.167  -4.104 -26.748  1.00  0.00     0.027 A
HETATM   35  C21 UNL     1     -51.831  -4.179 -25.405  1.00  0.00     0.019 A
ENDBRANCH   1  29
TORSDOF 8
ENDMDL