MODEL 1
REMARK VINA RESULT: -7.756880516      0.000      0.000
REMARK  10 active torsions:
REMARK  status: ('A' for Active; 'I' for Inactive)
REMARK    1  A    between atoms: C2_3  and  C3_4
REMARK    2  A    between atoms: C3_4  and  C4_5
REMARK    3  A    between atoms: C10_12  and  C11_13
REMARK    4  A    between atoms: C11_13  and  C12_14
REMARK    5  A    between atoms: C12_14  and  C13_15
REMARK    6  A    between atoms: C13_15  and  C14_16
REMARK    7  A    between atoms: C17_21  and  O3_22
REMARK    8  A    between atoms: N2_24  and  C18_25
REMARK    9  A    between atoms: C18_25  and  C19_26
REMARK   10  A    between atoms: C22_29  and  N3_30
ROOT
HETATM    1  O1  UNL     1     -52.321  -1.600 -21.454  1.00  0.00    -0.267 OA
HETATM    2  C1  UNL     1     -51.118  -1.505 -21.782  1.00  0.00     0.258 A
HETATM    3  C2  UNL     1     -50.328  -0.629 -21.073  1.00  0.00     0.035 A
HETATM    4  C8  UNL     1     -49.005  -0.563 -21.476  1.00  0.00     0.019 A
HETATM    5  C9  UNL     1     -48.507  -1.336 -22.535  1.00  0.00     0.031 A
HETATM    6  C10 UNL     1     -49.354  -2.194 -23.204  1.00  0.00     0.037 A
HETATM    7  N2  UNL     1     -50.673  -2.260 -22.803  1.00  0.00    -0.308 N
ENDROOT
BRANCH   6   8
HETATM    8  C11 UNL     1     -48.954  -2.931 -24.182  1.00  0.00     0.030 C
BRANCH   8   9
HETATM    9  C12 UNL     1     -48.395  -2.711 -25.465  1.00  0.00     0.003 C
BRANCH   9  10
HETATM   10  C13 UNL     1     -48.831  -2.795 -26.677  1.00  0.00     0.016 C
BRANCH  10  11
HETATM   11  C14 UNL     1     -48.536  -4.031 -27.468  1.00  0.00     0.016 A
HETATM   12  C15 UNL     1     -47.457  -4.270 -28.273  1.00  0.00     0.033 A
HETATM   13  C16 UNL     1     -47.568  -5.548 -28.824  1.00  0.00     0.091 A
HETATM   14  N1  UNL     1     -48.705  -6.064 -28.348  1.00  0.00    -0.346 N
HETATM   15  C17 UNL     1     -49.310  -5.176 -27.529  1.00  0.00     0.150 A
ATOM     16  H1  UNL     1     -49.063  -6.993 -28.571  1.00  0.00     0.167 HD
BRANCH  15  17
HETATM   17  O3  UNL     1     -50.516  -5.364 -26.849  1.00  0.00    -0.345 OA
ATOM     18  H3  UNL     1     -50.711  -5.023 -25.985  1.00  0.00     0.219 HD
ENDBRANCH  15  17
ENDBRANCH  10  11
ENDBRANCH   9  10
ENDBRANCH   8   9
ENDBRANCH   6   8
BRANCH   7  19
HETATM   19  C18 UNL     1     -51.642  -3.113 -23.436  1.00  0.00     0.197 C
BRANCH  19  20
HETATM   20  C19 UNL     1     -52.118  -2.614 -24.760  1.00  0.00     0.074 A
HETATM   21  C20 UNL     1     -52.707  -1.358 -24.926  1.00  0.00     0.039 A
HETATM   22  C21 UNL     1     -53.003  -1.268 -26.266  1.00  0.00     0.065 A
HETATM   23  C22 UNL     1     -52.600  -2.445 -26.880  1.00  0.00     0.215 A
HETATM   24  O6  UNL     1     -52.089  -3.188 -25.934  1.00  0.00    -0.291 OA
BRANCH  23  25
HETATM   25  N3  UNL     1     -52.729  -2.755 -28.270  1.00  0.00    -0.090 N
HETATM   26  O4  UNL     1     -53.713  -2.377 -28.916  1.00  0.00    -0.530 OA
HETATM   27  O5  UNL     1     -51.753  -3.474 -28.887  1.00  0.00    -0.530 OA
ENDBRANCH  23  25
ENDBRANCH  19  20
ENDBRANCH   7  19
BRANCH   3  28
HETATM   28  C3  UNL     1     -50.775   0.104 -20.078  1.00  0.00     0.054 C
BRANCH  28  29
HETATM   29  C4  UNL     1     -51.851   1.075 -20.154  1.00  0.00     0.075 A
HETATM   30  C5  UNL     1     -52.484   1.557 -19.015  1.00  0.00     0.039 A
HETATM   31  C6  UNL     1     -53.446   2.449 -19.432  1.00  0.00     0.027 A
HETATM   32  C7  UNL     1     -53.351   2.465 -20.803  1.00  0.00     0.142 A
HETATM   33  O2  UNL     1     -52.412   1.651 -21.160  1.00  0.00    -0.323 OA
ENDBRANCH  28  29
ENDBRANCH   3  28
TORSDOF 10
ENDMDL