MODEL 3
REMARK VINA RESULT: -7.295825810      3.182      5.897
REMARK  7 active torsions:
REMARK  status: ('A' for Active; 'I' for Inactive)
REMARK       I    between atoms: C1_2  and  N1_3
REMARK    1  A    between atoms: C1_2  and  C8_11
REMARK    2  A    between atoms: N1_3  and  C2_5
REMARK    3  A    between atoms: C8_11  and  C13_25
REMARK    4  A    between atoms: N2_12  and  N3_14
REMARK    5  A    between atoms: N3_14  and  C9_16
REMARK    6  A    between atoms: C12_19  and  S1_20
REMARK    7  A    between atoms: C18_30  and  N4_31
ROOT
HETATM    1  C8  UNL     1     -51.481  -0.893 -24.036  1.00  0.00     0.128 C
HETATM    2  N2  UNL     1     -51.206  -0.406 -25.188  1.00  0.00    -0.293 N
ATOM      3  H2  UNL     1     -51.034   0.598 -25.225  1.00  0.00     0.187 HD
ENDROOT
BRANCH   1   4
HETATM    4  C1  UNL     1     -51.721  -2.313 -23.993  1.00  0.00     0.270 C
HETATM    5  O1  UNL     1     -52.808  -2.804 -24.492  1.00  0.00    -0.266 OA
HETATM    6  N1  UNL     1     -50.875  -3.294 -23.469  1.00  0.00    -0.351 N
ATOM      7  H1  UNL     1     -49.973  -3.039 -23.067  1.00  0.00     0.163 HD
BRANCH   6   8
HETATM    8  C2  UNL     1     -51.316  -4.736 -23.507  1.00  0.00     0.084 C
HETATM    9  C3  UNL     1     -50.293  -5.447 -24.300  1.00  0.00     0.025 C
HETATM   10  C4  UNL     1     -49.993  -6.845 -23.836  1.00  0.00     0.002 C
HETATM   11  C5  UNL     1     -49.838  -6.977 -22.356  1.00  0.00     0.000 C
HETATM   12  C6  UNL     1     -49.990  -5.638 -21.682  1.00  0.00     0.002 C
HETATM   13  C7  UNL     1     -51.372  -5.133 -22.040  1.00  0.00     0.025 C
ENDBRANCH   6   8
ENDBRANCH   1   4
BRANCH   1  14
HETATM   14  C13 UNL     1     -51.460  -0.035 -22.873  1.00  0.00     0.031 A
HETATM   15  C14 UNL     1     -50.342  -0.224 -22.022  1.00  0.00     0.016 A
HETATM   16  C15 UNL     1     -50.260   0.379 -20.802  1.00  0.00     0.001 A
HETATM   17  C16 UNL     1     -51.290   1.184 -20.389  1.00  0.00     0.002 A
HETATM   18  C17 UNL     1     -52.383   1.390 -21.173  1.00  0.00     0.037 A
HETATM   19  C18 UNL     1     -52.474   0.763 -22.455  1.00  0.00     0.115 A
BRANCH  19  20
HETATM   20  N4  UNL     1     -53.602   1.138 -23.198  1.00  0.00    -0.115 N
HETATM   21  O6  UNL     1     -53.851   0.973 -24.359  1.00  0.00    -0.532 OA
HETATM   22  O7  UNL     1     -54.682   1.748 -22.468  1.00  0.00    -0.532 OA
ENDBRANCH  19  20
ENDBRANCH   1  14
BRANCH   2  23
HETATM   23  N3  UNL     1     -51.119  -1.075 -26.364  1.00  0.00    -0.279 N
ATOM     24  H3  UNL     1     -51.856  -0.950 -27.058  1.00  0.00     0.189 HD
BRANCH  23  25
HETATM   25  C9  UNL     1     -50.022  -1.954 -26.667  1.00  0.00     0.163 A
HETATM   26  C10 UNL     1     -48.765  -1.944 -26.180  1.00  0.00     0.061 A
HETATM   27  C11 UNL     1     -48.081  -2.984 -26.763  1.00  0.00     0.057 A
HETATM   28  C12 UNL     1     -48.976  -3.599 -27.606  1.00  0.00     0.193 A
HETATM   29  O5  UNL     1     -50.111  -2.969 -27.525  1.00  0.00    -0.278 OA
BRANCH  28  30
HETATM   30  S1  UNL     1     -48.598  -5.006 -28.607  1.00  0.00     0.161 S
HETATM   31  O2  UNL     1     -48.840  -6.243 -27.773  1.00  0.00    -0.590 OA
HETATM   32  O3  UNL     1     -49.445  -4.985 -29.841  1.00  0.00    -0.590 OA
HETATM   33  O4  UNL     1     -46.957  -4.930 -28.957  1.00  0.00    -0.590 OA
ENDBRANCH  28  30
ENDBRANCH  23  25
ENDBRANCH   2  23
TORSDOF 7
ENDMDL