MODEL 4
REMARK VINA RESULT: -6.144457217      2.079      4.498
REMARK  12 active torsions:
REMARK  status: ('A' for Active; 'I' for Inactive)
REMARK    1  A    between atoms: C2_2  and  C3_3
REMARK    2  A    between atoms: C3_3  and  C4_4
REMARK    3  A    between atoms: C4_4  and  C5_5
REMARK    4  A    between atoms: C5_5  and  O2_7
REMARK    5  A    between atoms: O2_7  and  C6_8
REMARK    6  A    between atoms: C13_15  and  C14_16
REMARK    7  A    between atoms: C13_15  and  C15_19
REMARK    8  A    between atoms: C14_16  and  O3_17
REMARK    9  A    between atoms: C15_19  and  O4_20
REMARK   10  A    between atoms: C16_22  and  O5_23
REMARK   11  A    between atoms: O5_23  and  C17_24
REMARK   12  A    between atoms: C22_30  and  O7_32
ROOT
HETATM    1  C6  UNL     1     -51.526  -0.960 -20.387  1.00  0.00     0.141 C
HETATM    2  C7  UNL     1     -52.971  -0.413 -20.730  1.00  0.00     0.066 C
HETATM    3  C8  UNL     1     -52.810   0.361 -21.972  1.00  0.00    -0.085 C
HETATM    4  C9  UNL     1     -53.816   1.466 -22.200  1.00  0.00     0.043 C
HETATM    5  C10 UNL     1     -51.882   0.137 -22.818  1.00  0.00    -0.016 C
HETATM    6  C11 UNL     1     -50.852  -0.900 -22.698  1.00  0.00     0.051 C
HETATM    7  C12 UNL     1     -51.131  -1.817 -21.516  1.00  0.00     0.041 C
HETATM    8  C13 UNL     1     -50.075  -2.853 -21.349  1.00  0.00     0.036 C
HETATM    9  C16 UNL     1     -49.777  -3.587 -22.660  1.00  0.00     0.155 C
HETATM   10  C19 UNL     1     -49.950  -2.786 -23.895  1.00  0.00     0.011 C
HETATM   11  C20 UNL     1     -48.652  -2.077 -24.270  1.00  0.00     0.020 C
HETATM   12  C21 UNL     1     -50.193  -3.666 -25.120  1.00  0.00     0.020 C
HETATM   13  C22 UNL     1     -50.955  -1.719 -23.936  1.00  0.00     0.071 C
HETATM   14  C23 UNL     1     -52.370  -2.112 -24.209  1.00  0.00     0.047 C
ENDROOT
BRANCH   1  15
HETATM   15  O2  UNL     1     -51.518  -1.379 -19.097  1.00  0.00    -0.315 OA
BRANCH  15  16
HETATM   16  C5  UNL     1     -50.782  -0.835 -18.046  1.00  0.00     0.259 C
HETATM   17  O1  UNL     1     -50.209  -1.707 -17.356  1.00  0.00    -0.265 OA
BRANCH  16  18
HETATM   18  C4  UNL     1     -50.744   0.612 -17.858  1.00  0.00     0.111 C
BRANCH  18  19
HETATM   19  C3  UNL     1     -51.967   1.212 -17.247  1.00  0.00     0.009 C
BRANCH  19  20
HETATM   20  C2  UNL     1     -52.730   2.143 -18.155  1.00  0.00    -0.004 C
HETATM   21  C1  UNL     1     -53.122   3.356 -17.330  1.00  0.00     0.005 C
ENDBRANCH  19  20
ENDBRANCH  18  19
ENDBRANCH  16  18
ENDBRANCH  15  16
ENDBRANCH   1  15
BRANCH   8  22
HETATM   22  C14 UNL     1     -48.798  -2.299 -20.740  1.00  0.00     0.178 C
BRANCH  22  23
HETATM   23  O3  UNL     1     -47.708  -3.197 -20.912  1.00  0.00    -0.400 OA
ATOM     24  H3  UNL     1     -47.954  -4.087 -20.691  1.00  0.00     0.209 HD
ENDBRANCH  22  23
ENDBRANCH   8  22
BRANCH   8  25
HETATM   25  C15 UNL     1     -50.561  -3.913 -20.386  1.00  0.00     0.178 C
BRANCH  25  26
HETATM   26  O4  UNL     1     -49.883  -3.992 -19.194  1.00  0.00    -0.400 OA
ATOM     27  H4  UNL     1     -50.369  -4.361 -18.467  1.00  0.00     0.209 HD
ENDBRANCH  25  26
ENDBRANCH   8  25
BRANCH  13  28
HETATM   28  O7  UNL     1     -50.637  -0.846 -25.011  1.00  0.00    -0.389 OA
ATOM     29  H7  UNL     1     -50.718  -1.365 -25.803  1.00  0.00     0.210 HD
ENDBRANCH  13  28
BRANCH   9  30
HETATM   30  O5  UNL     1     -50.138  -4.909 -22.645  1.00  0.00    -0.315 OA
BRANCH  30  31
HETATM   31  C17 UNL     1     -49.536  -6.080 -22.651  1.00  0.00     0.255 C
HETATM   32  C18 UNL     1     -50.082  -7.301 -23.241  1.00  0.00     0.126 C
HETATM   33  O6  UNL     1     -48.447  -6.047 -22.102  1.00  0.00    -0.266 OA
ENDBRANCH  30  31
ENDBRANCH   9  30
TORSDOF 12
ENDMDL