MODEL 2
REMARK VINA RESULT: -7.429926383      2.661      6.567
REMARK  8 active torsions:
REMARK  status: ('A' for Active; 'I' for Inactive)
REMARK    1  A    between atoms: O1_2  and  C2_3
REMARK    2  A    between atoms: N1_5  and  C4_6
REMARK    3  A    between atoms: C4_6  and  C5_7
REMARK    4  A    between atoms: C5_7  and  S1_8
REMARK    5  A    between atoms: S1_8  and  C6_9
REMARK    6  A    between atoms: C7_14  and  C8_15
REMARK    7  A    between atoms: C10_17  and  O2_18
REMARK    8  A    between atoms: N4_20  and  C11_21
ROOT
HETATM    1  C6  UNL     1     -51.153  -6.437 -24.816  1.00  0.00     0.203 A
HETATM    2  N2  UNL     1     -51.512  -7.180 -23.745  1.00  0.00    -0.272 N
ATOM      3  H2  UNL     1     -51.419  -8.190 -23.645  1.00  0.00     0.189 HD
HETATM    4  N3  UNL     1     -52.008  -6.339 -22.853  1.00  0.00    -0.277 N
ATOM      5  H3  UNL     1     -52.364  -6.607 -21.935  1.00  0.00     0.189 HD
HETATM    6  C7  UNL     1     -51.974  -5.082 -23.326  1.00  0.00     0.177 A
HETATM    7  O3  UNL     1     -51.444  -5.203 -24.527  1.00  0.00    -0.267 OA
ENDROOT
BRANCH   6   8
HETATM    8  C8  UNL     1     -52.424  -3.869 -22.659  1.00  0.00     0.043 A
HETATM    9  C9  UNL     1     -52.309  -3.556 -21.325  1.00  0.00     0.074 A
HETATM   10  C10 UNL     1     -52.865  -2.306 -21.083  1.00  0.00     0.143 A
HETATM   11  N4  UNL     1     -53.317  -1.859 -22.274  1.00  0.00    -0.326 N
HETATM   12  C17 UNL     1     -53.057  -2.797 -23.236  1.00  0.00     0.025 A
HETATM   13  C18 UNL     1     -53.414  -2.657 -24.680  1.00  0.00     0.069 C
BRANCH  10  14
HETATM   14  O2  UNL     1     -52.933  -1.653 -19.842  1.00  0.00    -0.346 OA
ATOM     15  H2  UNL     1     -53.273  -0.779 -19.684  1.00  0.00     0.219 HD
ENDBRANCH  10  14
BRANCH  11  16
HETATM   16  C11 UNL     1     -53.975  -0.601 -22.527  1.00  0.00     0.092 C
HETATM   17  C12 UNL     1     -53.017   0.555 -22.531  1.00  0.00     0.026 C
HETATM   18  C13 UNL     1     -53.795   1.747 -23.108  1.00  0.00     0.002 C
HETATM   19  C14 UNL     1     -54.856   2.136 -22.093  1.00  0.00     0.000 C
HETATM   20  C15 UNL     1     -54.989   1.100 -20.989  1.00  0.00     0.002 C
HETATM   21  C16 UNL     1     -55.073  -0.297 -21.542  1.00  0.00     0.026 C
ENDBRANCH  11  16
ENDBRANCH   6   8
BRANCH   1  22
HETATM   22  S1  UNL     1     -50.414  -7.062 -26.345  1.00  0.00    -0.083 SA
BRANCH  22  23
HETATM   23  C5  UNL     1     -50.360  -5.673 -27.544  1.00  0.00     0.102 C
BRANCH  23  24
HETATM   24  C4  UNL     1     -51.804  -5.187 -27.651  1.00  0.00     0.127 C
BRANCH  24  25
HETATM   25  N1  UNL     1     -51.836  -3.955 -28.361  1.00  0.00    -0.405 N
HETATM   26  C3  UNL     1     -53.131  -3.460 -28.684  1.00  0.00     0.177 C
HETATM   27  C2  UNL     1     -53.274  -2.061 -28.130  1.00  0.00     0.276 C
HETATM   28  O4  UNL     1     -52.322  -1.176 -28.607  1.00  0.00    -0.358 OA
HETATM   29  C20 UNL     1     -51.039  -1.655 -28.623  1.00  0.00     0.190 C
HETATM   30  C19 UNL     1     -50.883  -2.988 -27.930  1.00  0.00     0.143 C
BRANCH  27  31
HETATM   31  O1  UNL     1     -54.522  -1.569 -28.504  1.00  0.00    -0.364 OA
HETATM   32  C1  UNL     1     -55.083  -0.859 -27.442  1.00  0.00     0.204 C
ENDBRANCH  27  31
ENDBRANCH  24  25
ENDBRANCH  23  24
ENDBRANCH  22  23
ENDBRANCH   1  22
TORSDOF 8
ENDMDL