MODEL 1
REMARK VINA RESULT: -7.144588860      0.000      0.000
REMARK  12 active torsions:
REMARK  status: ('A' for Active; 'I' for Inactive)
REMARK    1  A    between atoms: C2_2  and  O1_3
REMARK    2  A    between atoms: O1_3  and  C3_4
REMARK    3  A    between atoms: C3_4  and  C4_6
REMARK    4  A    between atoms: C5_7  and  O3_8
REMARK    5  A    between atoms: C7_12  and  N1_13
REMARK    6  A    between atoms: N1_13  and  C8_15
REMARK    7  A    between atoms: C8_15  and  C9_16
REMARK    8  A    between atoms: C8_15  and  N2_20
REMARK    9  A    between atoms: C9_16  and  C10_17
REMARK   10  A    between atoms: C14_23  and  C15_24
REMARK   11  A    between atoms: C15_24  and  O6_26
REMARK   12  A    between atoms: O6_26  and  C16_27
ROOT
HETATM    1  C8  UNL     1     -52.063  -2.397 -24.846  1.00  0.00     0.093 C
ENDROOT
BRANCH   1   2
HETATM    2  N1  UNL     1     -51.075  -2.486 -25.659  1.00  0.00    -0.339 N
ATOM      3  H1  UNL     1     -50.384  -1.739 -25.595  1.00  0.00     0.168 HD
BRANCH   2   4
HETATM    4  C7  UNL     1     -50.814  -3.479 -26.633  1.00  0.00     0.094 A
HETATM    5  C4  UNL     1     -50.748  -3.297 -28.017  1.00  0.00     0.106 A
HETATM    6  C5  UNL     1     -50.506  -4.400 -28.750  1.00  0.00     0.091 A
HETATM    7  C6  UNL     1     -50.352  -5.582 -28.084  1.00  0.00     0.089 A
HETATM    8  S1  UNL     1     -50.541  -5.155 -26.459  1.00  0.00    -0.080 SA
BRANCH   5   9
HETATM    9  C3  UNL     1     -50.948  -1.949 -28.631  1.00  0.00     0.298 C
HETATM   10  O2  UNL     1     -50.519  -0.913 -28.076  1.00  0.00    -0.259 OA
BRANCH   9  11
HETATM   11  O1  UNL     1     -51.603  -1.777 -29.817  1.00  0.00    -0.318 OA
BRANCH  11  12
HETATM   12  C2  UNL     1     -52.969  -1.441 -29.932  1.00  0.00     0.174 C
HETATM   13  C1  UNL     1     -53.872  -2.619 -29.798  1.00  0.00     0.034 C
ENDBRANCH  11  12
ENDBRANCH   9  11
ENDBRANCH   5   9
BRANCH   6  14
HETATM   14  O3  UNL     1     -50.410  -4.365 -30.182  1.00  0.00    -0.359 OA
ATOM     15  H3  UNL     1     -50.209  -5.138 -30.698  1.00  0.00     0.217 HD
ENDBRANCH   6  14
ENDBRANCH   2   4
ENDBRANCH   1   2
BRANCH   1  16
HETATM   16  C9  UNL     1     -52.877  -3.548 -24.425  1.00  0.00     0.154 C
BRANCH  16  17
HETATM   17  C10 UNL     1     -52.698  -4.011 -23.050  1.00  0.00     0.130 C
HETATM   18  C11 UNL     1     -51.936  -5.284 -22.776  1.00  0.00     0.091 C
HETATM   19  O4  UNL     1     -53.118  -3.460 -22.048  1.00  0.00    -0.298 OA
ENDBRANCH  16  17
ENDBRANCH   1  16
BRANCH   1  20
HETATM   20  N2  UNL     1     -52.360  -1.088 -24.383  1.00  0.00    -0.307 N
HETATM   21  C12 UNL     1     -51.638  -0.388 -23.357  1.00  0.00     0.134 C
HETATM   22  C13 UNL     1     -52.690   0.054 -22.333  1.00  0.00     0.035 C
HETATM   23  C14 UNL     1     -53.487   1.147 -22.995  1.00  0.00     0.096 C
HETATM   24  C18 UNL     1     -54.135   0.760 -24.283  1.00  0.00     0.118 C
HETATM   25  C19 UNL     1     -53.433  -0.330 -24.993  1.00  0.00     0.226 C
HETATM   26  O7  UNL     1     -53.781  -0.608 -26.166  1.00  0.00    -0.273 OA
BRANCH  23  27
HETATM   27  C15 UNL     1     -54.521   1.631 -22.050  1.00  0.00     0.263 C
HETATM   28  O5  UNL     1     -55.296   2.536 -22.402  1.00  0.00    -0.265 OA
BRANCH  27  29
HETATM   29  O6  UNL     1     -54.635   1.087 -20.784  1.00  0.00    -0.322 OA
BRANCH  29  30
HETATM   30  C16 UNL     1     -54.307   1.804 -19.619  1.00  0.00     0.174 C
HETATM   31  C17 UNL     1     -53.270   1.045 -18.812  1.00  0.00     0.034 C
ENDBRANCH  29  30
ENDBRANCH  27  29
ENDBRANCH  23  27
ENDBRANCH   1  20
TORSDOF 12
ENDMDL