MODEL 1
REMARK VINA RESULT: -8.709266395      0.000      0.000
REMARK  7 active torsions:
REMARK  status: ('A' for Active; 'I' for Inactive)
REMARK    1  A    between atoms: C4_5  and  N2_6
REMARK    2  A    between atoms: C7_11  and  C8_12
REMARK    3  A    between atoms: C8_12  and  C9_14
REMARK    4  A    between atoms: C9_14  and  N3_15
REMARK    5  A    between atoms: C9_14  and  C15_25
REMARK    6  A    between atoms: N3_15  and  N4_17
REMARK    7  A    between atoms: C20_30  and  N5_31
ROOT
HETATM    1  N1  UNL     1     -53.311  -3.055 -20.624  1.00  0.00    -0.191 NA
HETATM    2  C1  UNL     1     -53.501  -2.303 -21.501  1.00  0.00     0.100 C
HETATM    3  C2  UNL     1     -53.748  -1.354 -22.553  1.00  0.00     0.060 A
HETATM    4  C3  UNL     1     -54.450  -0.181 -22.233  1.00  0.00     0.059 A
HETATM    5  C4  UNL     1     -54.732   0.784 -23.168  1.00  0.00     0.104 A
HETATM    6  C5  UNL     1     -54.294   0.559 -24.452  1.00  0.00     0.037 A
HETATM    7  C6  UNL     1     -53.602  -0.597 -24.769  1.00  0.00     0.019 A
HETATM    8  C7  UNL     1     -53.309  -1.588 -23.831  1.00  0.00     0.033 A
ENDROOT
BRANCH   8   9
HETATM    9  C8  UNL     1     -52.598  -2.795 -24.191  1.00  0.00     0.189 C
HETATM   10  O3  UNL     1     -53.220  -3.892 -24.192  1.00  0.00    -0.290 OA
BRANCH   9  11
HETATM   11  C9  UNL     1     -51.159  -2.879 -24.570  1.00  0.00     0.209 C
BRANCH  11  12
HETATM   12  N3  UNL     1     -50.981  -3.822 -25.660  1.00  0.00    -0.320 N
ATOM     13  H3  UNL     1     -50.167  -4.437 -25.677  1.00  0.00     0.181 HD
BRANCH  12  14
HETATM   14  N4  UNL     1     -51.926  -3.883 -26.681  1.00  0.00    -0.312 N
HETATM   15  C10 UNL     1     -51.851  -3.166 -27.756  1.00  0.00     0.007 C
HETATM   16  C11 UNL     1     -52.912  -3.311 -28.778  1.00  0.00     0.080 C
HETATM   17  C14 UNL     1     -50.749  -2.210 -28.003  1.00  0.00     0.080 C
HETATM   18  C12 UNL     1     -53.142  -2.051 -29.567  1.00  0.00     0.173 C
HETATM   19  O4  UNL     1     -51.875  -1.556 -29.947  1.00  0.00    -0.390 OA
HETATM   20  C13 UNL     1     -51.313  -1.035 -28.768  1.00  0.00     0.173 C
ATOM     21  H4  UNL     1     -52.713  -4.523 -26.577  1.00  0.00     0.186 HD
ENDBRANCH  12  14
ENDBRANCH  11  12
BRANCH  11  22
HETATM   22  C15 UNL     1     -50.430  -3.443 -23.407  1.00  0.00     0.006 A
HETATM   23  C16 UNL     1     -50.184  -4.836 -23.403  1.00  0.00     0.012 A
HETATM   24  C17 UNL     1     -49.540  -5.476 -22.376  1.00  0.00     0.001 A
HETATM   25  C18 UNL     1     -49.109  -4.758 -21.300  1.00  0.00     0.002 A
HETATM   26  C19 UNL     1     -49.326  -3.411 -21.264  1.00  0.00     0.037 A
HETATM   27  C20 UNL     1     -49.991  -2.737 -22.323  1.00  0.00     0.111 A
BRANCH  27  28
HETATM   28  N5  UNL     1     -50.139  -1.340 -22.229  1.00  0.00    -0.115 N
HETATM   29  O5  UNL     1     -49.918  -0.526 -23.090  1.00  0.00    -0.532 OA
HETATM   30  O6  UNL     1     -50.615  -0.850 -21.009  1.00  0.00    -0.532 OA
ENDBRANCH  27  28
ENDBRANCH  11  22
ENDBRANCH   9  11
ENDBRANCH   8   9
BRANCH   5  31
HETATM   31  N2  UNL     1     -55.449   1.971 -22.813  1.00  0.00    -0.116 N
HETATM   32  O1  UNL     1     -56.241   2.469 -23.641  1.00  0.00    -0.532 OA
HETATM   33  O2  UNL     1     -55.316   2.588 -21.616  1.00  0.00    -0.532 OA
ENDBRANCH   5  31
TORSDOF 7
ENDMDL