MODEL 5
REMARK VINA RESULT: -8.482452483      1.878      2.206
REMARK  7 active torsions:
REMARK  status: ('A' for Active; 'I' for Inactive)
REMARK    1  A    between atoms: N1_6  and  C5_7
REMARK    2  A    between atoms: C8_10  and  C9_11
REMARK    3  A    between atoms: N2_12  and  N3_14
REMARK    4  A    between atoms: N3_14  and  C10_16
REMARK    5  A    between atoms: C13_19  and  N4_20
REMARK    6  A    between atoms: C15_24  and  N5_25
REMARK    7  A    between atoms: C16_28  and  N6_29
ROOT
HETATM    1  C9  UNL     1     -51.835  -0.867 -24.945  1.00  0.00     0.121 C
HETATM    2  N2  UNL     1     -52.827  -0.667 -24.219  1.00  0.00    -0.311 N
ATOM      3  H2  UNL     1     -53.488  -1.436 -24.107  1.00  0.00     0.186 HD
ENDROOT
BRANCH   1   4
HETATM    4  C8  UNL     1     -51.454  -2.047 -25.678  1.00  0.00     0.014 A
HETATM    5  C7  UNL     1     -51.200  -1.891 -27.058  1.00  0.00     0.017 A
HETATM    6  C6  UNL     1     -50.741  -2.942 -27.818  1.00  0.00     0.031 A
HETATM    7  C5  UNL     1     -50.524  -4.164 -27.245  1.00  0.00     0.039 A
HETATM    8  C17 UNL     1     -50.769  -4.318 -25.923  1.00  0.00     0.066 A
HETATM    9  C16 UNL     1     -51.237  -3.273 -25.113  1.00  0.00     0.116 A
BRANCH   7  10
HETATM   10  N1  UNL     1     -50.032  -5.260 -28.043  1.00  0.00    -0.318 N
HETATM   11  C1  UNL     1     -49.731  -5.182 -29.429  1.00  0.00     0.224 C
HETATM   12  O1  UNL     1     -50.116  -4.372 -30.307  1.00  0.00    -0.273 OA
HETATM   13  C2  UNL     1     -48.808  -6.320 -29.678  1.00  0.00     0.105 C
HETATM   14  C3  UNL     1     -49.391  -7.385 -28.779  1.00  0.00     0.029 C
HETATM   15  C4  UNL     1     -49.768  -6.593 -27.547  1.00  0.00     0.133 C
ENDBRANCH   7  10
BRANCH   9  16
HETATM   16  N6  UNL     1     -51.453  -3.612 -23.755  1.00  0.00    -0.115 N
HETATM   17  O6  UNL     1     -50.613  -3.750 -22.889  1.00  0.00    -0.532 OA
HETATM   18  O7  UNL     1     -52.785  -3.733 -23.340  1.00  0.00    -0.532 OA
ENDBRANCH   9  16
ENDBRANCH   1   4
BRANCH   2  19
HETATM   19  N3  UNL     1     -53.104   0.504 -23.555  1.00  0.00    -0.299 N
ATOM     20  H3  UNL     1     -53.331   1.338 -24.097  1.00  0.00     0.187 HD
BRANCH  19  21
HETATM   21  C10 UNL     1     -53.084   0.585 -22.156  1.00  0.00     0.081 A
HETATM   22  C11 UNL     1     -52.060   0.008 -21.401  1.00  0.00     0.036 A
HETATM   23  C12 UNL     1     -52.097   0.117 -20.021  1.00  0.00     0.038 A
HETATM   24  C13 UNL     1     -53.114   0.778 -19.356  1.00  0.00     0.105 A
HETATM   25  C14 UNL     1     -54.102   1.330 -20.138  1.00  0.00     0.074 A
HETATM   26  C15 UNL     1     -54.116   1.254 -21.505  1.00  0.00     0.133 A
BRANCH  24  27
HETATM   27  N4  UNL     1     -53.145   0.877 -17.934  1.00  0.00    -0.116 N
HETATM   28  O2  UNL     1     -52.094   0.659 -17.308  1.00  0.00    -0.532 OA
HETATM   29  O3  UNL     1     -54.266   1.202 -17.225  1.00  0.00    -0.532 OA
ENDBRANCH  24  27
BRANCH  26  30
HETATM   30  N5  UNL     1     -55.182   1.840 -22.267  1.00  0.00    -0.113 N
HETATM   31  O4  UNL     1     -55.505   3.029 -22.012  1.00  0.00    -0.532 OA
HETATM   32  O5  UNL     1     -55.819   1.121 -23.239  1.00  0.00    -0.532 OA
ENDBRANCH  26  30
ENDBRANCH  19  21
ENDBRANCH   2  19
TORSDOF 7
ENDMDL