MODEL 1
REMARK VINA RESULT: -7.012885323      0.000      0.000
REMARK  11 active torsions:
REMARK  status: ('A' for Active; 'I' for Inactive)
REMARK    1  A    between atoms: C2_2  and  S1_4
REMARK    2  A    between atoms: S1_4  and  C4_5
REMARK    3  A    between atoms: C4_5  and  C5_6
REMARK    4  A    between atoms: C5_6  and  O2_8
REMARK    5  A    between atoms: O2_8  and  N1_9
REMARK    6  A    between atoms: N2_15  and  C10_16
REMARK    7  A    between atoms: C13_19  and  N3_20
REMARK    8  A    between atoms: C14_23  and  O5_24
REMARK    9  A    between atoms: C15_26  and  C16_27
REMARK   10  A    between atoms: C16_27  and  O7_29
REMARK   11  A    between atoms: O7_29  and  C17_30
ROOT
HETATM    1  C10 UNL     1     -52.349  -1.159 -23.213  1.00  0.00     0.055 A
HETATM    2  C11 UNL     1     -52.471  -0.245 -24.265  1.00  0.00     0.033 A
HETATM    3  C12 UNL     1     -53.492   0.639 -24.388  1.00  0.00     0.041 A
HETATM    4  C13 UNL     1     -54.476   0.617 -23.385  1.00  0.00     0.137 A
HETATM    5  C14 UNL     1     -54.425  -0.238 -22.337  1.00  0.00     0.117 A
HETATM    6  C15 UNL     1     -53.331  -1.142 -22.260  1.00  0.00     0.102 A
ENDROOT
BRANCH   1   7
HETATM    7  N2  UNL     1     -51.271  -2.073 -23.216  1.00  0.00    -0.334 N
HETATM    8  C6  UNL     1     -51.183  -3.347 -23.890  1.00  0.00     0.105 C
HETATM    9  N1  UNL     1     -51.761  -3.596 -25.021  1.00  0.00    -0.245 N
HETATM   10  C7  UNL     1     -50.345  -4.292 -23.077  1.00  0.00     0.080 C
ATOM     11  H1  UNL     1     -52.304  -2.858 -25.470  1.00  0.00     0.196 HD
HETATM   12  C8  UNL     1     -49.830  -3.413 -21.957  1.00  0.00     0.028 C
HETATM   13  C9  UNL     1     -49.985  -1.982 -22.501  1.00  0.00     0.131 C
BRANCH   9  14
HETATM   14  O2  UNL     1     -51.666  -4.821 -25.637  1.00  0.00    -0.197 OA
BRANCH  14  15
HETATM   15  C5  UNL     1     -51.942  -4.967 -26.974  1.00  0.00     0.290 C
HETATM   16  O1  UNL     1     -51.101  -5.564 -27.688  1.00  0.00    -0.262 OA
BRANCH  15  17
HETATM   17  C4  UNL     1     -53.173  -4.464 -27.627  1.00  0.00     0.192 C
BRANCH  17  18
HETATM   18  S1  UNL     1     -52.819  -3.335 -28.976  1.00  0.00    -0.126 SA
BRANCH  18  19
HETATM   19  C2  UNL     1     -52.011  -1.885 -28.336  1.00  0.00    -0.035 C
HETATM   20  C1  UNL     1     -52.744  -0.897 -27.867  1.00  0.00     0.026 C
HETATM   21  C3  UNL     1     -50.538  -1.795 -28.333  1.00  0.00     0.055 C
ENDBRANCH  18  19
ENDBRANCH  17  18
ENDBRANCH  15  17
ENDBRANCH  14  15
ENDBRANCH   9  14
ENDBRANCH   1   7
BRANCH   6  22
HETATM   22  C16 UNL     1     -53.302  -2.015 -21.104  1.00  0.00     0.298 C
HETATM   23  O6  UNL     1     -53.552  -3.236 -21.143  1.00  0.00    -0.259 OA
BRANCH  22  24
HETATM   24  O7  UNL     1     -52.979  -1.502 -19.853  1.00  0.00    -0.318 OA
BRANCH  24  25
HETATM   25  C17 UNL     1     -52.030  -0.455 -19.699  1.00  0.00     0.174 C
HETATM   26  C18 UNL     1     -52.662   0.728 -19.001  1.00  0.00     0.034 C
ENDBRANCH  24  25
ENDBRANCH  22  24
ENDBRANCH   6  22
BRANCH   5  27
HETATM   27  O5  UNL     1     -55.357  -0.301 -21.325  1.00  0.00    -0.357 OA
ATOM     28  H5  UNL     1     -55.933  -1.039 -21.162  1.00  0.00     0.217 HD
ENDBRANCH   5  27
BRANCH   4  29
HETATM   29  N3  UNL     1     -55.510   1.555 -23.559  1.00  0.00    -0.113 N
HETATM   30  O3  UNL     1     -56.190   1.684 -24.584  1.00  0.00    -0.532 OA
HETATM   31  O4  UNL     1     -55.831   2.467 -22.540  1.00  0.00    -0.532 OA
ENDBRANCH   4  29
TORSDOF 11
ENDMDL