MODEL 3
REMARK VINA RESULT: -7.310544606      2.752      5.548
REMARK  8 active torsions:
REMARK  status: ('A' for Active; 'I' for Inactive)
REMARK    1  A    between atoms: C4_6  and  C5_7
REMARK    2  A    between atoms: C6_10  and  N3_11
REMARK    3  A    between atoms: N3_11  and  C7_13
REMARK    4  A    between atoms: C7_13  and  C8_14
REMARK    5  A    between atoms: N4_19  and  C12_20
REMARK    6  A    between atoms: C12_20  and  C13_21
REMARK    7  A    between atoms: C13_21  and  C14_22
REMARK    8  A    between atoms: C18_28  and  C19_29
ROOT
HETATM    1  C5  UNL     1     -53.332  -1.608 -23.606  1.00  0.00     0.164 C
HETATM    2  N2  UNL     1     -53.650  -2.878 -23.047  1.00  0.00    -0.215 N
ATOM      3  H2  UNL     1     -54.458  -3.083 -22.460  1.00  0.00     0.178 HD
HETATM    4  C6  UNL     1     -52.746  -3.728 -23.407  1.00  0.00     0.673 C
HETATM    5  N4  UNL     1     -51.756  -3.072 -24.192  1.00  0.00    -0.205 N
HETATM    6  C18 UNL     1     -51.797  -1.691 -23.646  1.00  0.00     0.189 C
ENDROOT
BRANCH   4   7
HETATM    7  N3  UNL     1     -52.743  -5.116 -23.032  1.00  0.00    -0.220 N
ATOM      8  H3  UNL     1     -53.434  -5.753 -23.430  1.00  0.00     0.178 HD
BRANCH   7   9
HETATM    9  C7  UNL     1     -51.748  -5.617 -22.078  1.00  0.00     0.203 C
BRANCH   9  10
HETATM   10  C8  UNL     1     -50.665  -6.344 -22.753  1.00  0.00     0.070 A
HETATM   11  C9  UNL     1     -49.348  -5.948 -22.839  1.00  0.00     0.036 A
HETATM   12  C10 UNL     1     -48.672  -6.930 -23.565  1.00  0.00     0.027 A
HETATM   13  C11 UNL     1     -49.642  -7.869 -23.876  1.00  0.00     0.142 A
HETATM   14  O1  UNL     1     -50.809  -7.487 -23.378  1.00  0.00    -0.325 OA
ENDBRANCH   9  10
ENDBRANCH   7   9
ENDBRANCH   4   7
BRANCH   5  15
HETATM   15  C12 UNL     1     -50.939  -3.598 -25.227  1.00  0.00     0.145 C
BRANCH  15  16
HETATM   16  C13 UNL     1     -50.611  -2.500 -26.217  1.00  0.00     0.054 C
BRANCH  16  17
HETATM   17  C14 UNL     1     -51.551  -2.509 -27.396  1.00  0.00     0.146 C
HETATM   18  C15 UNL     1     -50.748  -2.092 -28.606  1.00  0.00     0.199 C
HETATM   19  O2  UNL     1     -51.545  -1.941 -29.705  1.00  0.00    -0.387 OA
HETATM   20  C16 UNL     1     -52.809  -2.406 -29.465  1.00  0.00     0.193 C
HETATM   21  C17 UNL     1     -52.890  -3.710 -28.734  1.00  0.00     0.194 C
HETATM   22  O3  UNL     1     -52.057  -3.782 -27.644  1.00  0.00    -0.382 OA
ENDBRANCH  16  17
ENDBRANCH  15  16
ENDBRANCH   5  15
BRANCH   1  23
HETATM   23  C4  UNL     1     -53.855  -0.449 -22.929  1.00  0.00    -0.017 A
HETATM   24  C3  UNL     1     -54.676  -0.553 -21.840  1.00  0.00     0.096 A
HETATM   25  N1  UNL     1     -55.180   0.558 -21.216  1.00  0.00    -0.375 N
HETATM   26  C2  UNL     1     -54.904   1.805 -21.628  1.00  0.00     0.087 A
ATOM     27  H1  UNL     1     -55.788   0.433 -20.406  1.00  0.00     0.164 HD
HETATM   28  C1  UNL     1     -54.078   1.948 -22.722  1.00  0.00     0.018 A
HETATM   29  C22 UNL     1     -53.560   0.822 -23.365  1.00  0.00     0.012 A
ENDBRANCH   1  23
BRANCH   6  30
HETATM   30  C19 UNL     1     -51.189  -1.670 -22.313  1.00  0.00     0.103 A
HETATM   31  C20 UNL     1     -50.076  -2.363 -21.913  1.00  0.00     0.056 A
HETATM   32  C21 UNL     1     -49.847  -2.055 -20.568  1.00  0.00     0.117 A
HETATM   33  N5  UNL     1     -50.833  -1.202 -20.250  1.00  0.00    -0.272 N
HETATM   34  O4  UNL     1     -51.600  -0.990 -21.273  1.00  0.00    -0.240 OA
ATOM     35  H5  UNL     1     -50.960  -0.778 -19.331  1.00  0.00     0.193 HD
ENDBRANCH   6  30
TORSDOF 8
ENDMDL