MODEL 5
REMARK VINA RESULT: -7.331590741      3.834      5.716
REMARK  8 active torsions:
REMARK  status: ('A' for Active; 'I' for Inactive)
REMARK    1  A    between atoms: C2_2  and  O1_3
REMARK    2  A    between atoms: O1_3  and  C3_4
REMARK    3  A    between atoms: C3_4  and  C4_6
REMARK    4  A    between atoms: N3_11  and  C5_12
REMARK    5  A    between atoms: C5_12  and  C6_13
REMARK    6  A    between atoms: C6_13  and  O3_14
REMARK    7  A    between atoms: C8_16  and  S1_17
REMARK    8  A    between atoms: S1_17  and  C9_18
ROOT
HETATM    1  C4  UNL     1     -50.979  -2.925 -19.289  1.00  0.00     0.160 A
HETATM    2  N1  UNL     1     -50.142  -1.949 -18.904  1.00  0.00    -0.278 N
ATOM      3  H1  UNL     1     -50.410  -1.087 -18.428  1.00  0.00     0.189 HD
HETATM    4  N2  UNL     1     -48.891  -2.299 -19.253  1.00  0.00    -0.239 N
ATOM      5  H2  UNL     1     -48.056  -1.738 -19.082  1.00  0.00     0.208 HD
HETATM    6  N3  UNL     1     -48.903  -3.465 -19.845  1.00  0.00    -0.267 N
HETATM    7  C8  UNL     1     -50.179  -3.878 -19.883  1.00  0.00     0.130 A
ENDROOT
BRANCH   7   8
HETATM    8  S1  UNL     1     -50.757  -5.408 -20.586  1.00  0.00    -0.042 SA
BRANCH   8   9
HETATM    9  C9  UNL     1     -51.404  -5.130 -22.224  1.00  0.00     0.135 A
HETATM   10  N4  UNL     1     -52.512  -5.457 -22.738  1.00  0.00    -0.287 N
HETATM   11  N5  UNL     1     -52.798  -5.140 -24.017  1.00  0.00    -0.292 N
ATOM     12  H4  UNL     1     -53.197  -5.966 -22.179  1.00  0.00     0.188 HD
HETATM   13  C10 UNL     1     -51.812  -4.437 -24.737  1.00  0.00     0.093 A
ATOM     14  H5  UNL     1     -53.688  -5.397 -24.444  1.00  0.00     0.187 HD
HETATM   15  C11 UNL     1     -51.882  -4.035 -25.978  1.00  0.00    -0.045 C
HETATM   16  S2  UNL     1     -50.514  -4.268 -23.515  1.00  0.00    -0.044 SA
HETATM   17  C12 UNL     1     -53.153  -4.398 -26.607  1.00  0.00     0.037 C
HETATM   18  C18 UNL     1     -50.610  -3.321 -26.349  1.00  0.00     0.037 C
HETATM   19  C13 UNL     1     -53.272  -3.920 -28.036  1.00  0.00     0.004 C
HETATM   20  C14 UNL     1     -53.520  -2.445 -28.131  1.00  0.00     0.000 C
HETATM   21  C15 UNL     1     -52.416  -1.792 -28.905  1.00  0.00     0.000 C
HETATM   22  C16 UNL     1     -51.045  -2.071 -28.395  1.00  0.00     0.000 C
HETATM   23  C17 UNL     1     -50.892  -1.960 -26.911  1.00  0.00     0.004 C
ENDBRANCH   8   9
ENDBRANCH   7   8
BRANCH   1  24
HETATM   24  C3  UNL     1     -52.421  -3.011 -19.136  1.00  0.00     0.314 C
HETATM   25  O2  UNL     1     -52.923  -3.379 -18.033  1.00  0.00    -0.257 OA
BRANCH  24  26
HETATM   26  O1  UNL     1     -53.297  -2.707 -20.154  1.00  0.00    -0.317 OA
BRANCH  26  27
HETATM   27  C2  UNL     1     -53.183  -1.526 -20.950  1.00  0.00     0.175 C
HETATM   28  C1  UNL     1     -53.398  -1.910 -22.387  1.00  0.00     0.034 C
ENDBRANCH  26  27
ENDBRANCH  24  26
ENDBRANCH   1  24
BRANCH   6  29
HETATM   29  C5  UNL     1     -47.749  -4.189 -20.371  1.00  0.00     0.177 C
BRANCH  29  30
HETATM   30  C6  UNL     1     -46.549  -3.944 -19.487  1.00  0.00     0.189 C
BRANCH  30  31
HETATM   31  O3  UNL     1     -45.832  -2.822 -19.772  1.00  0.00    -0.394 OA
HETATM   32  C7  UNL     1     -45.258  -2.256 -18.649  1.00  0.00     0.201 C
ENDBRANCH  30  31
ENDBRANCH  29  30
ENDBRANCH   6  29
TORSDOF 8
ENDMDL