MODEL 4
REMARK VINA RESULT: -8.189789785      4.219      6.628
REMARK  7 active torsions:
REMARK  status: ('A' for Active; 'I' for Inactive)
REMARK    1  A    between atoms: C2_3  and  C3_4
REMARK    2  A    between atoms: C3_4  and  C4_5
REMARK    3  A    between atoms: C4_5  and  C5_6
REMARK    4  A    between atoms: C5_6  and  C6_7
REMARK    5  A    between atoms: C6_7  and  N2_8
REMARK    6  A    between atoms: N3_11  and  C8_12
REMARK    7  A    between atoms: C10_14  and  N4_15
ROOT
HETATM    1  N1  UNL     1     -53.931  -3.339 -29.145  1.00  0.00    -0.197 NA
HETATM    2  C1  UNL     1     -52.794  -3.308 -29.022  1.00  0.00     0.059 C
HETATM    3  C2  UNL     1     -51.358  -3.243 -28.869  1.00  0.00     0.124 C
ENDROOT
BRANCH   3   4
HETATM    4  C3  UNL     1     -50.930  -2.092 -27.984  1.00  0.00     0.014 C
BRANCH   4   5
HETATM    5  C4  UNL     1     -50.577  -2.672 -26.642  1.00  0.00     0.002 C
BRANCH   5   6
HETATM    6  C5  UNL     1     -51.570  -2.351 -25.550  1.00  0.00     0.020 C
BRANCH   6   7
HETATM    7  C6  UNL     1     -50.954  -1.726 -24.352  1.00  0.00     0.134 C
BRANCH   7   8
HETATM    8  N2  UNL     1     -51.506  -2.077 -23.093  1.00  0.00    -0.295 N
HETATM    9  C7  UNL     1     -50.890  -3.065 -22.376  1.00  0.00     0.337 A
HETATM   10  O1  UNL     1     -49.860  -3.611 -22.902  1.00  0.00    -0.246 OA
HETATM   11  N3  UNL     1     -51.355  -3.430 -21.185  1.00  0.00    -0.222 N
HETATM   12  C13 UNL     1     -52.425  -2.891 -20.594  1.00  0.00     0.292 A
HETATM   13  O5  UNL     1     -52.854  -3.251 -19.460  1.00  0.00    -0.264 OA
HETATM   14  C14 UNL     1     -53.070  -1.890 -21.297  1.00  0.00     0.172 A
HETATM   15  O6  UNL     1     -54.126  -1.207 -20.951  1.00  0.00    -0.302 OA
HETATM   16  C21 UNL     1     -52.589  -1.503 -22.544  1.00  0.00     0.091 A
HETATM   17  C15 UNL     1     -54.379  -0.368 -21.926  1.00  0.00     0.089 A
HETATM   18  C16 UNL     1     -55.410   0.563 -22.005  1.00  0.00     0.038 A
HETATM   19  C20 UNL     1     -53.463  -0.499 -22.947  1.00  0.00     0.028 A
HETATM   20  C17 UNL     1     -55.458   1.329 -23.144  1.00  0.00     0.003 A
HETATM   21  C18 UNL     1     -54.553   1.203 -24.163  1.00  0.00     0.001 A
HETATM   22  C19 UNL     1     -53.512   0.266 -24.086  1.00  0.00     0.017 A
BRANCH  11  23
HETATM   23  C8  UNL     1     -50.681  -4.460 -20.479  1.00  0.00     0.117 A
HETATM   24  C9  UNL     1     -50.912  -5.787 -20.778  1.00  0.00     0.073 A
HETATM   25  C10 UNL     1     -50.245  -6.788 -20.075  1.00  0.00     0.120 A
HETATM   26  C11 UNL     1     -49.361  -6.428 -19.088  1.00  0.00     0.127 A
HETATM   27  N5  UNL     1     -49.127  -5.118 -18.785  1.00  0.00    -0.329 N
HETATM   28  C12 UNL     1     -49.784  -4.156 -19.478  1.00  0.00     0.273 A
ATOM     29  H5  UNL     1     -48.468  -4.866 -18.049  1.00  0.00     0.168 HD
HETATM   30  O4  UNL     1     -49.585  -2.943 -19.215  1.00  0.00    -0.266 OA
BRANCH  25  31
HETATM   31  N4  UNL     1     -50.499  -8.147 -20.403  1.00  0.00    -0.114 N
HETATM   32  O2  UNL     1     -51.092  -8.903 -19.608  1.00  0.00    -0.532 OA
HETATM   33  O3  UNL     1     -50.096  -8.663 -21.608  1.00  0.00    -0.532 OA
ENDBRANCH  25  31
ENDBRANCH  11  23
ENDBRANCH   7   8
ENDBRANCH   6   7
ENDBRANCH   5   6
ENDBRANCH   4   5
ENDBRANCH   3   4
TORSDOF 7
ENDMDL