MODEL 5
REMARK VINA RESULT: -7.523117784      0.576      1.745
REMARK  8 active torsions:
REMARK  status: ('A' for Active; 'I' for Inactive)
REMARK    1  A    between atoms: C2_2  and  N1_3
REMARK    2  A    between atoms: N1_3  and  C3_4
REMARK       I    between atoms: N1_3  and  C7_13
REMARK    3  A    between atoms: C3_4  and  C4_5
REMARK    4  A    between atoms: C7_13  and  C8_15
REMARK    5  A    between atoms: C8_15  and  S1_16
REMARK    6  A    between atoms: S1_16  and  C9_17
REMARK    7  A    between atoms: C10_22  and  C11_23
REMARK    8  A    between atoms: N6_31  and  N7_32
ROOT
HETATM    1  C9  UNL     1     -54.149  -1.042 -28.194  1.00  0.00     0.182 A
HETATM    2  N4  UNL     1     -55.386  -0.798 -27.729  1.00  0.00    -0.277 N
ATOM      3  H4  UNL     1     -56.252  -0.910 -28.256  1.00  0.00     0.189 HD
HETATM    4  N5  UNL     1     -55.294  -0.386 -26.466  1.00  0.00    -0.285 N
ATOM      5  H5  UNL     1     -56.080  -0.130 -25.867  1.00  0.00     0.188 HD
HETATM    6  C10 UNL     1     -53.992  -0.361 -26.104  1.00  0.00     0.124 A
HETATM    7  N6  UNL     1     -53.304  -0.765 -27.174  1.00  0.00    -0.225 N
ENDROOT
BRANCH   1   8
HETATM    8  S1  UNL     1     -53.616  -1.611 -29.799  1.00  0.00    -0.081 SA
BRANCH   8   9
HETATM    9  C8  UNL     1     -53.383  -3.398 -29.795  1.00  0.00     0.185 C
BRANCH   9  10
HETATM   10  C7  UNL     1     -52.030  -3.684 -29.230  1.00  0.00     0.229 C
HETATM   11  N1  UNL     1     -51.899  -4.340 -27.978  1.00  0.00    -0.344 N
HETATM   12  O2  UNL     1     -51.022  -3.341 -29.873  1.00  0.00    -0.273 OA
BRANCH  11  13
HETATM   13  C2  UNL     1     -53.092  -4.729 -27.248  1.00  0.00     0.122 C
HETATM   14  C1  UNL     1     -53.121  -4.192 -25.857  1.00  0.00     0.026 C
ENDBRANCH  11  13
BRANCH  11  15
HETATM   15  C3  UNL     1     -50.568  -4.600 -27.476  1.00  0.00     0.212 C
BRANCH  15  16
HETATM   16  C4  UNL     1     -50.106  -5.917 -28.027  1.00  0.00     0.166 A
HETATM   17  N2  UNL     1     -49.656  -6.222 -29.250  1.00  0.00    -0.326 N
HETATM   18  C5  UNL     1     -49.349  -7.527 -29.317  1.00  0.00     0.100 A
ATOM     19  H2  UNL     1     -49.560  -5.559 -30.019  1.00  0.00     0.169 HD
HETATM   20  C6  UNL     1     -48.825  -8.228 -30.498  1.00  0.00     0.091 C
HETATM   21  N3  UNL     1     -49.628  -8.014 -28.085  1.00  0.00    -0.247 N
HETATM   22  O1  UNL     1     -50.072  -7.054 -27.341  1.00  0.00    -0.221 OA
ATOM     23  H3  UNL     1     -49.508  -8.983 -27.791  1.00  0.00     0.196 HD
ENDBRANCH  15  16
ENDBRANCH  11  15
ENDBRANCH   9  10
ENDBRANCH   8   9
ENDBRANCH   1   8
BRANCH   7  24
HETATM   24  N7  UNL     1     -51.918  -0.880 -27.217  1.00  0.00    -0.335 N
ATOM     25  H72 UNL     1     -51.417  -1.766 -27.274  1.00  0.00     0.177 HD
ATOM     26  H71 UNL     1     -51.257  -0.103 -27.198  1.00  0.00     0.177 HD
ENDBRANCH   7  24
BRANCH   6  27
HETATM   27  C11 UNL     1     -53.510   0.045 -24.776  1.00  0.00     0.057 C
HETATM   28  C12 UNL     1     -54.243   1.247 -24.273  1.00  0.00     0.012 C
HETATM   29  C13 UNL     1     -55.148   1.023 -23.110  1.00  0.00     0.001 C
HETATM   30  C14 UNL     1     -54.688   1.722 -21.852  1.00  0.00     0.000 C
HETATM   31  C15 UNL     1     -53.486   1.120 -21.215  1.00  0.00     0.000 C
HETATM   32  C16 UNL     1     -53.399  -0.393 -21.384  1.00  0.00     0.000 C
HETATM   33  C17 UNL     1     -52.613  -0.671 -22.620  1.00  0.00     0.001 C
HETATM   34  C18 UNL     1     -53.441  -1.110 -23.806  1.00  0.00     0.012 C
ENDBRANCH   6  27
TORSDOF 8
ENDMDL