MODEL 1
REMARK VINA RESULT: -8.387014580      0.000      0.000
REMARK  7 active torsions:
REMARK  status: ('A' for Active; 'I' for Inactive)
REMARK    1  A    between atoms: C1_2  and  C2_3
REMARK       I    between atoms: C1_2  and  N4_23
REMARK    2  A    between atoms: C2_3  and  S1_4
REMARK    3  A    between atoms: S1_4  and  C3_5
REMARK    4  A    between atoms: C4_10  and  C5_11
REMARK    5  A    between atoms: N3_16  and  C9_17
REMARK    6  A    between atoms: C9_17  and  C10_18
REMARK    7  A    between atoms: N4_23  and  C14_25
ROOT
HETATM    1  C3  UNL     1     -52.010  -5.289 -24.882  1.00  0.00     0.163 A
HETATM    2  N1  UNL     1     -52.114  -6.611 -24.787  1.00  0.00    -0.278 N
ATOM      3  H1  UNL     1     -52.693  -7.116 -24.116  1.00  0.00     0.189 HD
HETATM    4  N2  UNL     1     -51.355  -7.153 -25.693  1.00  0.00    -0.281 N
ATOM      5  H2  UNL     1     -51.242  -8.155 -25.848  1.00  0.00     0.188 HD
HETATM    6  C4  UNL     1     -50.744  -6.185 -26.394  1.00  0.00     0.159 A
HETATM    7  N3  UNL     1     -51.138  -5.021 -25.903  1.00  0.00    -0.307 N
ENDROOT
BRANCH   1   8
HETATM    8  S1  UNL     1     -52.844  -4.095 -23.871  1.00  0.00    -0.083 SA
BRANCH   8   9
HETATM    9  C2  UNL     1     -51.841  -3.582 -22.484  1.00  0.00     0.185 C
BRANCH   9  10
HETATM   10  C1  UNL     1     -52.618  -2.594 -21.636  1.00  0.00     0.232 C
HETATM   11  O1  UNL     1     -53.413  -3.076 -20.807  1.00  0.00    -0.272 OA
HETATM   12  N4  UNL     1     -52.382  -1.237 -21.850  1.00  0.00    -0.324 N
ATOM     13  H4  UNL     1     -51.700  -0.985 -22.565  1.00  0.00     0.169 HD
BRANCH  12  14
HETATM   14  C14 UNL     1     -53.013  -0.185 -21.156  1.00  0.00     0.071 A
HETATM   15  C15 UNL     1     -52.777   0.229 -19.884  1.00  0.00     0.032 A
HETATM   16  C16 UNL     1     -53.463   1.295 -19.276  1.00  0.00     0.005 A
HETATM   17  C17 UNL     1     -54.431   1.972 -19.978  1.00  0.00     0.040 A
HETATM   18  C18 UNL     1     -54.693   1.577 -21.264  1.00  0.00     0.107 A
HETATM   19  C19 UNL     1     -54.015   0.539 -21.839  1.00  0.00     0.131 A
HETATM   20  O5  UNL     1     -55.601   2.063 -22.211  1.00  0.00    -0.323 OA
HETATM   21  O4  UNL     1     -54.503   0.389 -23.125  1.00  0.00    -0.321 OA
HETATM   22  C20 UNL     1     -55.246   1.538 -23.483  1.00  0.00     0.352 C
ENDBRANCH  12  14
ENDBRANCH   9  10
ENDBRANCH   8   9
ENDBRANCH   1   8
BRANCH   7  23
HETATM   23  C9  UNL     1     -50.788  -3.693 -26.314  1.00  0.00     0.165 C
BRANCH  23  24
HETATM   24  C10 UNL     1     -51.624  -3.184 -27.485  1.00  0.00     0.140 C
HETATM   25  C11 UNL     1     -50.729  -2.670 -28.584  1.00  0.00     0.035 C
HETATM   26  C12 UNL     1     -50.649  -1.204 -28.290  1.00  0.00     0.029 C
HETATM   27  C13 UNL     1     -52.046  -0.973 -27.713  1.00  0.00     0.168 C
HETATM   28  O3  UNL     1     -52.418  -2.152 -27.135  1.00  0.00    -0.384 OA
ENDBRANCH  23  24
ENDBRANCH   7  23
BRANCH   6  29
HETATM   29  C5  UNL     1     -49.823  -6.444 -27.523  1.00  0.00     0.120 A
HETATM   30  C6  UNL     1     -48.675  -7.208 -27.481  1.00  0.00     0.043 A
HETATM   31  C7  UNL     1     -48.093  -7.211 -28.732  1.00  0.00     0.027 A
HETATM   32  C8  UNL     1     -48.927  -6.431 -29.503  1.00  0.00     0.142 A
HETATM   33  O2  UNL     1     -49.928  -6.005 -28.744  1.00  0.00    -0.319 OA
ENDBRANCH   6  29
TORSDOF 7
ENDMDL