MODEL 1
REMARK VINA RESULT: -7.423349318      0.000      0.000
REMARK  6 active torsions:
REMARK  status: ('A' for Active; 'I' for Inactive)
REMARK    1  A    between atoms: C5_6  and  C6_7
REMARK       I    between atoms: C6_7  and  N2_9
REMARK    2  A    between atoms: N2_9  and  C7_11
REMARK    3  A    between atoms: C8_12  and  N3_13
REMARK    4  A    between atoms: N3_13  and  O2_14
REMARK    5  A    between atoms: C11_19  and  N5_20
REMARK    6  A    between atoms: C13_24  and  N6_25
ROOT
HETATM    1  N1  UNL     1     -47.713  -3.333 -28.092  1.00  0.00    -0.191 NA
HETATM    2  C1  UNL     1     -48.306  -3.063 -27.116  1.00  0.00     0.099 C
HETATM    3  C2  UNL     1     -49.013  -2.724 -25.897  1.00  0.00     0.046 A
HETATM    4  C3  UNL     1     -50.074  -1.853 -25.919  1.00  0.00     0.024 A
HETATM    5  C4  UNL     1     -50.770  -1.524 -24.763  1.00  0.00     0.020 A
HETATM    6  C5  UNL     1     -50.381  -2.082 -23.578  1.00  0.00     0.054 A
HETATM    7  C14 UNL     1     -49.328  -2.951 -23.515  1.00  0.00     0.051 A
HETATM    8 CL1  UNL     1     -48.821  -3.666 -22.008  1.00  0.00    -0.083 Cl
HETATM    9  C15 UNL     1     -48.631  -3.282 -24.685  1.00  0.00     0.047 A
ENDROOT
BRANCH   6  10
HETATM   10  C6  UNL     1     -51.180  -1.759 -22.328  1.00  0.00     0.258 C
HETATM   11  O1  UNL     1     -52.022  -2.621 -22.117  1.00  0.00    -0.267 OA
HETATM   12  N2  UNL     1     -50.842  -0.585 -21.650  1.00  0.00    -0.319 N
ATOM     13  H2  UNL     1     -50.067  -0.095 -22.096  1.00  0.00     0.169 HD
BRANCH  12  14
HETATM   14  C7  UNL     1     -51.297   0.081 -20.521  1.00  0.00     0.093 A
HETATM   15  C8  UNL     1     -50.806  -0.091 -19.258  1.00  0.00     0.084 A
HETATM   16  C10 UNL     1     -51.251   0.663 -18.149  1.00  0.00     0.065 A
HETATM   17  C11 UNL     1     -52.205   1.599 -18.320  1.00  0.00     0.107 A
HETATM   18  C12 UNL     1     -52.709   1.779 -19.575  1.00  0.00     0.074 A
HETATM   19  C13 UNL     1     -52.289   1.046 -20.700  1.00  0.00     0.134 A
BRANCH  15  20
HETATM   20  N3  UNL     1     -49.824  -1.044 -18.877  1.00  0.00    -0.060 NA
HETATM   21  C9  UNL     1     -50.392  -2.333 -18.772  1.00  0.00     0.184 C
HETATM   22  N4  UNL     1     -50.877  -3.380 -18.700  1.00  0.00    -0.176 NA
BRANCH  20  23
HETATM   23  O2  UNL     1     -48.792  -1.062 -19.772  1.00  0.00    -0.294 OA
ATOM     24  H2  UNL     1     -48.382  -1.919 -19.797  1.00  0.00     0.238 HD
ENDBRANCH  20  23
ENDBRANCH  15  20
BRANCH  17  25
HETATM   25  N5  UNL     1     -52.661   2.386 -17.206  1.00  0.00    -0.116 N
HETATM   26  O3  UNL     1     -52.353   2.080 -16.054  1.00  0.00    -0.532 OA
HETATM   27  O4  UNL     1     -53.443   3.483 -17.433  1.00  0.00    -0.532 OA
ENDBRANCH  17  25
BRANCH  19  28
HETATM   28  N6  UNL     1     -52.941   1.375 -21.898  1.00  0.00    -0.113 N
HETATM   29  O5  UNL     1     -52.469   1.265 -23.014  1.00  0.00    -0.532 OA
HETATM   30  O6  UNL     1     -54.262   1.801 -21.829  1.00  0.00    -0.532 OA
ENDBRANCH  19  28
ENDBRANCH  12  14
ENDBRANCH   6  10
TORSDOF 6
ENDMDL