MODEL 5
REMARK VINA RESULT: -8.866078041      3.162      4.497
REMARK  5 active torsions:
REMARK  status: ('A' for Active; 'I' for Inactive)
REMARK    1  A    between atoms: C3_4  and  O1_5
REMARK    2  A    between atoms: O1_5  and  C4_6
REMARK    3  A    between atoms: C7_9  and  N2_10
REMARK    4  A    between atoms: C11_18  and  C12_19
REMARK    5  A    between atoms: C12_19  and  C13_21
ROOT
HETATM    1  N1  UNL     1     -53.941   2.411 -20.719  1.00  0.00    -0.191 NA
HETATM    2  C1  UNL     1     -53.010   1.845 -20.331  1.00  0.00     0.108 C
HETATM    3  C2  UNL     1     -51.870   1.133 -19.832  1.00  0.00     0.154 A
HETATM    4  C3  UNL     1     -50.992   0.547 -20.710  1.00  0.00     0.216 A
HETATM    5  O4  UNL     1     -49.969  -0.097 -20.219  1.00  0.00    -0.298 OA
HETATM    6  C10 UNL     1     -49.772  -0.189 -18.929  1.00  0.00     0.164 A
HETATM    7  C11 UNL     1     -50.613   0.378 -17.975  1.00  0.00     0.089 A
HETATM    8  C19 UNL     1     -51.707   1.065 -18.447  1.00  0.00     0.213 A
HETATM    9  O6  UNL     1     -52.499   1.590 -17.652  1.00  0.00    -0.286 OA
ENDROOT
BRANCH   4  10
HETATM   10  O1  UNL     1     -51.219   0.662 -22.080  1.00  0.00    -0.285 OA
BRANCH  10  11
HETATM   11  C4  UNL     1     -51.467  -0.450 -22.875  1.00  0.00     0.100 A
HETATM   12  C5  UNL     1     -50.850  -1.670 -22.717  1.00  0.00     0.041 A
HETATM   13  C6  UNL     1     -51.148  -2.744 -23.553  1.00  0.00     0.039 A
HETATM   14  C7  UNL     1     -52.071  -2.640 -24.576  1.00  0.00     0.104 A
HETATM   15  C8  UNL     1     -52.686  -1.415 -24.731  1.00  0.00     0.062 A
HETATM   16  C9  UNL     1     -52.396  -0.349 -23.908  1.00  0.00     0.070 A
HETATM   17 CL1  UNL     1     -53.201   1.181 -24.189  1.00  0.00    -0.081 Cl
BRANCH  14  18
HETATM   18  N2  UNL     1     -52.357  -3.746 -25.414  1.00  0.00    -0.116 N
HETATM   19  O2  UNL     1     -52.372  -4.918 -25.059  1.00  0.00    -0.532 OA
HETATM   20  O3  UNL     1     -52.639  -3.485 -26.734  1.00  0.00    -0.532 OA
ENDBRANCH  14  18
ENDBRANCH  10  11
ENDBRANCH   4  10
BRANCH   7  21
HETATM   21  C12 UNL     1     -50.335   0.222 -16.544  1.00  0.00     0.198 C
HETATM   22  O5  UNL     1     -49.516   1.031 -16.041  1.00  0.00    -0.286 OA
BRANCH  21  23
HETATM   23  C13 UNL     1     -50.967  -0.810 -15.729  1.00  0.00     0.015 A
HETATM   24  C14 UNL     1     -51.655  -0.514 -14.575  1.00  0.00     0.017 A
HETATM   25  C15 UNL     1     -52.238  -1.514 -13.789  1.00  0.00     0.027 A
HETATM   26  C16 UNL     1     -52.143  -2.838 -14.143  1.00  0.00     0.046 A
HETATM   27  N3  UNL     1     -52.740  -3.873 -13.345  1.00  0.00    -0.102 NA
HETATM   28  C17 UNL     1     -51.457  -3.157 -15.300  1.00  0.00     0.027 A
HETATM   29  C18 UNL     1     -50.889  -2.154 -16.061  1.00  0.00     0.017 A
ENDBRANCH  21  23
ENDBRANCH   7  21
TORSDOF 5
ENDMDL