MODEL 3
REMARK VINA RESULT: -7.426784406      1.504      1.859
REMARK  5 active torsions:
REMARK  status: ('A' for Active; 'I' for Inactive)
REMARK    1  A    between atoms: N1_2  and  C1_4
REMARK    2  A    between atoms: C5_8  and  N2_9
REMARK    3  A    between atoms: C6_12  and  N3_13
REMARK    4  A    between atoms: N3_13  and  N4_15
REMARK    5  A    between atoms: C7_17  and  C8_18
ROOT
HETATM    1  N3  UNL     1     -51.781  -2.292 -25.018  1.00  0.00    -0.296 N
ATOM      2  H3  UNL     1     -52.619  -2.403 -25.588  1.00  0.00     0.187 HD
ENDROOT
BRANCH   1   3
HETATM    3  C6  UNL     1     -50.558  -2.761 -25.537  1.00  0.00     0.114 A
HETATM    4  C1  UNL     1     -49.919  -3.848 -24.987  1.00  0.00     0.133 A
HETATM    5  C2  UNL     1     -48.697  -4.317 -25.506  1.00  0.00     0.038 A
HETATM    6  C3  UNL     1     -48.155  -3.662 -26.581  1.00  0.00     0.005 A
HETATM    7  C4  UNL     1     -48.792  -2.579 -27.131  1.00  0.00     0.038 A
HETATM    8  C5  UNL     1     -49.993  -2.104 -26.633  1.00  0.00     0.133 A
BRANCH   4   9
HETATM    9  N1  UNL     1     -50.444  -4.555 -23.882  1.00  0.00    -0.113 N
HETATM   10  O1  UNL     1     -50.901  -5.722 -23.985  1.00  0.00    -0.532 OA
HETATM   11  O2  UNL     1     -50.474  -3.957 -22.647  1.00  0.00    -0.532 OA
ENDBRANCH   4   9
BRANCH   8  12
HETATM   12  N2  UNL     1     -50.638  -0.993 -27.204  1.00  0.00    -0.113 N
HETATM   13  O3  UNL     1     -50.358   0.130 -26.724  1.00  0.00    -0.532 OA
HETATM   14  O4  UNL     1     -51.517  -1.135 -28.222  1.00  0.00    -0.532 OA
ENDBRANCH   8  12
ENDBRANCH   1   3
BRANCH   1  15
HETATM   15  N4  UNL     1     -51.911  -1.689 -23.778  1.00  0.00    -0.310 N
HETATM   16  C7  UNL     1     -51.398  -0.558 -23.452  1.00  0.00     0.119 C
ATOM     17  H4  UNL     1     -52.457  -2.180 -23.070  1.00  0.00     0.186 HD
BRANCH  16  18
HETATM   18  C8  UNL     1     -51.610  -0.002 -22.101  1.00  0.00    -0.005 A
HETATM   19  C9  UNL     1     -50.724  -0.375 -21.094  1.00  0.00     0.015 A
HETATM   20  C10 UNL     1     -50.913   0.098 -19.819  1.00  0.00     0.022 A
HETATM   21  C11 UNL     1     -51.978   0.940 -19.548  1.00  0.00     0.040 A
HETATM   22 BR1  UNL     1     -52.253   1.588 -17.786  1.00  0.00    -0.049 Br
HETATM   23  C12 UNL     1     -52.855   1.311 -20.545  1.00  0.00     0.085 A
HETATM   24  N5  UNL     1     -53.972   2.096 -20.600  1.00  0.00    -0.260 N
HETATM   25  C14 UNL     1     -52.648   0.823 -21.824  1.00  0.00     0.030 A
HETATM   26  O5  UNL     1     -54.407   2.083 -21.839  1.00  0.00    -0.249 OA
ATOM     27  H5  UNL     1     -54.392   2.602 -19.820  1.00  0.00     0.195 HD
HETATM   28  C13 UNL     1     -53.644   1.338 -22.586  1.00  0.00     0.182 A
ENDBRANCH  16  18
ENDBRANCH   1  15
TORSDOF 5
ENDMDL