MODEL 5
REMARK VINA RESULT: -7.406163540      2.385      3.817
REMARK  6 active torsions:
REMARK  status: ('A' for Active; 'I' for Inactive)
REMARK    1  A    between atoms: S1_3  and  C2_4
REMARK    2  A    between atoms: C2_4  and  C3_5
REMARK    3  A    between atoms: C3_5  and  O1_6
REMARK    4  A    between atoms: O1_6  and  C4_7
REMARK    5  A    between atoms: C4_7  and  C5_9
REMARK    6  A    between atoms: C9_13  and  C10_14
ROOT
HETATM    1  N1  UNL     1     -53.366  -2.207 -28.375  1.00  0.00    -0.184 NA
HETATM    2  C1  UNL     1     -53.512  -1.586 -27.399  1.00  0.00     0.133 C
HETATM    3  S1  UNL     1     -53.728  -0.671 -25.910  1.00  0.00    -0.049 SA
ENDROOT
BRANCH   3   4
HETATM    4  C2  UNL     1     -55.353   0.169 -25.940  1.00  0.00     0.117 C
BRANCH   4   5
HETATM    5  C3  UNL     1     -55.533   1.033 -24.731  1.00  0.00     0.190 C
BRANCH   5   6
HETATM    6  O1  UNL     1     -54.271   1.384 -24.236  1.00  0.00    -0.317 OA
BRANCH   6   7
HETATM    7  C4  UNL     1     -53.912   1.449 -22.915  1.00  0.00     0.293 C
HETATM    8  O2  UNL     1     -54.724   2.004 -22.120  1.00  0.00    -0.259 OA
BRANCH   7   9
HETATM    9  C5  UNL     1     -52.643   0.893 -22.474  1.00  0.00     0.040 A
HETATM   10  C6  UNL     1     -52.074   1.371 -21.318  1.00  0.00     0.017 A
HETATM   11  C7  UNL     1     -50.874   0.832 -20.917  1.00  0.00     0.002 A
HETATM   12  C8  UNL     1     -50.234  -0.167 -21.642  1.00  0.00     0.012 A
HETATM   13  C9  UNL     1     -50.796  -0.661 -22.813  1.00  0.00    -0.017 A
HETATM   14  C19 UNL     1     -51.998  -0.105 -23.192  1.00  0.00     0.030 A
BRANCH  13  15
HETATM   15  C10 UNL     1     -50.114  -1.706 -23.557  1.00  0.00     0.073 A
HETATM   16  C11 UNL     1     -49.803  -2.890 -22.924  1.00  0.00     0.172 A
HETATM   17  N2  UNL     1     -50.164  -3.041 -21.567  1.00  0.00    -0.073 NA
HETATM   18  O3  UNL     1     -49.177  -3.859 -23.594  1.00  0.00    -0.292 OA
HETATM   19  C12 UNL     1     -48.841  -3.719 -24.856  1.00  0.00     0.113 A
HETATM   20  C13 UNL     1     -48.195  -4.746 -25.506  1.00  0.00     0.069 A
HETATM   21  C17 UNL     1     -49.136  -2.537 -25.532  1.00  0.00     0.051 A
HETATM   22 CL1  UNL     1     -47.817  -6.235 -24.673  1.00  0.00    -0.081 Cl
HETATM   23  C14 UNL     1     -47.834  -4.615 -26.836  1.00  0.00     0.027 A
HETATM   24  C15 UNL     1     -48.135  -3.439 -27.489  1.00  0.00     0.003 A
HETATM   25  C16 UNL     1     -48.778  -2.408 -26.850  1.00  0.00     0.018 A
HETATM   26  C18 UNL     1     -49.781  -1.515 -24.879  1.00  0.00     0.200 A
HETATM   27  O4  UNL     1     -50.077  -0.424 -25.429  1.00  0.00    -0.286 OA
ENDBRANCH  13  15
ENDBRANCH   7   9
ENDBRANCH   6   7
ENDBRANCH   5   6
ENDBRANCH   4   5
ENDBRANCH   3   4
TORSDOF 6
ENDMDL