MODEL 5
REMARK VINA RESULT: -6.305024404      2.313      5.575
REMARK  7 active torsions:
REMARK  status: ('A' for Active; 'I' for Inactive)
REMARK    1  A    between atoms: C2_2  and  C5_5
REMARK    2  A    between atoms: C7_7  and  O1_8
REMARK    3  A    between atoms: C8_10  and  C9_11
REMARK    4  A    between atoms: C9_11  and  O2_12
REMARK    5  A    between atoms: O2_12  and  C10_13
REMARK    6  A    between atoms: C10_13  and  C11_14
REMARK    7  A    between atoms: C11_14  and  C12_15
ROOT
HETATM    1  C10 UNL     1     -49.178  -5.263 -22.123  1.00  0.00     0.172 C
ENDROOT
BRANCH   1   2
HETATM    2  O2  UNL     1     -48.809  -4.564 -21.004  1.00  0.00    -0.390 OA
BRANCH   2   3
HETATM    3  C9  UNL     1     -49.132  -3.247 -21.081  1.00  0.00     0.185 C
BRANCH   3   4
HETATM    4  C8  UNL     1     -49.522  -2.637 -19.780  1.00  0.00     0.100 C
HETATM    5  C7  UNL     1     -50.997  -2.859 -19.519  1.00  0.00     0.135 C
HETATM    6  C6  UNL     1     -51.784  -2.102 -20.505  1.00  0.00     0.049 C
HETATM    7  C5  UNL     1     -51.216  -0.771 -20.764  1.00  0.00     0.057 C
HETATM    8  S1  UNL     1     -49.555  -0.813 -20.025  1.00  0.00    -0.154 SA
BRANCH   5   9
HETATM    9  O1  UNL     1     -51.308  -2.617 -18.192  1.00  0.00    -0.394 OA
ATOM     10  H1  UNL     1     -50.767  -3.067 -17.554  1.00  0.00     0.210 HD
ENDBRANCH   5   9
BRANCH   7  11
HETATM   11  C2  UNL     1     -52.023   0.390 -20.298  1.00  0.00    -0.039 C
HETATM   12  C1  UNL     1     -51.558   0.972 -19.002  1.00  0.00     0.015 C
HETATM   13  C3  UNL     1     -51.940   1.468 -21.382  1.00  0.00     0.015 C
HETATM   14  C4  UNL     1     -53.457  -0.013 -20.189  1.00  0.00     0.015 C
ENDBRANCH   7  11
ENDBRANCH   3   4
ENDBRANCH   2   3
ENDBRANCH   1   2
BRANCH   1  15
HETATM   15  C11 UNL     1     -50.604  -4.957 -22.499  1.00  0.00     0.093 C
BRANCH  15  16
HETATM   16  C12 UNL     1     -50.868  -5.421 -23.938  1.00  0.00     0.335 C
HETATM   17  O3  UNL     1     -52.214  -5.225 -24.219  1.00  0.00    -0.202 OA
HETATM   18  O4  UNL     1     -52.522  -3.991 -23.949  1.00  0.00    -0.195 OA
HETATM   19  C13 UNL     1     -51.783  -3.104 -24.769  1.00  0.00     0.230 C
HETATM   20  C14 UNL     1     -52.049  -1.718 -24.294  1.00  0.00     0.077 C
HETATM   21  C18 UNL     1     -52.213  -3.361 -26.180  1.00  0.00     0.077 C
HETATM   22  O5  UNL     1     -50.412  -3.370 -24.578  1.00  0.00    -0.195 OA
HETATM   23  C15 UNL     1     -52.921  -0.965 -25.262  1.00  0.00     0.042 C
HETATM   24  C16 UNL     1     -52.169  -0.881 -26.575  1.00  0.00     0.170 C
HETATM   25  F1  UNL     1     -50.951  -0.267 -26.307  1.00  0.00    -0.249 F
HETATM   26  C17 UNL     1     -51.857  -2.247 -27.128  1.00  0.00     0.042 C
HETATM   27  O6  UNL     1     -50.129  -4.617 -24.791  1.00  0.00    -0.202 OA
ENDBRANCH  15  16
ENDBRANCH   1  15
TORSDOF 7
ENDMDL