MODEL 5
REMARK VINA RESULT: -6.968545972      2.953      4.723
REMARK  8 active torsions:
REMARK  status: ('A' for Active; 'I' for Inactive)
REMARK    1  A    between atoms: O1_2  and  C2_3
REMARK    2  A    between atoms: C2_3  and  C3_5
REMARK    3  A    between atoms: C10_14  and  C11_15
REMARK    4  A    between atoms: C13_18  and  C14_19
REMARK    5  A    between atoms: C14_19  and  C15_20
REMARK    6  A    between atoms: C15_20  and  O5_22
REMARK    7  A    between atoms: O5_22  and  C16_23
REMARK    8  A    between atoms: C17_25  and  O7_26
ROOT
HETATM    1  C3  UNL     1     -53.023  -0.510 -24.876  1.00  0.00     0.075 A
HETATM    2  C4  UNL     1     -53.343   0.389 -23.853  1.00  0.00     0.043 A
HETATM    3  C5  UNL     1     -52.506   0.651 -22.791  1.00  0.00     0.046 A
HETATM    4  C6  UNL     1     -52.895   1.597 -21.756  1.00  0.00     0.099 C
HETATM    5  N1  UNL     1     -53.200   2.335 -20.923  1.00  0.00    -0.191 NA
HETATM    6  C7  UNL     1     -51.296  -0.009 -22.743  1.00  0.00     0.038 A
HETATM    7  C8  UNL     1     -50.932  -0.904 -23.724  1.00  0.00     0.025 A
HETATM    8  C9  UNL     1     -49.842  -1.708 -23.980  1.00  0.00     0.084 A
HETATM    9 CL1  UNL     1     -48.428  -1.803 -22.953  1.00  0.00    -0.080 Cl
HETATM   10  C10 UNL     1     -50.072  -2.404 -25.167  1.00  0.00     0.135 A
HETATM   11  O8  UNL     1     -51.246  -2.032 -25.597  1.00  0.00    -0.304 OA
HETATM   12  C18 UNL     1     -51.799  -1.142 -24.779  1.00  0.00     0.104 A
ENDROOT
BRANCH   1  13
HETATM   13  C2  UNL     1     -53.937  -0.755 -25.977  1.00  0.00     0.295 C
HETATM   14  O2  UNL     1     -53.487  -1.160 -27.062  1.00  0.00    -0.259 OA
BRANCH  13  15
HETATM   15  O1  UNL     1     -55.288  -0.544 -25.825  1.00  0.00    -0.322 OA
HETATM   16  C1  UNL     1     -55.933   0.666 -26.169  1.00  0.00     0.213 C
ENDBRANCH  13  15
ENDBRANCH   1  13
BRANCH  10  17
HETATM   17  C11 UNL     1     -49.108  -3.352 -25.728  1.00  0.00     0.144 A
HETATM   18  O3  UNL     1     -48.392  -4.228 -25.064  1.00  0.00    -0.316 OA
HETATM   19  C12 UNL     1     -47.632  -4.921 -25.837  1.00  0.00     0.153 A
HETATM   20  C13 UNL     1     -47.836  -4.492 -27.130  1.00  0.00     0.009 A
HETATM   21  C17 UNL     1     -48.771  -3.497 -27.061  1.00  0.00     0.111 A
BRANCH  20  22
HETATM   22  C14 UNL     1     -47.131  -5.062 -28.287  1.00  0.00     0.155 C
BRANCH  22  23
HETATM   23  C15 UNL     1     -48.044  -5.678 -29.284  1.00  0.00     0.270 C
HETATM   24  O4  UNL     1     -48.232  -6.921 -29.304  1.00  0.00    -0.264 OA
BRANCH  23  25
HETATM   25  O5  UNL     1     -48.713  -4.917 -30.218  1.00  0.00    -0.252 OA
BRANCH  25  26
HETATM   26  C16 UNL     1     -48.551  -5.124 -31.580  1.00  0.00     0.406 C
HETATM   27  O6  UNL     1     -48.033  -4.242 -32.298  1.00  0.00    -0.276 OA
ENDBRANCH  25  26
ENDBRANCH  23  25
ENDBRANCH  22  23
ENDBRANCH  20  22
BRANCH  21  28
HETATM   28  O7  UNL     1     -49.280  -2.780 -28.113  1.00  0.00    -0.357 OA
ATOM     29  H7  UNL     1     -49.317  -3.059 -29.020  1.00  0.00     0.217 HD
ENDBRANCH  21  28
ENDBRANCH  10  17
TORSDOF 8
ENDMDL