MODEL 1
REMARK VINA RESULT: -6.391826779      0.000      0.000
REMARK  5 active torsions:
REMARK  status: ('A' for Active; 'I' for Inactive)
REMARK    1  A    between atoms: S1_2  and  C2_3
REMARK       I    between atoms: N3_9  and  C4_11
REMARK    2  A    between atoms: C4_11  and  C5_13
REMARK    3  A    between atoms: C5_13  and  O2_14
REMARK    4  A    between atoms: O2_14  and  C6_15
REMARK    5  A    between atoms: C11_22  and  N4_23
ROOT
HETATM    1  C2  UNL     1     -48.822  -4.428 -25.876  1.00  0.00     0.129 A
HETATM    2  N1  UNL     1     -50.053  -4.603 -25.449  1.00  0.00    -0.286 N
ATOM      3  H1  UNL     1     -50.258  -5.374 -24.814  1.00  0.00     0.188 HD
HETATM    4  N2  UNL     1     -50.989  -3.826 -25.815  1.00  0.00    -0.278 N
ATOM      5  H2  UNL     1     -51.942  -3.968 -25.480  1.00  0.00     0.189 HD
HETATM    6  C3  UNL     1     -50.703  -2.823 -26.645  1.00  0.00     0.168 A
HETATM    7  N3  UNL     1     -51.424  -1.893 -27.178  1.00  0.00    -0.304 N
ATOM      8  H3  UNL     1     -50.974  -1.220 -27.798  1.00  0.00     0.171 HD
HETATM    9  C4  UNL     1     -52.820  -1.770 -26.936  1.00  0.00     0.247 C
HETATM   10  O1  UNL     1     -53.551  -2.471 -27.683  1.00  0.00    -0.271 OA
HETATM   11  S3  UNL     1     -49.028  -3.035 -26.886  1.00  0.00    -0.026 SA
ENDROOT
BRANCH   9  12
HETATM   12  C5  UNL     1     -53.301  -0.873 -25.879  1.00  0.00     0.278 C
BRANCH  12  13
HETATM   13  O2  UNL     1     -52.279  -0.539 -25.016  1.00  0.00    -0.340 OA
BRANCH  13  14
HETATM   14  C6  UNL     1     -52.342  -0.042 -23.738  1.00  0.00     0.103 A
HETATM   15  C7  UNL     1     -52.917   1.150 -23.367  1.00  0.00     0.041 A
HETATM   16  C8  UNL     1     -52.919   1.548 -22.037  1.00  0.00     0.028 A
HETATM   17  C9  UNL     1     -52.349   0.770 -21.052  1.00  0.00     0.054 A
HETATM   18 CL1  UNL     1     -52.366   1.300 -19.360  1.00  0.00    -0.083 Cl
HETATM   19  C10 UNL     1     -51.776  -0.418 -21.420  1.00  0.00     0.069 A
HETATM   20  S2  UNL     1     -51.030  -1.455 -20.173  1.00  0.00    -0.048 SA
HETATM   21  C11 UNL     1     -51.768  -0.824 -22.732  1.00  0.00     0.155 A
BRANCH  21  22
HETATM   22  N4  UNL     1     -51.175  -2.059 -23.132  1.00  0.00    -0.111 N
HETATM   23  O3  UNL     1     -51.919  -3.054 -23.200  1.00  0.00    -0.532 OA
HETATM   24  O4  UNL     1     -49.837  -2.109 -23.423  1.00  0.00    -0.532 OA
ENDBRANCH  21  22
ENDBRANCH  13  14
ENDBRANCH  12  13
ENDBRANCH   9  12
BRANCH   1  25
HETATM   25  S1  UNL     1     -47.326  -5.373 -25.516  1.00  0.00    -0.108 SA
HETATM   26  C1  UNL     1     -46.850  -4.918 -23.807  1.00  0.00     0.097 C
ENDBRANCH   1  25
TORSDOF 5
ENDMDL