MODEL 3
REMARK VINA RESULT: -7.769872767      5.427      9.419
REMARK  6 active torsions:
REMARK  status: ('A' for Active; 'I' for Inactive)
REMARK    1  A    between atoms: N1_2  and  C1_4
REMARK    2  A    between atoms: C4_7  and  C5_8
REMARK    3  A    between atoms: N2_9  and  N3_11
REMARK    4  A    between atoms: N3_11  and  C6_13
REMARK    5  A    between atoms: C7_18  and  C8_19
REMARK    6  A    between atoms: C14_27  and  N6_28
ROOT
HETATM    1  N3  UNL     1     -52.301  -0.013 -24.917  1.00  0.00    -0.279 N
ATOM      2  H3  UNL     1     -52.922   0.564 -25.485  1.00  0.00     0.189 HD
ENDROOT
BRANCH   1   3
HETATM    3  N2  UNL     1     -52.404  -0.105 -23.498  1.00  0.00    -0.309 N
HETATM    4  C5  UNL     1     -51.750   0.828 -22.849  1.00  0.00     0.121 C
ATOM      5  H2  UNL     1     -52.941  -0.835 -23.028  1.00  0.00     0.186 HD
BRANCH   4   6
HETATM    6  C4  UNL     1     -51.747   0.872 -21.405  1.00  0.00     0.014 A
HETATM    7  C3  UNL     1     -50.683   0.231 -20.735  1.00  0.00     0.018 A
HETATM    8  C2  UNL     1     -50.573   0.202 -19.371  1.00  0.00     0.037 A
HETATM    9  C1  UNL     1     -51.524   0.813 -18.585  1.00  0.00     0.105 A
HETATM   10  C15 UNL     1     -52.553   1.433 -19.228  1.00  0.00     0.073 A
HETATM   11  C14 UNL     1     -52.688   1.477 -20.634  1.00  0.00     0.117 A
BRANCH   9  12
HETATM   12  N1  UNL     1     -51.434   0.801 -17.161  1.00  0.00    -0.116 N
HETATM   13  O1  UNL     1     -50.375   0.536 -16.587  1.00  0.00    -0.532 OA
HETATM   14  O2  UNL     1     -52.549   1.075 -16.423  1.00  0.00    -0.532 OA
ENDBRANCH   9  12
BRANCH  11  15
HETATM   15  N6  UNL     1     -53.800   2.133 -21.173  1.00  0.00    -0.115 N
HETATM   16  O3  UNL     1     -54.082   3.298 -20.734  1.00  0.00    -0.532 OA
HETATM   17  O4  UNL     1     -54.648   1.641 -22.092  1.00  0.00    -0.532 OA
ENDBRANCH  11  15
ENDBRANCH   4   6
ENDBRANCH   1   3
BRANCH   1  18
HETATM   18  C6  UNL     1     -51.325  -0.744 -25.428  1.00  0.00     0.180 A
HETATM   19  N4  UNL     1     -50.571  -0.478 -26.499  1.00  0.00    -0.278 N
HETATM   20  N5  UNL     1     -49.709  -1.323 -26.875  1.00  0.00    -0.291 N
ATOM     21  H4  UNL     1     -50.691   0.398 -27.008  1.00  0.00     0.189 HD
HETATM   22  C7  UNL     1     -49.556  -2.472 -26.201  1.00  0.00     0.102 A
ATOM     23  H5  UNL     1     -49.129  -1.131 -27.691  1.00  0.00     0.187 HD
HETATM   24  S1  UNL     1     -50.729  -2.283 -24.980  1.00  0.00    -0.031 SA
BRANCH  22  25
HETATM   25  C8  UNL     1     -48.635  -3.545 -26.527  1.00  0.00    -0.001 A
HETATM   26  C9  UNL     1     -48.196  -4.433 -25.602  1.00  0.00     0.016 A
HETATM   27  C10 UNL     1     -47.322  -5.481 -25.945  1.00  0.00     0.024 A
HETATM   28  C11 UNL     1     -46.886  -5.628 -27.243  1.00  0.00     0.034 A
HETATM   29 CL1  UNL     1     -45.832  -6.915 -27.715  1.00  0.00    -0.084 Cl
HETATM   30  C12 UNL     1     -47.331  -4.719 -28.192  1.00  0.00     0.024 A
HETATM   31  C13 UNL     1     -48.168  -3.731 -27.834  1.00  0.00     0.016 A
ENDBRANCH  22  25
ENDBRANCH   1  18
TORSDOF 6
ENDMDL