MODEL 2
REMARK VINA RESULT: -7.050537444      1.977      3.051
REMARK  8 active torsions:
REMARK  status: ('A' for Active; 'I' for Inactive)
REMARK    1  A    between atoms: C2_2  and  O1_3
REMARK    2  A    between atoms: O1_3  and  C3_4
REMARK    3  A    between atoms: C3_4  and  O3_6
REMARK    4  A    between atoms: O3_6  and  C4_7
REMARK    5  A    between atoms: C4_7  and  O4_8
REMARK    6  A    between atoms: O4_8  and  C5_9
REMARK    7  A    between atoms: C5_9  and  C6_11
REMARK    8  A    between atoms: C9_15  and  C10_16
ROOT
HETATM    1  C6  UNL     1     -51.166  -2.870 -21.113  1.00  0.00     0.140 A
HETATM    2  C7  UNL     1     -51.409  -2.163 -22.297  1.00  0.00     0.082 A
HETATM    3  N1  UNL     1     -50.966  -2.766 -23.484  1.00  0.00    -0.100 NA
HETATM    4  C8  UNL     1     -52.029  -0.948 -22.230  1.00  0.00     0.034 A
HETATM    5  C9  UNL     1     -52.309  -0.182 -23.322  1.00  0.00    -0.011 A
HETATM    6  C16 UNL     1     -52.951   1.066 -23.128  1.00  0.00     0.013 A
HETATM    7  C17 UNL     1     -53.304   1.536 -21.899  1.00  0.00     0.004 A
HETATM    8  C18 UNL     1     -53.018   0.758 -20.821  1.00  0.00     0.038 A
HETATM    9  C19 UNL     1     -52.390  -0.469 -20.964  1.00  0.00     0.092 A
HETATM   10  O6  UNL     1     -52.146  -1.157 -19.878  1.00  0.00    -0.274 OA
HETATM   11  C20 UNL     1     -51.569  -2.294 -19.928  1.00  0.00     0.306 A
HETATM   12  O7  UNL     1     -51.335  -2.960 -18.862  1.00  0.00    -0.259 OA
ENDROOT
BRANCH   1  13
HETATM   13  C5  UNL     1     -50.509  -4.156 -21.181  1.00  0.00     0.303 C
HETATM   14  O5  UNL     1     -51.187  -5.205 -21.273  1.00  0.00    -0.259 OA
BRANCH  13  15
HETATM   15  O4  UNL     1     -49.134  -4.315 -21.152  1.00  0.00    -0.291 OA
BRANCH  15  16
HETATM   16  C4  UNL     1     -48.444  -5.319 -21.870  1.00  0.00     0.360 C
BRANCH  16  17
HETATM   17  O3  UNL     1     -48.489  -5.111 -23.260  1.00  0.00    -0.272 OA
BRANCH  17  18
HETATM   18  C3  UNL     1     -47.643  -4.165 -23.800  1.00  0.00     0.408 C
HETATM   19  O2  UNL     1     -46.532  -3.945 -23.267  1.00  0.00    -0.229 OA
BRANCH  18  20
HETATM   20  O1  UNL     1     -47.972  -3.437 -24.923  1.00  0.00    -0.298 OA
BRANCH  20  21
HETATM   21  C2  UNL     1     -48.477  -4.053 -26.077  1.00  0.00     0.176 C
HETATM   22  C1  UNL     1     -48.182  -3.207 -27.279  1.00  0.00     0.034 C
ENDBRANCH  20  21
ENDBRANCH  18  20
ENDBRANCH  17  18
ENDBRANCH  16  17
ENDBRANCH  15  16
ENDBRANCH  13  15
ENDBRANCH   1  13
BRANCH   5  23
HETATM   23  C10 UNL     1     -52.031  -0.575 -24.673  1.00  0.00    -0.025 A
HETATM   24  C11 UNL     1     -50.843  -0.231 -25.266  1.00  0.00     0.015 A
HETATM   25  C12 UNL     1     -50.601  -0.515 -26.613  1.00  0.00     0.043 A
HETATM   26  C13 UNL     1     -51.567  -1.144 -27.337  1.00  0.00     0.116 A
HETATM   27  F1  UNL     1     -51.347  -1.432 -28.663  1.00  0.00    -0.206 F
HETATM   28  C14 UNL     1     -52.759  -1.494 -26.761  1.00  0.00     0.043 A
HETATM   29  C15 UNL     1     -52.984  -1.206 -25.430  1.00  0.00     0.015 A
ENDBRANCH   5  23
TORSDOF 8
ENDMDL