MODEL 3
REMARK VINA RESULT: -7.486937203      4.058      9.486
REMARK  7 active torsions:
REMARK  status: ('A' for Active; 'I' for Inactive)
REMARK    1  A    between atoms: N1_2  and  C1_4
REMARK    2  A    between atoms: C4_7  and  C5_8
REMARK    3  A    between atoms: N2_9  and  N3_11
REMARK    4  A    between atoms: C6_12  and  O3_13
REMARK    5  A    between atoms: C7_15  and  C8_16
REMARK    6  A    between atoms: N4_23  and  O4_24
REMARK    7  A    between atoms: C14_26  and  C15_27
ROOT
HETATM    1  N3  UNL     1     -49.602  -1.952 -26.027  1.00  0.00    -0.211 N
HETATM    2  C6  UNL     1     -50.778  -1.362 -26.362  1.00  0.00     0.194 A
HETATM    3  C7  UNL     1     -51.484  -0.984 -25.227  1.00  0.00     0.127 A
HETATM    4  N4  UNL     1     -50.674  -1.377 -24.228  1.00  0.00    -0.198 N
HETATM    5  C14 UNL     1     -49.536  -1.962 -24.706  1.00  0.00     0.191 A
ENDROOT
BRANCH   1   6
HETATM    6  N2  UNL     1     -48.614  -2.468 -26.891  1.00  0.00    -0.299 N
HETATM    7  C5  UNL     1     -48.790  -3.665 -27.334  1.00  0.00     0.145 C
ATOM      8  H2  UNL     1     -47.796  -1.918 -27.154  1.00  0.00     0.186 HD
BRANCH   7   9
HETATM    9  C4  UNL     1     -47.832  -4.302 -28.236  1.00  0.00     0.095 A
HETATM   10  C3  UNL     1     -46.996  -5.326 -27.873  1.00  0.00     0.043 A
HETATM   11  C2  UNL     1     -46.260  -5.645 -28.986  1.00  0.00     0.065 A
HETATM   12  C1  UNL     1     -46.670  -4.805 -29.996  1.00  0.00     0.215 A
HETATM   13  O6  UNL     1     -47.599  -4.037 -29.495  1.00  0.00    -0.287 OA
BRANCH  12  14
HETATM   14  N1  UNL     1     -46.145  -4.823 -31.310  1.00  0.00    -0.090 N
HETATM   15  O1  UNL     1     -45.377  -5.722 -31.700  1.00  0.00    -0.530 OA
HETATM   16  O2  UNL     1     -46.465  -3.841 -32.208  1.00  0.00    -0.530 OA
ENDBRANCH  12  14
ENDBRANCH   7   9
ENDBRANCH   1   6
BRANCH   2  17
HETATM   17  O3  UNL     1     -51.107  -1.220 -27.686  1.00  0.00    -0.343 OA
ATOM     18  H3  UNL     1     -50.460  -0.882 -28.294  1.00  0.00     0.219 HD
ENDBRANCH   2  17
BRANCH   5  19
HETATM   19  C15 UNL     1     -48.438  -2.502 -23.894  1.00  0.00     0.123 A
HETATM   20  C16 UNL     1     -47.658  -1.763 -23.038  1.00  0.00     0.043 A
HETATM   21  C17 UNL     1     -46.739  -2.646 -22.465  1.00  0.00     0.027 A
HETATM   22  C18 UNL     1     -47.030  -3.868 -23.020  1.00  0.00     0.142 A
HETATM   23  O5  UNL     1     -48.046  -3.750 -23.867  1.00  0.00    -0.319 OA
ENDBRANCH   5  19
BRANCH   3  24
HETATM   24  C8  UNL     1     -52.762  -0.336 -25.167  1.00  0.00    -0.002 A
HETATM   25  C9  UNL     1     -53.851  -0.733 -25.910  1.00  0.00     0.017 A
HETATM   26  C10 UNL     1     -55.094  -0.122 -25.869  1.00  0.00     0.043 A
HETATM   27  C11 UNL     1     -55.276   0.953 -25.036  1.00  0.00     0.116 A
HETATM   28  F1  UNL     1     -56.487   1.558 -24.986  1.00  0.00    -0.206 F
HETATM   29  C12 UNL     1     -54.215   1.388 -24.270  1.00  0.00     0.043 A
HETATM   30  C13 UNL     1     -52.980   0.745 -24.344  1.00  0.00     0.017 A
ENDBRANCH   3  24
BRANCH   4  31
HETATM   31  O4  UNL     1     -50.853  -1.261 -22.886  1.00  0.00    -0.281 OA
ATOM     32  H4  UNL     1     -50.261  -1.496 -22.181  1.00  0.00     0.245 HD
ENDBRANCH   4  31
TORSDOF 7
ENDMDL