MODEL 2
REMARK VINA RESULT: -6.764008419      2.420      5.655
REMARK  8 active torsions:
REMARK  status: ('A' for Active; 'I' for Inactive)
REMARK    1  A    between atoms: O1_2  and  C2_3
REMARK    2  A    between atoms: C5_8  and  C6_9
REMARK       I    between atoms: C6_9  and  N1_11
REMARK    3  A    between atoms: N1_11  and  C7_13
REMARK    4  A    between atoms: C8_16  and  C9_17
REMARK    5  A    between atoms: C10_22  and  C11_23
REMARK    6  A    between atoms: C11_23  and  S1_24
REMARK    7  A    between atoms: S1_24  and  C12_25
REMARK    8  A    between atoms: C16_36  and  O4_37
ROOT
HETATM    1  C7  UNL     1     -50.729  -2.936 -19.254  1.00  0.00     0.154 A
HETATM    2  N2  UNL     1     -51.626  -2.125 -19.840  1.00  0.00    -0.330 N
ATOM      3  H2  UNL     1     -52.278  -2.481 -20.539  1.00  0.00     0.168 HD
HETATM    4  C8  UNL     1     -51.641  -0.864 -19.488  1.00  0.00     0.134 A
HETATM    5  C14 UNL     1     -50.735  -0.459 -18.540  1.00  0.00     0.191 A
HETATM    6  F3  UNL     1     -50.559   0.807 -18.011  1.00  0.00    -0.195 F
HETATM    7  S2  UNL     1     -49.904  -1.897 -18.194  1.00  0.00    -0.021 SA
ENDROOT
BRANCH   1   8
HETATM    8  N1  UNL     1     -50.598  -4.200 -19.500  1.00  0.00    -0.303 N
HETATM    9  C6  UNL     1     -50.350  -4.743 -20.752  1.00  0.00     0.264 C
HETATM   10  O2  UNL     1     -50.276  -6.036 -20.842  1.00  0.00    -0.267 OA
ATOM     11  H1  UNL     1     -50.682  -4.845 -18.713  1.00  0.00     0.171 HD
BRANCH   9  12
HETATM   12  C5  UNL     1     -50.173  -3.952 -21.954  1.00  0.00     0.115 A
HETATM   13  C4  UNL     1     -48.942  -3.363 -22.177  1.00  0.00     0.176 A
HETATM   14  C3  UNL     1     -48.739  -2.628 -23.328  1.00  0.00     0.192 A
HETATM   15  F2  UNL     1     -47.948  -3.511 -21.269  1.00  0.00    -0.202 F
HETATM   16  C2  UNL     1     -49.724  -2.445 -24.291  1.00  0.00     0.146 A
HETATM   17  F1  UNL     1     -47.528  -2.031 -23.578  1.00  0.00    -0.200 F
HETATM   18  C16 UNL     1     -50.946  -3.040 -24.051  1.00  0.00     0.144 A
HETATM   19  C15 UNL     1     -51.170  -3.787 -22.893  1.00  0.00     0.171 A
HETATM   20  F4  UNL     1     -52.357  -4.381 -22.633  1.00  0.00    -0.202 F
BRANCH  16  21
HETATM   21  O1  UNL     1     -49.471  -1.706 -25.416  1.00  0.00    -0.350 OA
HETATM   22  C1  UNL     1     -48.900  -2.164 -26.603  1.00  0.00     0.210 C
ENDBRANCH  16  21
BRANCH  18  23
HETATM   23  O4  UNL     1     -51.983  -2.916 -24.947  1.00  0.00    -0.350 OA
HETATM   24  C17 UNL     1     -52.166  -3.937 -25.904  1.00  0.00     0.210 C
ENDBRANCH  18  23
ENDBRANCH   9  12
ENDBRANCH   1   8
BRANCH   4  25
HETATM   25  C9  UNL     1     -52.599   0.132 -20.077  1.00  0.00     0.195 A
HETATM   26  N3  UNL     1     -53.266   1.108 -19.439  1.00  0.00    -0.276 N
HETATM   27  N4  UNL     1     -54.010   1.773 -20.297  1.00  0.00    -0.281 N
ATOM     28  H3  UNL     1     -53.204   1.304 -18.440  1.00  0.00     0.189 HD
HETATM   29  C10 UNL     1     -53.818   1.219 -21.487  1.00  0.00     0.150 A
ATOM     30  H4  UNL     1     -54.619   2.564 -20.087  1.00  0.00     0.189 HD
HETATM   31  O3  UNL     1     -52.949   0.216 -21.320  1.00  0.00    -0.275 OA
BRANCH  29  32
HETATM   32  C11 UNL     1     -54.416   1.587 -22.784  1.00  0.00     0.166 C
BRANCH  32  33
HETATM   33  S1  UNL     1     -53.521   0.814 -24.121  1.00  0.00    -0.109 SA
BRANCH  33  34
HETATM   34  C12 UNL     1     -54.512   0.178 -25.412  1.00  0.00     0.036 C
HETATM   35  C13 UNL     1     -55.849   0.712 -25.739  1.00  0.00     0.076 C
HETATM   36  N5  UNL     1     -54.052  -0.809 -26.119  1.00  0.00    -0.397 N
ATOM     37  H52 UNL     1     -53.129  -1.178 -25.894  1.00  0.00     0.156 HD
ATOM     38  H51 UNL     1     -54.631  -1.181 -26.872  1.00  0.00     0.156 HD
ENDBRANCH  33  34
ENDBRANCH  32  33
ENDBRANCH  29  32
ENDBRANCH   4  25
TORSDOF 8
ENDMDL