MODEL 1
REMARK VINA RESULT: -8.177904581      0.000      0.000
REMARK  7 active torsions:
REMARK  status: ('A' for Active; 'I' for Inactive)
REMARK    1  A    between atoms: N1_1  and  N2_4
REMARK    2  A    between atoms: C1_5  and  S1_6
REMARK    3  A    between atoms: S1_6  and  C2_7
REMARK    4  A    between atoms: C2_7  and  C3_8
REMARK       I    between atoms: C3_8  and  N3_10
REMARK    5  A    between atoms: N3_10  and  C4_11
REMARK    6  A    between atoms: C10_23  and  C11_24
REMARK    7  A    between atoms: C14_28  and  N6_29
ROOT
HETATM    1  N2  UNL     1     -50.456  -3.562 -22.162  1.00  0.00    -0.221 N
HETATM    2  C1  UNL     1     -50.492  -4.332 -21.114  1.00  0.00     0.182 A
HETATM    3  N4  UNL     1     -51.381  -5.303 -21.413  1.00  0.00    -0.277 N
ATOM      4  H4  UNL     1     -51.621  -6.083 -20.803  1.00  0.00     0.189 HD
HETATM    5  N5  UNL     1     -51.909  -5.087 -22.646  1.00  0.00    -0.281 N
ATOM      6  H5  UNL     1     -52.615  -5.666 -23.101  1.00  0.00     0.188 HD
HETATM    7  C10 UNL     1     -51.368  -4.030 -23.144  1.00  0.00     0.154 A
ENDROOT
BRANCH   2   8
HETATM    8  S1  UNL     1     -49.424  -4.383 -19.708  1.00  0.00    -0.080 SA
BRANCH   8   9
HETATM    9  C2  UNL     1     -49.362  -2.939 -18.681  1.00  0.00     0.201 C
BRANCH   9  10
HETATM   10  C3  UNL     1     -50.924  -2.729 -18.202  1.00  0.00     0.301 C
HETATM   11  O1  UNL     1     -51.318  -3.497 -17.372  1.00  0.00    -0.256 OA
HETATM   12  N3  UNL     1     -51.304  -1.697 -18.910  1.00  0.00    -0.370 NA
BRANCH  12  13
HETATM   13  C4  UNL     1     -51.717  -0.609 -19.652  1.00  0.00     0.112 A
HETATM   14  C5  UNL     1     -51.982   0.423 -18.618  1.00  0.00     0.048 A
HETATM   15  C6  UNL     1     -52.638   1.541 -18.943  1.00  0.00     0.047 A
HETATM   16  C7  UNL     1     -53.089   1.740 -20.189  1.00  0.00     0.138 A
HETATM   17  F1  UNL     1     -53.855   2.921 -20.476  1.00  0.00    -0.204 F
HETATM   18  C8  UNL     1     -52.860   0.767 -21.170  1.00  0.00     0.075 A
HETATM   19 CL1  UNL     1     -53.491   1.108 -22.795  1.00  0.00    -0.081 Cl
HETATM   20  C9  UNL     1     -52.202  -0.323 -20.875  1.00  0.00     0.071 A
ENDBRANCH  12  13
ENDBRANCH   9  10
ENDBRANCH   8   9
ENDBRANCH   2   8
BRANCH   1  21
HETATM   21  N1  UNL     1     -49.743  -2.380 -22.376  1.00  0.00    -0.335 N
ATOM     22  H12 UNL     1     -50.205  -1.574 -22.797  1.00  0.00     0.177 HD
ATOM     23  H11 UNL     1     -48.786  -2.142 -22.117  1.00  0.00     0.177 HD
ENDBRANCH   1  21
BRANCH   7  24
HETATM   24  C11 UNL     1     -51.417  -3.081 -24.284  1.00  0.00     0.015 A
HETATM   25  C12 UNL     1     -50.621  -3.512 -25.387  1.00  0.00     0.042 A
HETATM   26  C13 UNL     1     -50.940  -2.988 -26.610  1.00  0.00     0.069 A
HETATM   27 CL2  UNL     1     -50.044  -3.393 -28.036  1.00  0.00    -0.082 Cl
HETATM   28  C14 UNL     1     -51.969  -2.109 -26.751  1.00  0.00     0.146 A
HETATM   29  C15 UNL     1     -52.713  -1.669 -25.631  1.00  0.00     0.069 A
HETATM   30 CL3  UNL     1     -53.942  -0.460 -25.876  1.00  0.00    -0.082 Cl
HETATM   31  C16 UNL     1     -52.423  -2.164 -24.399  1.00  0.00     0.042 A
BRANCH  28  32
HETATM   32  N6  UNL     1     -52.536  -1.883 -28.076  1.00  0.00    -0.112 N
HETATM   33  O2  UNL     1     -53.536  -2.478 -28.433  1.00  0.00    -0.532 OA
HETATM   34  O3  UNL     1     -51.852  -1.024 -28.886  1.00  0.00    -0.532 OA
ENDBRANCH  28  32
ENDBRANCH   7  24
TORSDOF 7
ENDMDL