MODEL 1
REMARK VINA RESULT: -8.630571020      0.000      0.000
REMARK  6 active torsions:
REMARK  status: ('A' for Active; 'I' for Inactive)
REMARK    1  A    between atoms: C4_7  and  C5_8
REMARK    2  A    between atoms: C12_17  and  N2_18
REMARK       I    between atoms: N2_18  and  C13_20
REMARK    3  A    between atoms: C13_20  and  C14_22
REMARK    4  A    between atoms: C14_22  and  N3_23
REMARK    5  A    between atoms: C15_28  and  C16_29
REMARK    6  A    between atoms: C19_32  and  N6_33
ROOT
HETATM    1  N2  UNL     1     -51.571   1.157 -21.392  1.00  0.00    -0.322 N
ATOM      2  H2  UNL     1     -51.081   2.047 -21.480  1.00  0.00     0.169 HD
HETATM    3  C13 UNL     1     -52.830   1.101 -20.744  1.00  0.00     0.243 C
HETATM    4  O1  UNL     1     -53.473   0.021 -20.612  1.00  0.00    -0.271 OA
ENDROOT
BRANCH   1   5
HETATM    5  C12 UNL     1     -50.993  -0.029 -21.919  1.00  0.00     0.085 A
HETATM    6  C1  UNL     1     -50.154  -0.773 -21.119  1.00  0.00     0.116 A
HETATM    7  N1  UNL     1     -49.900  -0.321 -19.797  1.00  0.00    -0.097 NA
HETATM    8  C2  UNL     1     -49.589  -1.926 -21.621  1.00  0.00     0.182 A
HETATM    9  F1  UNL     1     -48.756  -2.665 -20.829  1.00  0.00    -0.201 F
HETATM   10  C3  UNL     1     -49.886  -2.299 -22.919  1.00  0.00     0.169 A
HETATM   11  F2  UNL     1     -49.335  -3.430 -23.420  1.00  0.00    -0.202 F
HETATM   12  C4  UNL     1     -50.725  -1.567 -23.739  1.00  0.00     0.043 A
HETATM   13  C11 UNL     1     -51.286  -0.415 -23.227  1.00  0.00     0.077 A
HETATM   14 CL1  UNL     1     -52.352   0.528 -24.248  1.00  0.00    -0.081 Cl
BRANCH  12  15
HETATM   15  C5  UNL     1     -51.003  -2.012 -25.108  1.00  0.00     0.018 A
HETATM   16  C6  UNL     1     -50.179  -1.616 -26.150  1.00  0.00     0.015 A
HETATM   17  C7  UNL     1     -50.414  -2.019 -27.448  1.00  0.00     0.001 A
HETATM   18  C8  UNL     1     -51.484  -2.833 -27.751  1.00  0.00     0.003 A
HETATM   19  C9  UNL     1     -52.318  -3.239 -26.729  1.00  0.00     0.043 A
HETATM   20  C10 UNL     1     -52.068  -2.826 -25.429  1.00  0.00     0.127 A
HETATM   21  F3  UNL     1     -52.882  -3.223 -24.426  1.00  0.00    -0.205 F
ENDBRANCH  12  15
ENDBRANCH   1   5
BRANCH   3  22
HETATM   22  C14 UNL     1     -53.447   2.322 -20.189  1.00  0.00     0.274 C
BRANCH  22  23
HETATM   23  N3  UNL     1     -53.268   2.321 -18.755  1.00  0.00    -0.209 N
HETATM   24  N4  UNL     1     -53.607   3.220 -17.849  1.00  0.00    -0.224 N
HETATM   25  N5  UNL     1     -53.272   2.843 -16.639  1.00  0.00    -0.266 N
ATOM     26  H4  UNL     1     -54.072   4.101 -18.065  1.00  0.00     0.210 HD
HETATM   27  C15 UNL     1     -52.688   1.643 -16.758  1.00  0.00     0.172 A
ATOM     28  H5  UNL     1     -53.426   3.362 -15.775  1.00  0.00     0.190 HD
HETATM   29  N7  UNL     1     -52.694   1.338 -18.065  1.00  0.00    -0.264 N
ATOM     30  H7  UNL     1     -52.316   0.481 -18.468  1.00  0.00     0.190 HD
BRANCH  27  31
HETATM   31  C16 UNL     1     -52.141   0.812 -15.672  1.00  0.00     0.124 A
HETATM   32  C17 UNL     1     -50.847   0.401 -15.563  1.00  0.00     0.046 A
HETATM   33  C18 UNL     1     -50.797  -0.344 -14.406  1.00  0.00     0.066 A
HETATM   34  C19 UNL     1     -52.073  -0.356 -13.851  1.00  0.00     0.215 A
HETATM   35  O4  UNL     1     -52.820   0.353 -14.661  1.00  0.00    -0.285 OA
BRANCH  34  36
HETATM   36  N6  UNL     1     -52.489  -1.002 -12.655  1.00  0.00    -0.090 N
HETATM   37  O2  UNL     1     -51.742  -1.805 -12.083  1.00  0.00    -0.530 OA
HETATM   38  O3  UNL     1     -53.718  -0.742 -12.122  1.00  0.00    -0.530 OA
ENDBRANCH  34  36
ENDBRANCH  27  31
ENDBRANCH  22  23
ENDBRANCH   3  22
TORSDOF 6
ENDMDL