MODEL 4
REMARK VINA RESULT: -6.412338511      2.631      4.394
REMARK  7 active torsions:
REMARK  status: ('A' for Active; 'I' for Inactive)
REMARK    1  A    between atoms: C2_2  and  O1_3
REMARK    2  A    between atoms: O1_3  and  C3_4
REMARK    3  A    between atoms: C3_4  and  C4_6
REMARK    4  A    between atoms: C6_8  and  N1_9
REMARK    5  A    between atoms: N1_9  and  S1_11
REMARK    6  A    between atoms: S1_11  and  C7_14
REMARK    7  A    between atoms: C10_20  and  N3_21
ROOT
HETATM    1  N1  UNL     1     -49.906  -1.193 -23.689  1.00  0.00    -0.279 N
ATOM      2  H1  UNL     1     -49.140  -0.747 -24.194  1.00  0.00     0.179 HD
ENDROOT
BRANCH   1   3
HETATM    3  C6  UNL     1     -50.800  -0.367 -22.963  1.00  0.00     0.065 A
HETATM    4  C5  UNL     1     -51.996   0.099 -23.466  1.00  0.00     0.051 A
HETATM    5  C4  UNL     1     -52.828   0.892 -22.700  1.00  0.00     0.063 A
HETATM    6  C13 UNL     1     -52.443   1.213 -21.417  1.00  0.00     0.052 A
HETATM    7  C12 UNL     1     -51.248   0.764 -20.877  1.00  0.00     0.051 A
HETATM    8 CL3  UNL     1     -53.512   2.230 -20.443  1.00  0.00    -0.083 Cl
HETATM    9  C11 UNL     1     -50.430  -0.027 -21.656  1.00  0.00     0.063 A
HETATM   10 CL2  UNL     1     -48.908  -0.615 -21.023  1.00  0.00    -0.082 Cl
BRANCH   5  11
HETATM   11  C3  UNL     1     -54.108   1.403 -23.204  1.00  0.00     0.295 C
HETATM   12  O2  UNL     1     -55.059   1.757 -22.471  1.00  0.00    -0.259 OA
BRANCH  11  13
HETATM   13  O1  UNL     1     -54.292   1.510 -24.592  1.00  0.00    -0.318 OA
BRANCH  13  14
HETATM   14  C2  UNL     1     -55.289   0.810 -25.294  1.00  0.00     0.174 C
HETATM   15  C1  UNL     1     -54.574  -0.314 -26.050  1.00  0.00     0.034 C
ENDBRANCH  13  14
ENDBRANCH  11  13
ENDBRANCH   5  11
ENDBRANCH   1   3
BRANCH   1  16
HETATM   16  S1  UNL     1     -50.038  -2.887 -23.767  1.00  0.00     0.268 S
HETATM   17  O3  UNL     1     -49.300  -3.563 -22.670  1.00  0.00    -0.200 OA
HETATM   18  O4  UNL     1     -51.498  -3.309 -23.653  1.00  0.00    -0.200 OA
BRANCH  16  19
HETATM   19  C7  UNL     1     -49.391  -3.527 -25.304  1.00  0.00     0.143 A
HETATM   20  C8  UNL     1     -48.276  -4.333 -25.305  1.00  0.00     0.102 A
HETATM   21 CL1  UNL     1     -47.326  -4.862 -23.899  1.00  0.00    -0.074 Cl
HETATM   22  S2  UNL     1     -48.050  -4.686 -26.956  1.00  0.00    -0.059 SA
HETATM   23  C9  UNL     1     -49.357  -3.813 -27.603  1.00  0.00     0.123 A
HETATM   24  N2  UNL     1     -49.735  -3.699 -28.993  1.00  0.00    -0.092 NA
HETATM   25  C10 UNL     1     -49.947  -3.260 -26.495  1.00  0.00     0.159 A
BRANCH  25  26
HETATM   26  N3  UNL     1     -51.129  -2.431 -26.694  1.00  0.00    -0.111 N
HETATM   27  O5  UNL     1     -52.211  -3.000 -26.870  1.00  0.00    -0.532 OA
HETATM   28  O6  UNL     1     -51.057  -1.066 -26.677  1.00  0.00    -0.532 OA
ENDBRANCH  25  26
ENDBRANCH  16  19
ENDBRANCH   1  16
TORSDOF 7
ENDMDL