MODEL 2
REMARK VINA RESULT: -8.364478383      1.282      1.542
REMARK  6 active torsions:
REMARK  status: ('A' for Active; 'I' for Inactive)
REMARK    1  A    between atoms: C1_4  and  C2_5
REMARK    2  A    between atoms: C1_4  and  C7_16
REMARK    3  A    between atoms: C3_6  and  C4_8
REMARK    4  A    between atoms: N4_18  and  C9_19
REMARK    5  A    between atoms: C9_19  and  C10_20
REMARK    6  A    between atoms: N5_22  and  C12_23
ROOT
HETATM    1  C7  UNL     1     -50.376  -5.553 -22.815  1.00  0.00     0.089 A
HETATM    2  C8  UNL     1     -49.659  -4.557 -22.185  1.00  0.00     0.141 A
HETATM    3  N4  UNL     1     -49.501  -4.874 -20.874  1.00  0.00    -0.279 N
HETATM    4  N8  UNL     1     -50.111  -6.034 -20.720  1.00  0.00    -0.020 NA
HETATM    5  N9  UNL     1     -50.637  -6.456 -21.856  1.00  0.00    -0.281 N
ATOM      6  H9  UNL     1     -51.156  -7.325 -21.984  1.00  0.00     0.184 HD
ENDROOT
BRANCH   3   7
HETATM    7  C9  UNL     1     -48.801  -4.077 -19.879  1.00  0.00     0.206 C
BRANCH   7   8
HETATM    8  C10 UNL     1     -49.190  -2.663 -19.924  1.00  0.00     0.064 A
HETATM    9  C11 UNL     1     -50.434  -2.082 -19.717  1.00  0.00     0.146 A
HETATM   10  N5  UNL     1     -50.339  -0.750 -19.855  1.00  0.00    -0.250 N
HETATM   11  N6  UNL     1     -49.081  -0.500 -20.140  1.00  0.00    -0.236 N
HETATM   12  N7  UNL     1     -48.371  -1.629 -20.188  1.00  0.00    -0.287 N
ATOM     13  H6  UNL     1     -48.700   0.432 -20.303  1.00  0.00     0.209 HD
ATOM     14  H7  UNL     1     -47.373  -1.696 -20.391  1.00  0.00     0.188 HD
BRANCH  10  15
HETATM   15  C12 UNL     1     -51.390   0.198 -19.720  1.00  0.00     0.080 A
HETATM   16  C13 UNL     1     -51.614   0.852 -18.507  1.00  0.00     0.033 A
HETATM   17  C14 UNL     1     -52.637   1.769 -18.395  1.00  0.00     0.004 A
HETATM   18  C15 UNL     1     -53.471   2.078 -19.450  1.00  0.00     0.026 A
HETATM   19  C16 UNL     1     -53.260   1.441 -20.647  1.00  0.00     0.058 A
HETATM   20 CL3  UNL     1     -54.308   1.819 -22.002  1.00  0.00    -0.082 Cl
HETATM   21  C17 UNL     1     -52.235   0.524 -20.755  1.00  0.00     0.084 A
HETATM   22 CL4  UNL     1     -51.969  -0.292 -22.299  1.00  0.00    -0.080 Cl
ENDBRANCH  10  15
ENDBRANCH   7   8
ENDBRANCH   3   7
BRANCH   1  23
HETATM   23  C1  UNL     1     -50.746  -5.576 -24.216  1.00  0.00     0.057 C
HETATM   24  N1  UNL     1     -50.272  -6.501 -24.955  1.00  0.00    -0.397 N
ATOM     25  H12 UNL     1     -50.532  -6.517 -25.941  1.00  0.00     0.156 HD
ATOM     26  H11 UNL     1     -49.647  -7.202 -24.559  1.00  0.00     0.156 HD
BRANCH  23  27
HETATM   27  C2  UNL     1     -51.635  -4.579 -24.780  1.00  0.00     0.057 C
HETATM   28  C3  UNL     1     -51.266  -3.535 -25.472  1.00  0.00     0.064 C
HETATM   29 CL1  UNL     1     -49.580  -3.248 -25.784  1.00  0.00    -0.082 Cl
BRANCH  28  30
HETATM   30  C4  UNL     1     -52.243  -2.602 -25.988  1.00  0.00     0.072 A
HETATM   31  C5  UNL     1     -52.716  -2.458 -27.281  1.00  0.00     0.121 A
HETATM   32  N2  UNL     1     -53.621  -1.465 -27.326  1.00  0.00    -0.340 N
HETATM   33  C6  UNL     1     -53.723  -0.984 -26.079  1.00  0.00     0.179 A
ATOM     34  H2  UNL     1     -54.131  -1.142 -28.148  1.00  0.00     0.167 HD
HETATM   35 CL2  UNL     1     -54.796   0.334 -25.651  1.00  0.00    -0.045 Cl
HETATM   36  N3  UNL     1     -52.896  -1.665 -25.276  1.00  0.00    -0.330 N
ATOM     37  H3  UNL     1     -52.779  -1.500 -24.276  1.00  0.00     0.168 HD
ENDBRANCH  28  30
ENDBRANCH  23  27
ENDBRANCH   1  23
TORSDOF 6
ENDMDL