MODEL 3
REMARK VINA RESULT: -6.869988263      3.977      6.369
REMARK  9 active torsions:
REMARK  status: ('A' for Active; 'I' for Inactive)
REMARK    1  A    between atoms: C2_5  and  C3_6
REMARK    2  A    between atoms: C5_10  and  N4_11
REMARK    3  A    between atoms: N4_11  and  C6_13
REMARK    4  A    between atoms: C11_19  and  C12_20
REMARK    5  A    between atoms: C12_20  and  O1_21
REMARK    6  A    between atoms: O1_21  and  C13_22
REMARK    7  A    between atoms: C13_22  and  O3_24
REMARK    8  A    between atoms: O3_24  and  C14_25
REMARK    9  A    between atoms: C14_25  and  C15_26
ROOT
HETATM    1  C3  UNL     1     -51.489  -0.859 -21.404  1.00  0.00     0.058 A
HETATM    2  C4  UNL     1     -51.321  -0.132 -22.540  1.00  0.00     0.107 A
HETATM    3  N3  UNL     1     -51.358  -0.785 -23.721  1.00  0.00    -0.350 N
ATOM      4  H3  UNL     1     -51.232  -0.247 -24.579  1.00  0.00     0.166 HD
HETATM    5  C5  UNL     1     -51.551  -2.113 -23.821  1.00  0.00     0.129 A
HETATM    6  C16 UNL     1     -51.725  -2.876 -22.671  1.00  0.00     0.103 A
HETATM    7 CL2  UNL     1     -51.980  -4.615 -22.754  1.00  0.00    -0.078 Cl
HETATM    8  C17 UNL     1     -51.688  -2.214 -21.462  1.00  0.00     0.087 A
HETATM    9  N5  UNL     1     -51.862  -2.974 -20.280  1.00  0.00    -0.099 NA
ENDROOT
BRANCH   5  10
HETATM   10  N4  UNL     1     -51.585  -2.739 -24.958  1.00  0.00    -0.340 N
ATOM     11  H4  UNL     1     -52.477  -3.025 -25.362  1.00  0.00     0.167 HD
BRANCH  10  12
HETATM   12  C6  UNL     1     -50.366  -3.023 -25.635  1.00  0.00     0.043 A
HETATM   13  C7  UNL     1     -49.561  -4.009 -25.115  1.00  0.00     0.054 A
HETATM   14  C8  UNL     1     -48.369  -4.321 -25.734  1.00  0.00     0.036 A
HETATM   15 CL1  UNL     1     -47.335  -5.581 -25.077  1.00  0.00    -0.084 Cl
HETATM   16  C9  UNL     1     -48.026  -3.618 -26.871  1.00  0.00     0.024 A
HETATM   17  C10 UNL     1     -48.819  -2.629 -27.404  1.00  0.00     0.013 A
HETATM   18  C11 UNL     1     -49.999  -2.321 -26.791  1.00  0.00    -0.007 A
BRANCH  18  19
HETATM   19  C12 UNL     1     -50.924  -1.272 -27.234  1.00  0.00     0.222 C
BRANCH  19  20
HETATM   20  O1  UNL     1     -51.919  -1.634 -28.119  1.00  0.00    -0.293 OA
BRANCH  20  21
HETATM   21  C13 UNL     1     -53.284  -1.696 -27.865  1.00  0.00     0.406 C
HETATM   22  O2  UNL     1     -54.050  -1.916 -28.821  1.00  0.00    -0.229 OA
BRANCH  21  23
HETATM   23  O3  UNL     1     -53.816  -1.523 -26.608  1.00  0.00    -0.296 OA
BRANCH  23  24
HETATM   24  C14 UNL     1     -54.061  -0.301 -25.969  1.00  0.00     0.212 C
BRANCH  24  25
HETATM   25  C15 UNL     1     -55.500   0.073 -26.055  1.00  0.00     0.249 C
HETATM   26  F1  UNL     1     -55.684   1.158 -25.184  1.00  0.00    -0.253 F
ENDBRANCH  24  25
ENDBRANCH  23  24
ENDBRANCH  21  23
ENDBRANCH  20  21
ENDBRANCH  19  20
ENDBRANCH  18  19
ENDBRANCH  10  12
ENDBRANCH   5  10
BRANCH   1  27
HETATM   27  C2  UNL     1     -51.457  -0.188 -20.098  1.00  0.00     0.181 A
HETATM   28  N2  UNL     1     -50.507  -0.303 -19.140  1.00  0.00    -0.273 N
HETATM   29  N1  UNL     1     -50.812   0.450 -18.096  1.00  0.00    -0.239 N
ATOM     30  H2  UNL     1     -49.674  -0.888 -19.213  1.00  0.00     0.189 HD
HETATM   31  C1  UNL     1     -50.053   0.606 -16.862  1.00  0.00     0.183 C
HETATM   32  C18 UNL     1     -51.975   1.051 -18.405  1.00  0.00     0.388 A
HETATM   33  O4  UNL     1     -52.342   0.650 -19.615  1.00  0.00    -0.240 OA
HETATM   34  O5  UNL     1     -52.634   1.864 -17.688  1.00  0.00    -0.236 OA
ENDBRANCH   1  27
TORSDOF 9
ENDMDL