MODEL 1
REMARK VINA RESULT: -7.632674913      0.000      0.000
REMARK  6 active torsions:
REMARK  status: ('A' for Active; 'I' for Inactive)
REMARK    1  A    between atoms: N1_2  and  N3_5
REMARK       I    between atoms: N3_5  and  C3_6
REMARK    2  A    between atoms: C3_6  and  C4_8
REMARK    3  A    between atoms: N6_12  and  C5_13
REMARK    4  A    between atoms: C11_21  and  N7_22
REMARK    5  A    between atoms: N7_22  and  N8_24
REMARK    6  A    between atoms: C12_26  and  C13_27
ROOT
HETATM    1  C1  UNL     1     -55.838   0.676 -25.828  1.00  0.00     0.206 C
HETATM    2  N1  UNL     1     -54.481   0.182 -25.529  1.00  0.00    -0.162 N
HETATM    3  C2  UNL     1     -53.831   0.712 -24.361  1.00  0.00     0.211 C
HETATM    4  N2  UNL     1     -53.303   1.097 -23.409  1.00  0.00    -0.169 NA
ENDROOT
BRANCH   2   5
HETATM    5  N3  UNL     1     -53.849  -0.743 -26.247  1.00  0.00    -0.268 NA
HETATM    6  C3  UNL     1     -53.210  -1.683 -26.977  1.00  0.00     0.368 C
HETATM    7  O1  UNL     1     -53.609  -2.444 -27.836  1.00  0.00    -0.247 OA
BRANCH   6   8
HETATM    8  C4  UNL     1     -51.696  -1.763 -26.639  1.00  0.00     0.178 A
HETATM    9  N4  UNL     1     -50.691  -1.693 -27.444  1.00  0.00    -0.274 N
HETATM   10  N5  UNL     1     -49.561  -1.960 -26.815  1.00  0.00    -0.013 NA
ATOM     11  H4  UNL     1     -50.760  -1.462 -28.436  1.00  0.00     0.184 HD
HETATM   12  N6  UNL     1     -49.859  -2.213 -25.501  1.00  0.00    -0.220 N
HETATM   13  C11 UNL     1     -51.194  -2.081 -25.403  1.00  0.00     0.175 A
BRANCH  12  14
HETATM   14  C5  UNL     1     -48.853  -2.602 -24.596  1.00  0.00     0.058 A
HETATM   15  C6  UNL     1     -48.408  -1.595 -23.691  1.00  0.00     0.034 A
HETATM   16  C7  UNL     1     -47.488  -1.817 -22.714  1.00  0.00     0.046 A
HETATM   17  C8  UNL     1     -46.943  -3.079 -22.575  1.00  0.00     0.138 A
HETATM   18  F1  UNL     1     -46.026  -3.261 -21.589  1.00  0.00    -0.204 F
HETATM   19  C9  UNL     1     -47.340  -4.091 -23.435  1.00  0.00     0.074 A
HETATM   20 CL1  UNL     1     -46.661  -5.668 -23.230  1.00  0.00    -0.081 Cl
HETATM   21  C10 UNL     1     -48.292  -3.833 -24.433  1.00  0.00     0.058 A
ENDBRANCH  12  14
BRANCH  13  22
HETATM   22  N7  UNL     1     -51.942  -2.230 -24.216  1.00  0.00    -0.282 N
ATOM     23  H7  UNL     1     -52.792  -2.781 -24.334  1.00  0.00     0.188 HD
BRANCH  22  24
HETATM   24  N8  UNL     1     -51.752  -1.788 -22.961  1.00  0.00    -0.309 N
HETATM   25  C12 UNL     1     -51.854  -2.207 -21.795  1.00  0.00     0.127 C
ATOM     26  H8  UNL     1     -51.428  -0.821 -22.967  1.00  0.00     0.186 HD
BRANCH  25  27
HETATM   27  C13 UNL     1     -51.509  -1.325 -20.647  1.00  0.00     0.045 A
HETATM   28  S1  UNL     1     -49.912  -1.194 -19.945  1.00  0.00    -0.097 SA
HETATM   29  C14 UNL     1     -50.314  -0.011 -18.725  1.00  0.00     0.076 A
HETATM   30  C15 UNL     1     -51.611   0.210 -18.932  1.00  0.00     0.063 A
HETATM   31 CL2  UNL     1     -52.505   1.387 -17.899  1.00  0.00    -0.082 Cl
HETATM   32  C16 UNL     1     -52.232  -0.478 -19.934  1.00  0.00     0.074 A
HETATM   33 CL3  UNL     1     -53.999  -0.268 -20.275  1.00  0.00    -0.081 Cl
ENDBRANCH  25  27
ENDBRANCH  22  24
ENDBRANCH  13  22
ENDBRANCH   6   8
ENDBRANCH   2   5
TORSDOF 6
ENDMDL