MODEL 4
REMARK VINA RESULT: -7.734669227      3.481      5.001
REMARK  7 active torsions:
REMARK  status: ('A' for Active; 'I' for Inactive)
REMARK    1  A    between atoms: C2_2  and  O1_3
REMARK    2  A    between atoms: O1_3  and  C3_4
REMARK    3  A    between atoms: C3_4  and  C4_6
REMARK    4  A    between atoms: C5_9  and  C6_10
REMARK    5  A    between atoms: C6_10  and  S1_11
REMARK    6  A    between atoms: S1_11  and  C7_12
REMARK    7  A    between atoms: N4_19  and  C9_20
ROOT
HETATM    1  C7  UNL     1     -50.171  -4.008 -24.937  1.00  0.00     0.170 A
HETATM    2  N2  UNL     1     -49.025  -4.518 -25.366  1.00  0.00    -0.275 N
ATOM      3  H2  UNL     1     -48.673  -5.443 -25.119  1.00  0.00     0.189 HD
HETATM    4  N3  UNL     1     -48.406  -3.670 -26.153  1.00  0.00    -0.249 N
ATOM      5  H3  UNL     1     -47.508  -3.811 -26.617  1.00  0.00     0.192 HD
HETATM    6  C8  UNL     1     -49.182  -2.585 -26.226  1.00  0.00     0.348 A
HETATM    7  O3  UNL     1     -48.922  -1.544 -26.893  1.00  0.00    -0.245 OA
HETATM    8  N4  UNL     1     -50.293  -2.776 -25.470  1.00  0.00    -0.236 N
ENDROOT
BRANCH   1   9
HETATM    9  S1  UNL     1     -51.403  -4.716 -23.855  1.00  0.00    -0.084 SA
BRANCH   9  10
HETATM   10  C6  UNL     1     -50.721  -5.144 -22.249  1.00  0.00     0.167 C
BRANCH  10  11
HETATM   11  C5  UNL     1     -51.066  -4.116 -21.244  1.00  0.00     0.136 A
HETATM   12  N1  UNL     1     -51.654  -2.918 -21.451  1.00  0.00    -0.331 N
HETATM   13  C4  UNL     1     -51.791  -2.290 -20.278  1.00  0.00     0.159 A
ATOM     14  H1  UNL     1     -51.947  -2.551 -22.357  1.00  0.00     0.168 HD
HETATM   15  C15 UNL     1     -51.257  -3.164 -19.348  1.00  0.00     0.192 A
HETATM   16  O4  UNL     1     -50.843  -4.227 -19.963  1.00  0.00    -0.280 OA
HETATM   17  N5  UNL     1     -51.187  -2.911 -17.951  1.00  0.00    -0.072 NA
BRANCH  13  18
HETATM   18  C3  UNL     1     -52.363  -0.983 -19.991  1.00  0.00     0.314 C
HETATM   19  O2  UNL     1     -53.594  -0.784 -20.083  1.00  0.00    -0.257 OA
BRANCH  18  20
HETATM   20  O1  UNL     1     -51.564   0.079 -19.607  1.00  0.00    -0.317 OA
BRANCH  20  21
HETATM   21  C2  UNL     1     -51.993   1.087 -18.709  1.00  0.00     0.175 C
HETATM   22  C1  UNL     1     -51.446   0.724 -17.343  1.00  0.00     0.034 C
ENDBRANCH  20  21
ENDBRANCH  18  20
ENDBRANCH  13  18
ENDBRANCH  10  11
ENDBRANCH   9  10
ENDBRANCH   1   9
BRANCH   8  23
HETATM   23  C9  UNL     1     -51.351  -1.828 -25.309  1.00  0.00     0.108 A
HETATM   24  C10 UNL     1     -52.461  -1.801 -26.126  1.00  0.00     0.066 A
HETATM   25 CL1  UNL     1     -52.605  -2.968 -27.426  1.00  0.00    -0.082 Cl
HETATM   26  C11 UNL     1     -53.463  -0.863 -25.932  1.00  0.00     0.052 A
HETATM   27  C12 UNL     1     -53.398   0.078 -24.924  1.00  0.00     0.060 A
HETATM   28 CL2  UNL     1     -54.684   1.259 -24.697  1.00  0.00    -0.082 Cl
HETATM   29  C13 UNL     1     -52.288   0.053 -24.105  1.00  0.00     0.096 A
HETATM   30 CL3  UNL     1     -52.153   1.227 -22.804  1.00  0.00    -0.079 Cl
HETATM   31  C14 UNL     1     -51.293  -0.882 -24.300  1.00  0.00     0.168 A
HETATM   32  F1  UNL     1     -50.184  -0.924 -23.500  1.00  0.00    -0.202 F
ENDBRANCH   8  23
TORSDOF 7
ENDMDL