MODEL 2
REMARK VINA RESULT: -7.896868891      1.045      1.584
REMARK  8 active torsions:
REMARK  status: ('A' for Active; 'I' for Inactive)
REMARK    1  A    between atoms: N1_1  and  C1_4
REMARK    2  A    between atoms: C2_8  and  N3_9
REMARK    3  A    between atoms: N3_9  and  N4_11
REMARK    4  A    between atoms: C3_13  and  C4_14
REMARK    5  A    between atoms: C8_19  and  N5_20
REMARK    6  A    between atoms: N6_24  and  C10_25
REMARK    7  A    between atoms: C13_28  and  O3_29
REMARK    8  A    between atoms: O3_29  and  C14_30
ROOT
HETATM    1  C1  UNL     1     -49.342  -5.482 -24.612  1.00  0.00     0.691 A
HETATM    2  N2  UNL     1     -48.214  -6.034 -24.136  1.00  0.00    -0.157 N
ATOM      3  H2  UNL     1     -47.946  -7.017 -24.118  1.00  0.00     0.193 HD
HETATM    4  S1  UNL     1     -47.342  -4.685 -23.567  1.00  0.00     0.041 SA
HETATM    5  C2  UNL     1     -48.493  -3.480 -23.981  1.00  0.00     0.203 A
HETATM    6  N6  UNL     1     -49.476  -4.197 -24.532  1.00  0.00    -0.121 N
ENDROOT
BRANCH   5   7
HETATM    7  N3  UNL     1     -48.385  -2.197 -23.785  1.00  0.00    -0.278 N
ATOM      8  H3  UNL     1     -47.781  -1.626 -24.375  1.00  0.00     0.189 HD
BRANCH   7   9
HETATM    9  N4  UNL     1     -49.109  -1.632 -22.756  1.00  0.00    -0.309 N
HETATM   10  C3  UNL     1     -49.932  -0.662 -22.946  1.00  0.00     0.118 C
ATOM     11  H4  UNL     1     -48.988  -1.996 -21.812  1.00  0.00     0.186 HD
BRANCH  10  12
HETATM   12  C4  UNL     1     -50.663  -0.112 -21.811  1.00  0.00    -0.015 A
HETATM   13  C5  UNL     1     -50.212  -0.278 -20.518  1.00  0.00     0.036 A
HETATM   14  C6  UNL     1     -50.864   0.220 -19.415  1.00  0.00     0.037 A
HETATM   15 CL1  UNL     1     -50.283   0.004 -17.775  1.00  0.00    -0.084 Cl
HETATM   16  C7  UNL     1     -52.029   0.919 -19.640  1.00  0.00     0.059 A
HETATM   17  C8  UNL     1     -52.510   1.104 -20.914  1.00  0.00     0.105 A
HETATM   18  C9  UNL     1     -51.828   0.591 -21.991  1.00  0.00     0.049 A
BRANCH  17  19
HETATM   19  N5  UNL     1     -53.709   1.822 -21.161  1.00  0.00    -0.116 N
HETATM   20  O1  UNL     1     -54.106   2.716 -20.419  1.00  0.00    -0.532 OA
HETATM   21  O2  UNL     1     -54.446   1.493 -22.280  1.00  0.00    -0.532 OA
ENDBRANCH  17  19
ENDBRANCH  10  12
ENDBRANCH   7   9
ENDBRANCH   5   7
BRANCH   6  22
HETATM   22  C10 UNL     1     -50.641  -3.478 -25.007  1.00  0.00     0.081 A
HETATM   23  C11 UNL     1     -50.547  -2.940 -26.273  1.00  0.00     0.035 A
HETATM   24  C12 UNL     1     -51.604  -2.223 -26.842  1.00  0.00     0.039 A
HETATM   25  C13 UNL     1     -52.746  -2.077 -26.093  1.00  0.00     0.076 A
HETATM   26  C15 UNL     1     -52.824  -2.631 -24.809  1.00  0.00     0.063 A
HETATM   27  C16 UNL     1     -51.776  -3.332 -24.262  1.00  0.00     0.064 A
HETATM   28 CL2  UNL     1     -51.852  -4.025 -22.676  1.00  0.00    -0.082 Cl
BRANCH  25  29
HETATM   29  O3  UNL     1     -53.811  -1.382 -26.609  1.00  0.00    -0.290 OA
BRANCH  29  30
HETATM   30  C14 UNL     1     -54.313  -0.194 -26.053  1.00  0.00     0.505 C
HETATM   31  F1  UNL     1     -53.580   0.296 -25.000  1.00  0.00    -0.184 F
HETATM   32  F2  UNL     1     -55.658  -0.335 -25.684  1.00  0.00    -0.184 F
ENDBRANCH  29  30
ENDBRANCH  25  29
ENDBRANCH   6  22
BRANCH   1  33
HETATM   33  N1  UNL     1     -50.218  -6.299 -25.123  1.00  0.00    -0.233 N
ATOM     34  H12 UNL     1     -50.302  -6.527 -26.114  1.00  0.00     0.174 HD
ATOM     35  H11 UNL     1     -50.865  -6.739 -24.470  1.00  0.00     0.174 HD
ENDBRANCH   1  33
TORSDOF 8
ENDMDL