MODEL 3
REMARK VINA RESULT: -7.596378092      1.029      1.510
REMARK  6 active torsions:
REMARK  status: ('A' for Active; 'I' for Inactive)
REMARK       I    between atoms: C1_2  and  N1_3
REMARK    1  A    between atoms: C1_2  and  C7_14
REMARK    2  A    between atoms: N1_3  and  N2_5
REMARK    3  A    between atoms: C2_7  and  C3_8
REMARK    4  A    between atoms: C8_18  and  C9_19
REMARK       I    between atoms: C9_19  and  N4_21
REMARK    5  A    between atoms: N4_21  and  N5_23
REMARK    6  A    between atoms: C10_25  and  C11_26
ROOT
HETATM    1  C7  UNL     1     -52.867   1.276 -19.693  1.00  0.00     0.198 A
HETATM    2  N3  UNL     1     -52.885   1.565 -18.386  1.00  0.00    -0.238 N
ATOM      3  H3  UNL     1     -53.490   2.256 -17.940  1.00  0.00     0.197 HD
HETATM    4  O2  UNL     1     -52.006   0.822 -17.776  1.00  0.00    -0.212 OA
HETATM    5  C8  UNL     1     -51.394   0.044 -18.621  1.00  0.00     0.242 A
HETATM    6  N6  UNL     1     -51.932   0.323 -19.836  1.00  0.00    -0.311 N
ATOM      7  H6  UNL     1     -51.669  -0.120 -20.716  1.00  0.00     0.170 HD
ENDROOT
BRANCH   5   8
HETATM    8  C9  UNL     1     -50.359  -0.914 -18.308  1.00  0.00     0.313 C
HETATM    9  O3  UNL     1     -50.489  -1.651 -17.300  1.00  0.00    -0.262 OA
HETATM   10  N4  UNL     1     -49.178  -1.070 -19.092  1.00  0.00    -0.263 N
ATOM     11  H4  UNL     1     -49.062  -0.478 -19.915  1.00  0.00     0.190 HD
BRANCH  10  12
HETATM   12  N5  UNL     1     -48.187  -1.979 -18.795  1.00  0.00    -0.308 N
HETATM   13  C10 UNL     1     -47.958  -2.983 -19.534  1.00  0.00     0.127 C
ATOM     14  H5  UNL     1     -47.622  -1.842 -17.957  1.00  0.00     0.186 HD
BRANCH  13  15
HETATM   15  C11 UNL     1     -48.700  -3.282 -20.752  1.00  0.00     0.046 A
HETATM   16  S2  UNL     1     -50.290  -3.880 -20.890  1.00  0.00    -0.073 SA
HETATM   17  C12 UNL     1     -50.416  -3.955 -22.589  1.00  0.00     0.098 A
HETATM   18 CL1  UNL     1     -51.787  -4.485 -23.586  1.00  0.00    -0.074 Cl
HETATM   19  C13 UNL     1     -49.193  -3.504 -23.003  1.00  0.00     0.085 A
HETATM   20 CL2  UNL     1     -48.850  -3.404 -24.754  1.00  0.00    -0.080 Cl
HETATM   21  C14 UNL     1     -48.307  -3.156 -22.062  1.00  0.00     0.076 A
HETATM   22 CL3  UNL     1     -46.662  -2.546 -22.415  1.00  0.00    -0.081 Cl
ENDBRANCH  13  15
ENDBRANCH  10  12
ENDBRANCH   5   8
BRANCH   1  23
HETATM   23  C1  UNL     1     -53.666   1.843 -20.762  1.00  0.00     0.305 C
HETATM   24  O1  UNL     1     -54.076   3.041 -20.696  1.00  0.00    -0.263 OA
HETATM   25  N1  UNL     1     -54.027   1.096 -21.924  1.00  0.00    -0.264 N
ATOM     26  H1  UNL     1     -53.724   0.128 -22.035  1.00  0.00     0.190 HD
BRANCH  25  27
HETATM   27  N2  UNL     1     -54.795   1.711 -22.899  1.00  0.00    -0.308 N
HETATM   28  C2  UNL     1     -54.635   1.487 -24.130  1.00  0.00     0.129 C
ATOM     29  H2  UNL     1     -55.518   2.370 -22.609  1.00  0.00     0.186 HD
BRANCH  28  30
HETATM   30  C3  UNL     1     -53.613   0.548 -24.612  1.00  0.00     0.060 A
HETATM   31  S1  UNL     1     -51.983   0.359 -24.129  1.00  0.00    -0.098 SA
HETATM   32  C4  UNL     1     -51.526  -0.914 -25.161  1.00  0.00     0.053 A
HETATM   33  C5  UNL     1     -52.674  -1.161 -25.866  1.00  0.00     0.051 A
HETATM   34  C6  UNL     1     -53.743  -0.412 -25.585  1.00  0.00     0.135 A
HETATM   35  F1  UNL     1     -54.962  -0.571 -26.235  1.00  0.00    -0.205 F
ENDBRANCH  28  30
ENDBRANCH  25  27
ENDBRANCH   1  23
TORSDOF 6
ENDMDL