MODEL 4
REMARK VINA RESULT: -7.459526971      3.953      7.087
REMARK  7 active torsions:
REMARK  status: ('A' for Active; 'I' for Inactive)
REMARK    1  A    between atoms: C1_2  and  C2_3
REMARK       I    between atoms: C1_2  and  N4_25
REMARK    2  A    between atoms: C2_3  and  S1_4
REMARK    3  A    between atoms: S1_4  and  C3_5
REMARK    4  A    between atoms: C4_10  and  C5_11
REMARK    5  A    between atoms: C9_17  and  N3_18
REMARK    6  A    between atoms: C10_21  and  O4_22
REMARK    7  A    between atoms: N4_25  and  C11_27
ROOT
HETATM    1  C3  UNL     1     -50.168  -4.974 -20.973  1.00  0.00     0.204 A
HETATM    2  N1  UNL     1     -51.161  -5.719 -21.461  1.00  0.00    -0.272 N
ATOM      3  H1  UNL     1     -51.594  -6.509 -20.984  1.00  0.00     0.189 HD
HETATM    4  N2  UNL     1     -51.494  -5.276 -22.649  1.00  0.00    -0.277 N
ATOM      5  H2  UNL     1     -52.223  -5.662 -23.249  1.00  0.00     0.189 HD
HETATM    6  C4  UNL     1     -50.685  -4.198 -22.948  1.00  0.00     0.178 A
HETATM    7  O5  UNL     1     -49.930  -4.083 -21.907  1.00  0.00    -0.267 OA
ENDROOT
BRANCH   1   8
HETATM    8  S1  UNL     1     -49.293  -5.078 -19.425  1.00  0.00    -0.075 SA
BRANCH   8   9
HETATM    9  C2  UNL     1     -49.224  -3.523 -18.530  1.00  0.00     0.186 C
BRANCH   9  10
HETATM   10  C1  UNL     1     -50.430  -2.686 -18.893  1.00  0.00     0.232 C
HETATM   11  O1  UNL     1     -51.510  -3.075 -18.424  1.00  0.00    -0.272 OA
HETATM   12  N4  UNL     1     -50.297  -1.562 -19.702  1.00  0.00    -0.324 N
ATOM     13  H4  UNL     1     -49.348  -1.371 -20.020  1.00  0.00     0.169 HD
BRANCH  12  14
HETATM   14  C11 UNL     1     -51.273  -0.645 -20.151  1.00  0.00     0.073 A
HETATM   15  C12 UNL     1     -51.793  -0.714 -21.407  1.00  0.00     0.036 A
HETATM   16  C13 UNL     1     -52.762   0.210 -21.841  1.00  0.00     0.044 A
HETATM   17  C14 UNL     1     -53.201   1.200 -20.999  1.00  0.00     0.119 A
HETATM   18  F1  UNL     1     -54.133   2.121 -21.356  1.00  0.00    -0.206 F
HETATM   19  C15 UNL     1     -52.668   1.264 -19.728  1.00  0.00     0.086 A
HETATM   20  C16 UNL     1     -51.724   0.369 -19.296  1.00  0.00     0.145 A
HETATM   21  F2  UNL     1     -51.193   0.414 -18.058  1.00  0.00    -0.204 F
ENDBRANCH  12  14
ENDBRANCH   9  10
ENDBRANCH   8   9
ENDBRANCH   1   8
BRANCH   6  22
HETATM   22  C5  UNL     1     -50.782  -3.459 -24.206  1.00  0.00     0.054 A
HETATM   23  C6  UNL     1     -49.700  -3.402 -25.061  1.00  0.00     0.044 A
HETATM   24  C7  UNL     1     -49.762  -2.691 -26.239  1.00  0.00     0.059 A
HETATM   25 CL1  UNL     1     -48.413  -2.609 -27.325  1.00  0.00    -0.082 Cl
HETATM   26  C8  UNL     1     -50.913  -2.032 -26.565  1.00  0.00     0.091 A
HETATM   27 CL2  UNL     1     -51.049  -1.097 -28.069  1.00  0.00    -0.080 Cl
HETATM   28  C9  UNL     1     -52.006  -2.060 -25.752  1.00  0.00     0.160 A
HETATM   29  C10 UNL     1     -51.927  -2.794 -24.548  1.00  0.00     0.115 A
BRANCH  28  30
HETATM   30  N3  UNL     1     -53.200  -1.357 -26.102  1.00  0.00    -0.111 N
HETATM   31  O2  UNL     1     -53.558  -0.384 -25.415  1.00  0.00    -0.532 OA
HETATM   32  O3  UNL     1     -53.958  -1.730 -27.176  1.00  0.00    -0.532 OA
ENDBRANCH  28  30
BRANCH  29  33
HETATM   33  O4  UNL     1     -53.089  -2.751 -23.810  1.00  0.00    -0.357 OA
ATOM     34  H4  UNL     1     -53.828  -3.342 -23.897  1.00  0.00     0.217 HD
ENDBRANCH  29  33
ENDBRANCH   6  22
TORSDOF 7
ENDMDL