MODEL 5
REMARK VINA RESULT: -7.254702489      2.710      4.868
REMARK  8 active torsions:
REMARK  status: ('A' for Active; 'I' for Inactive)
REMARK    1  A    between atoms: C3_4  and  C4_5
REMARK    2  A    between atoms: C4_5  and  O2_7
REMARK    3  A    between atoms: O2_7  and  N2_8
REMARK    4  A    between atoms: C5_9  and  N3_10
REMARK    5  A    between atoms: N3_10  and  C7_12
REMARK    6  A    between atoms: C7_12  and  C8_13
REMARK    7  A    between atoms: C9_14  and  C10_15
REMARK    8  A    between atoms: C9_14  and  C15_23
ROOT
HETATM    1  N2  UNL     1     -51.296  -1.525 -22.941  1.00  0.00    -0.050 N
HETATM    2  C5  UNL     1     -51.546  -2.903 -22.856  1.00  0.00     0.707 A
HETATM    3  N4  UNL     1     -51.667  -3.433 -21.639  1.00  0.00    -0.162 N
ATOM      4  H4  UNL     1     -51.868  -4.428 -21.540  1.00  0.00     0.187 HD
HETATM    5  C16 UNL     1     -51.520  -2.635 -20.489  1.00  0.00     0.204 A
HETATM    6  N5  UNL     1     -51.681  -3.211 -19.192  1.00  0.00    -0.063 NA
HETATM    7  N6  UNL     1     -51.249  -1.410 -20.574  1.00  0.00    -0.336 N
ATOM      8  H6  UNL     1     -51.168  -0.889 -19.700  1.00  0.00     0.164 HD
HETATM    9  C17 UNL     1     -51.048  -0.700 -21.763  1.00  0.00     0.144 A
HETATM   10  C18 UNL     1     -51.685   0.656 -21.790  1.00  0.00     0.066 C
HETATM   11  C19 UNL     1     -49.510  -0.385 -21.877  1.00  0.00     0.066 C
ENDROOT
BRANCH   2  12
HETATM   12  N3  UNL     1     -51.611  -3.773 -23.933  1.00  0.00    -0.217 N
HETATM   13  C6  UNL     1     -52.910  -4.529 -24.077  1.00  0.00     0.169 C
BRANCH  12  14
HETATM   14  C7  UNL     1     -50.695  -4.122 -24.956  1.00  0.00     0.169 C
BRANCH  14  15
HETATM   15  C8  UNL     1     -49.278  -4.224 -24.486  1.00  0.00     0.007 C
HETATM   16  C9  UNL     1     -48.212  -4.687 -25.017  1.00  0.00     0.018 C
BRANCH  16  17
HETATM   17  C10 UNL     1     -47.996  -5.300 -26.346  1.00  0.00     0.029 A
HETATM   18  C11 UNL     1     -47.851  -6.670 -26.463  1.00  0.00    -0.006 A
HETATM   19  C12 UNL     1     -48.006  -7.767 -25.470  1.00  0.00     0.057 C
HETATM   20  S1  UNL     1     -47.472  -6.904 -28.110  1.00  0.00    -0.079 SA
HETATM   21  C13 UNL     1     -47.500  -5.289 -28.629  1.00  0.00     0.114 A
HETATM   22 CL1  UNL     1     -47.205  -4.634 -30.258  1.00  0.00    -0.073 Cl
HETATM   23  C14 UNL     1     -47.809  -4.599 -27.479  1.00  0.00     0.157 A
HETATM   24  F1  UNL     1     -47.816  -3.213 -27.584  1.00  0.00    -0.203 F
ENDBRANCH  16  17
BRANCH  16  25
HETATM   25  C15 UNL     1     -46.936  -4.521 -24.199  1.00  0.00     0.387 C
HETATM   26  F2  UNL     1     -46.919  -3.291 -23.580  1.00  0.00    -0.209 F
HETATM   27  F3  UNL     1     -46.884  -5.527 -23.208  1.00  0.00    -0.209 F
ENDBRANCH  16  25
ENDBRANCH  14  15
ENDBRANCH  12  14
ENDBRANCH   2  12
BRANCH   1  28
HETATM   28  O2  UNL     1     -51.305  -0.934 -24.188  1.00  0.00    -0.176 OA
BRANCH  28  29
HETATM   29  C4  UNL     1     -52.531  -0.566 -24.733  1.00  0.00     0.307 C
HETATM   30  O1  UNL     1     -53.044   0.505 -24.384  1.00  0.00    -0.258 OA
BRANCH  29  31
HETATM   31  C3  UNL     1     -53.210  -1.408 -25.692  1.00  0.00     0.105 C
HETATM   32  C2  UNL     1     -52.687  -1.695 -26.846  1.00  0.00     0.026 C
HETATM   33  C1  UNL     1     -51.369  -1.207 -27.298  1.00  0.00     0.065 C
HETATM   34  N1  UNL     1     -53.468  -2.551 -27.725  1.00  0.00    -0.107 NA
ENDBRANCH  29  31
ENDBRANCH  28  29
ENDBRANCH   1  28
TORSDOF 8
ENDMDL