MODEL 3
REMARK VINA RESULT: -8.470765702      0.674      1.438
REMARK  8 active torsions:
REMARK  status: ('A' for Active; 'I' for Inactive)
REMARK    1  A    between atoms: O1_1  and  N1_3
REMARK    2  A    between atoms: N1_3  and  C1_5
REMARK    3  A    between atoms: C2_6  and  O2_7
REMARK    4  A    between atoms: C3_11  and  C4_12
REMARK    5  A    between atoms: C10_23  and  C11_25
REMARK    6  A    between atoms: C19_35  and  C20_36
REMARK    7  A    between atoms: C20_36  and  C21_37
REMARK    8  A    between atoms: C21_37  and  O3_38
ROOT
HETATM    1  C4  UNL     1     -50.851  -0.938 -19.765  1.00  0.00    -0.006 C
HETATM    2  C5  UNL     1     -50.052  -0.134 -20.639  1.00  0.00     0.058 C
HETATM    3  C6  UNL     1     -49.631  -0.843 -21.791  1.00  0.00     0.144 C
HETATM    4  F1  UNL     1     -48.183  -1.185 -21.652  1.00  0.00    -0.204 F
HETATM    5  C7  UNL     1     -50.163  -0.890 -23.131  1.00  0.00     0.109 C
HETATM    6  N3  UNL     1     -49.387  -1.901 -23.785  1.00  0.00    -0.298 N
ATOM      7  H3  UNL     1     -48.594  -1.895 -24.426  1.00  0.00     0.187 HD
HETATM    8  N4  UNL     1     -50.231  -2.984 -23.133  1.00  0.00    -0.304 N
ATOM      9  H4  UNL     1     -49.989  -3.974 -23.152  1.00  0.00     0.186 HD
HETATM   10  C8  UNL     1     -51.391  -2.472 -22.495  1.00  0.00     0.029 C
HETATM   11  C9  UNL     1     -52.068  -1.344 -22.424  1.00  0.00     0.114 C
HETATM   12  C10 UNL     1     -51.299  -0.274 -23.461  1.00  0.00     0.182 C
HETATM   13  F2  UNL     1     -51.794   0.889 -23.140  1.00  0.00    -0.230 F
HETATM   14  C17 UNL     1     -51.455  -3.152 -21.041  1.00  0.00     0.027 C
HETATM   15  C18 UNL     1     -51.195  -2.337 -20.012  1.00  0.00     0.016 C
ENDROOT
BRANCH   1  16
HETATM   16  C3  UNL     1     -51.335  -0.281 -18.541  1.00  0.00     0.057 A
HETATM   17  N2  UNL     1     -52.216   0.797 -18.776  1.00  0.00    -0.334 N
HETATM   18  C2  UNL     1     -52.576   1.368 -17.639  1.00  0.00     0.170 A
ATOM     19  H2  UNL     1     -52.532   1.096 -19.699  1.00  0.00     0.168 HD
HETATM   20  C1  UNL     1     -51.936   0.676 -16.646  1.00  0.00     0.117 A
HETATM   21  C19 UNL     1     -51.156  -0.359 -17.208  1.00  0.00     0.049 A
BRANCH  18  22
HETATM   22  O2  UNL     1     -53.433   2.452 -17.513  1.00  0.00    -0.344 OA
ATOM     23  H2  UNL     1     -53.276   3.276 -17.068  1.00  0.00     0.219 HD
ENDBRANCH  18  22
BRANCH  20  24
HETATM   24  N1  UNL     1     -52.020   1.039 -15.285  1.00  0.00    -0.264 N
ATOM     25  H1  UNL     1     -51.181   1.357 -14.800  1.00  0.00     0.194 HD
BRANCH  24  26
HETATM   26  O1  UNL     1     -53.092   0.978 -14.668  1.00  0.00    -0.289 OA
ATOM     27  H1  UNL     1     -53.902   1.287 -15.056  1.00  0.00     0.244 HD
ENDBRANCH  24  26
ENDBRANCH  20  24
BRANCH  21  28
HETATM   28  C20 UNL     1     -50.375  -1.288 -16.396  1.00  0.00     0.210 A
HETATM   29  O4  UNL     1     -49.108  -1.744 -16.870  1.00  0.00    -0.289 OA
HETATM   30  C22 UNL     1     -49.122  -0.953 -15.728  1.00  0.00     0.303 A
HETATM   31  O5  UNL     1     -48.420  -0.408 -14.835  1.00  0.00    -0.261 OA
BRANCH  28  32
HETATM   32  C21 UNL     1     -51.118  -2.518 -15.808  1.00  0.00     0.218 C
BRANCH  32  33
HETATM   33  O3  UNL     1     -51.416  -3.541 -16.588  1.00  0.00    -0.397 OA
ATOM     34  H3  UNL     1     -52.234  -4.009 -16.463  1.00  0.00     0.209 HD
ENDBRANCH  32  33
ENDBRANCH  28  32
ENDBRANCH  21  28
ENDBRANCH   1  16
BRANCH  12  35
HETATM   35  C11 UNL     1     -51.823  -0.768 -24.800  1.00  0.00    -0.009 A
HETATM   36  C12 UNL     1     -53.143  -1.116 -24.971  1.00  0.00     0.014 A
HETATM   37  C13 UNL     1     -53.637  -1.549 -26.182  1.00  0.00     0.046 A
HETATM   38  C14 UNL     1     -52.799  -1.646 -27.279  1.00  0.00     0.154 A
HETATM   39  F3  UNL     1     -53.306  -2.077 -28.468  1.00  0.00    -0.203 F
HETATM   40  C15 UNL     1     -51.480  -1.302 -27.123  1.00  0.00     0.155 A
HETATM   41  F4  UNL     1     -50.611  -1.373 -28.146  1.00  0.00    -0.203 F
HETATM   42  C16 UNL     1     -50.987  -0.863 -25.887  1.00  0.00     0.056 A
ENDBRANCH  12  35
TORSDOF 8
ENDMDL