MODEL 2
REMARK VINA RESULT: -7.794501501      7.019     11.688
REMARK  6 active torsions:
REMARK  status: ('A' for Active; 'I' for Inactive)
REMARK    1  A    between atoms: C2_3  and  C3_4
REMARK       I    between atoms: C3_4  and  N2_6
REMARK    2  A    between atoms: N2_6  and  N3_7
REMARK    3  A    between atoms: C4_9  and  C5_10
REMARK    4  A    between atoms: C6_12  and  N4_13
REMARK    5  A    between atoms: N6_23  and  C10_24
REMARK    6  A    between atoms: C10_24  and  C11_25
ROOT
HETATM    1  N1  UNL     1     -48.469  -2.573 -21.520  1.00  0.00    -0.080 NA
HETATM    2  C1  UNL     1     -49.673  -3.242 -21.840  1.00  0.00     0.154 A
HETATM    3  C2  UNL     1     -50.232  -4.372 -21.231  1.00  0.00     0.161 A
HETATM    4  N5  UNL     1     -51.332  -4.744 -21.904  1.00  0.00    -0.324 N
ATOM      5  H5  UNL     1     -51.939  -5.534 -21.689  1.00  0.00     0.168 HD
HETATM    6  C9  UNL     1     -51.486  -3.827 -22.968  1.00  0.00     0.183 A
HETATM    7 CL2  UNL     1     -52.819  -3.916 -24.101  1.00  0.00    -0.044 Cl
HETATM    8  N6  UNL     1     -50.498  -2.966 -22.900  1.00  0.00    -0.305 N
ENDROOT
BRANCH   3   9
HETATM    9  C3  UNL     1     -49.667  -4.988 -19.987  1.00  0.00     0.365 C
HETATM   10  O1  UNL     1     -48.864  -5.978 -20.237  1.00  0.00    -0.247 OA
HETATM   11  N2  UNL     1     -50.005  -4.501 -18.795  1.00  0.00    -0.280 NA
BRANCH  11  12
HETATM   12  N3  UNL     1     -50.327  -4.035 -17.633  1.00  0.00    -0.240 N
HETATM   13  C4  UNL     1     -50.790  -3.000 -17.098  1.00  0.00     0.160 C
ATOM     14  H3  UNL     1     -50.145  -4.740 -16.918  1.00  0.00     0.201 HD
BRANCH  13  15
HETATM   15  C5  UNL     1     -50.973  -2.977 -15.664  1.00  0.00     0.117 A
HETATM   16  O2  UNL     1     -52.102  -3.105 -14.989  1.00  0.00    -0.285 OA
HETATM   17  C6  UNL     1     -51.911  -3.036 -13.708  1.00  0.00     0.217 A
HETATM   18  C7  UNL     1     -50.584  -2.851 -13.491  1.00  0.00     0.089 A
HETATM   19  C8  UNL     1     -49.966  -2.808 -14.722  1.00  0.00     0.073 A
HETATM   20 CL1  UNL     1     -48.254  -2.590 -15.041  1.00  0.00    -0.081 Cl
BRANCH  17  21
HETATM   21  N4  UNL     1     -52.917  -3.144 -12.700  1.00  0.00    -0.090 N
HETATM   22  O3  UNL     1     -53.171  -2.166 -11.983  1.00  0.00    -0.530 OA
HETATM   23  O4  UNL     1     -53.625  -4.273 -12.503  1.00  0.00    -0.530 OA
ENDBRANCH  17  21
ENDBRANCH  13  15
ENDBRANCH  11  12
ENDBRANCH   3   9
BRANCH   8  24
HETATM   24  C10 UNL     1     -50.261  -1.754 -23.668  1.00  0.00     0.173 C
BRANCH  24  25
HETATM   25  C11 UNL     1     -51.052  -0.583 -23.113  1.00  0.00    -0.018 A
HETATM   26  C12 UNL     1     -50.751  -0.026 -21.877  1.00  0.00     0.012 A
HETATM   27  C13 UNL     1     -51.605   0.896 -21.291  1.00  0.00     0.024 A
HETATM   28  C14 UNL     1     -52.759   1.282 -21.898  1.00  0.00     0.035 A
HETATM   29 CL3  UNL     1     -53.796   2.466 -21.097  1.00  0.00    -0.084 Cl
HETATM   30  C15 UNL     1     -53.078   0.755 -23.115  1.00  0.00     0.048 A
HETATM   31  C16 UNL     1     -52.224  -0.167 -23.704  1.00  0.00     0.043 A
HETATM   32 CL4  UNL     1     -52.562  -0.741 -25.351  1.00  0.00    -0.084 Cl
ENDBRANCH  24  25
ENDBRANCH   8  24
TORSDOF 6
ENDMDL