MODEL 1
REMARK VINA RESULT: -7.241988054      0.000      0.000
REMARK  7 active torsions:
REMARK  status: ('A' for Active; 'I' for Inactive)
REMARK    1  A    between atoms: C2_2  and  N1_5
REMARK    2  A    between atoms: C4_9  and  C5_10
REMARK       I    between atoms: C5_10  and  N3_12
REMARK    3  A    between atoms: N3_12  and  N4_14
REMARK    4  A    between atoms: C6_16  and  C7_17
REMARK    5  A    between atoms: C9_19  and  N5_20
REMARK    6  A    between atoms: C12_27  and  N6_28
REMARK    7  A    between atoms: C13_31  and  O6_32
ROOT
HETATM    1  N4  UNL     1     -50.745  -2.001 -23.978  1.00  0.00    -0.308 N
ATOM      2  H4  UNL     1     -51.209  -2.627 -23.320  1.00  0.00     0.186 HD
HETATM    3  C6  UNL     1     -50.618  -0.756 -23.729  1.00  0.00     0.121 C
ENDROOT
BRANCH   1   4
HETATM    4  N3  UNL     1     -50.219  -2.483 -25.207  1.00  0.00    -0.266 N
HETATM    5  C5  UNL     1     -49.076  -3.284 -25.132  1.00  0.00     0.275 C
HETATM    6  O1  UNL     1     -48.527  -3.571 -24.005  1.00  0.00    -0.266 OA
ATOM      7  H3  UNL     1     -50.655  -2.255 -26.101  1.00  0.00     0.190 HD
BRANCH   5   8
HETATM    8  C4  UNL     1     -48.446  -3.836 -26.315  1.00  0.00     0.102 A
HETATM    9  C3  UNL     1     -48.343  -3.216 -27.564  1.00  0.00     0.129 A
HETATM   10  N2  UNL     1     -47.696  -4.073 -28.345  1.00  0.00    -0.304 N
HETATM   11  N1  UNL     1     -47.387  -5.166 -27.703  1.00  0.00    -0.231 N
ATOM     12  H2  UNL     1     -47.469  -3.900 -29.324  1.00  0.00     0.186 HD
HETATM   13  C13 UNL     1     -47.842  -5.050 -26.429  1.00  0.00     0.177 A
BRANCH  11  14
HETATM   14  C2  UNL     1     -46.689  -6.319 -28.208  1.00  0.00     0.204 C
HETATM   15  C1  UNL     1     -46.280  -6.101 -29.646  1.00  0.00     0.077 C
HETATM   16 CL1  UNL     1     -45.279  -6.757 -27.192  1.00  0.00    -0.076 Cl
HETATM   17 CL2  UNL     1     -47.762  -7.764 -28.208  1.00  0.00    -0.076 Cl
ENDBRANCH  11  14
BRANCH  13  18
HETATM   18  O6  UNL     1     -47.681  -6.054 -25.448  1.00  0.00    -0.344 OA
ATOM     19  H6  UNL     1     -48.388  -6.366 -24.894  1.00  0.00     0.219 HD
ENDBRANCH  13  18
ENDBRANCH   5   8
ENDBRANCH   1   4
BRANCH   3  20
HETATM   20  C7  UNL     1     -51.144  -0.196 -22.472  1.00  0.00     0.018 A
HETATM   21  C8  UNL     1     -52.279   0.586 -22.502  1.00  0.00     0.053 A
HETATM   22  C9  UNL     1     -52.791   1.122 -21.316  1.00  0.00     0.127 A
HETATM   23  C10 UNL     1     -52.182   0.887 -20.104  1.00  0.00     0.091 A
HETATM   24 CL3  UNL     1     -52.874   1.588 -18.660  1.00  0.00    -0.080 Cl
HETATM   25  C11 UNL     1     -51.051   0.107 -20.091  1.00  0.00     0.092 A
HETATM   26 CL4  UNL     1     -50.244  -0.219 -18.576  1.00  0.00    -0.080 Cl
HETATM   27  C12 UNL     1     -50.520  -0.441 -21.264  1.00  0.00     0.138 A
BRANCH  22  28
HETATM   28  N5  UNL     1     -53.953   1.918 -21.362  1.00  0.00    -0.114 N
HETATM   29  O2  UNL     1     -54.896   1.596 -22.088  1.00  0.00    -0.532 OA
HETATM   30  O3  UNL     1     -54.030   3.045 -20.604  1.00  0.00    -0.532 OA
ENDBRANCH  22  28
BRANCH  27  31
HETATM   31  N6  UNL     1     -49.356  -1.245 -21.258  1.00  0.00    -0.113 N
HETATM   32  O4  UNL     1     -48.254  -0.717 -21.442  1.00  0.00    -0.532 OA
HETATM   33  O5  UNL     1     -49.430  -2.595 -21.052  1.00  0.00    -0.532 OA
ENDBRANCH  27  31
ENDBRANCH   3  20
TORSDOF 7
ENDMDL