MODEL 5
REMARK VINA RESULT: -7.100075179      4.642      6.941
REMARK  8 active torsions:
REMARK  status: ('A' for Active; 'I' for Inactive)
REMARK    1  A    between atoms: O1_2  and  C2_3
REMARK    2  A    between atoms: C6_9  and  O2_10
REMARK    3  A    between atoms: O2_10  and  C7_11
REMARK    4  A    between atoms: C8_14  and  C9_15
REMARK    5  A    between atoms: C10_20  and  S1_21
REMARK    6  A    between atoms: S1_21  and  C11_22
REMARK    7  A    between atoms: C12_27  and  N5_28
REMARK    8  A    between atoms: N5_28  and  N6_30
ROOT
HETATM    1  C7  UNL     1     -51.831   0.285 -21.527  1.00  0.00     0.245 A
HETATM    2  N1  UNL     1     -51.800   0.528 -20.191  1.00  0.00    -0.303 N
ATOM      3  H1  UNL     1     -51.019   0.169 -19.642  1.00  0.00     0.171 HD
HETATM    4  C8  UNL     1     -52.760   1.221 -19.577  1.00  0.00     0.177 A
HETATM    5  N4  UNL     1     -53.781   1.686 -20.316  1.00  0.00    -0.171 N
ATOM      6  H4  UNL     1     -54.522   2.218 -19.860  1.00  0.00     0.186 HD
HETATM    7  C12 UNL     1     -53.850   1.466 -21.649  1.00  0.00     0.701 A
HETATM    8  N7  UNL     1     -52.870   0.767 -22.232  1.00  0.00    -0.153 N
ATOM      9  H7  UNL     1     -52.911   0.595 -23.237  1.00  0.00     0.188 HD
ENDROOT
BRANCH   1  10
HETATM   10  O2  UNL     1     -50.825  -0.438 -22.154  1.00  0.00    -0.275 OA
BRANCH  10  11
HETATM   11  C6  UNL     1     -51.108  -1.714 -22.601  1.00  0.00     0.127 A
HETATM   12  C5  UNL     1     -51.444  -1.941 -23.925  1.00  0.00     0.091 A
HETATM   13  C4  UNL     1     -51.736  -3.180 -24.431  1.00  0.00     0.061 A
HETATM   14 CL2  UNL     1     -51.495  -0.564 -25.005  1.00  0.00    -0.079 Cl
HETATM   15  C3  UNL     1     -51.696  -4.266 -23.583  1.00  0.00     0.064 A
HETATM   16 CL1  UNL     1     -52.156  -3.430 -26.113  1.00  0.00    -0.082 Cl
HETATM   17  C2  UNL     1     -51.365  -4.085 -22.250  1.00  0.00     0.094 A
HETATM   18  C13 UNL     1     -51.076  -2.823 -21.770  1.00  0.00     0.103 A
HETATM   19 CL4  UNL     1     -50.660  -2.621 -20.081  1.00  0.00    -0.078 Cl
BRANCH  17  20
HETATM   20  O1  UNL     1     -51.324  -5.175 -21.393  1.00  0.00    -0.354 OA
HETATM   21  C1  UNL     1     -50.267  -6.100 -21.360  1.00  0.00     0.210 C
ENDBRANCH  17  20
ENDBRANCH  10  11
ENDBRANCH   1  10
BRANCH   4  22
HETATM   22  C9  UNL     1     -52.698   1.468 -18.122  1.00  0.00     0.210 A
HETATM   23  N2  UNL     1     -53.426   2.360 -17.426  1.00  0.00    -0.274 N
HETATM   24  N3  UNL     1     -53.083   2.281 -16.152  1.00  0.00    -0.272 N
ATOM     25  H2  UNL     1     -54.126   2.991 -17.815  1.00  0.00     0.189 HD
HETATM   26  C10 UNL     1     -52.131   1.334 -16.035  1.00  0.00     0.204 A
ATOM     27  H3  UNL     1     -53.471   2.839 -15.392  1.00  0.00     0.189 HD
HETATM   28  O3  UNL     1     -51.931   0.873 -17.244  1.00  0.00    -0.264 OA
BRANCH  26  29
HETATM   29  S1  UNL     1     -51.318   0.830 -14.505  1.00  0.00    -0.070 SA
BRANCH  29  30
HETATM   30  C11 UNL     1     -49.607   0.364 -14.900  1.00  0.00     0.197 C
HETATM   31 CL3  UNL     1     -48.657   1.733 -15.451  1.00  0.00    -0.119 Cl
ENDBRANCH  29  30
ENDBRANCH  26  29
ENDBRANCH   4  22
BRANCH   7  32
HETATM   32  N5  UNL     1     -54.853   1.936 -22.311  1.00  0.00    -0.138 N
ATOM     33  H5  UNL     1     -55.487   2.592 -21.856  1.00  0.00     0.205 HD
BRANCH  32  34
HETATM   34  N6  UNL     1     -55.087   1.569 -23.631  1.00  0.00    -0.331 N
ATOM     35  H62 UNL     1     -55.280   2.306 -24.310  1.00  0.00     0.177 HD
ATOM     36  H61 UNL     1     -55.067   0.591 -23.923  1.00  0.00     0.177 HD
ENDBRANCH  32  34
ENDBRANCH   7  32
TORSDOF 8
ENDMDL