MODEL 3
REMARK VINA RESULT: -7.763148171      1.862      2.581
REMARK  10 active torsions:
REMARK  status: ('A' for Active; 'I' for Inactive)
REMARK    1  A    between atoms: C1_2  and  O2_3
REMARK    2  A    between atoms: O2_3  and  C2_4
REMARK    3  A    between atoms: C2_4  and  C3_6
REMARK    4  A    between atoms: C5_8  and  C6_9
REMARK    5  A    between atoms: C6_9  and  O5_11
REMARK    6  A    between atoms: O5_11  and  C7_12
REMARK    7  A    between atoms: C11_19  and  C12_20
REMARK    8  A    between atoms: N1_21  and  O6_23
REMARK    9  A    between atoms: C14_27  and  O7_28
REMARK   10  A    between atoms: N2_30  and  C15_31
ROOT
HETATM    1  C3  UNL     1     -50.365  -3.803 -23.844  1.00  0.00     0.099 A
HETATM    2  C4  UNL     1     -50.592  -3.010 -22.803  1.00  0.00     0.113 A
HETATM    3  C5  UNL     1     -49.210  -2.147 -22.599  1.00  0.00     0.074 A
HETATM    4  C14 UNL     1     -48.702  -2.668 -23.496  1.00  0.00     0.160 A
HETATM    5  N2  UNL     1     -49.148  -3.620 -24.337  1.00  0.00    -0.289 N
ENDROOT
BRANCH   3   6
HETATM    6  C6  UNL     1     -49.709  -1.315 -21.367  1.00  0.00     0.299 C
HETATM    7  O4  UNL     1     -49.779  -1.560 -20.226  1.00  0.00    -0.259 OA
BRANCH   6   8
HETATM    8  O5  UNL     1     -50.122  -0.039 -21.796  1.00  0.00    -0.270 OA
BRANCH   8   9
HETATM    9  C7  UNL     1     -51.363   0.389 -22.037  1.00  0.00     0.143 A
HETATM   10  C8  UNL     1     -52.150   0.925 -20.985  1.00  0.00     0.193 A
HETATM   11  F1  UNL     1     -51.581   0.938 -19.738  1.00  0.00    -0.200 F
HETATM   12  C9  UNL     1     -53.416   1.384 -21.190  1.00  0.00     0.197 A
HETATM   13  F2  UNL     1     -54.093   1.923 -20.108  1.00  0.00    -0.199 F
HETATM   14  C10 UNL     1     -54.013   1.360 -22.415  1.00  0.00     0.171 A
HETATM   15  F3  UNL     1     -55.257   1.818 -22.622  1.00  0.00    -0.202 F
HETATM   16  C11 UNL     1     -53.275   0.832 -23.488  1.00  0.00     0.048 A
HETATM   17  C13 UNL     1     -51.998   0.375 -23.257  1.00  0.00     0.086 A
HETATM   18 CL1  UNL     1     -51.158  -0.279 -24.653  1.00  0.00    -0.080 Cl
BRANCH  16  19
HETATM   19  C12 UNL     1     -53.928   0.809 -24.781  1.00  0.00     0.130 C
HETATM   20  N1  UNL     1     -54.500  -0.251 -25.199  1.00  0.00    -0.280 N
ATOM     21  H1  UNL     1     -54.479  -1.074 -24.596  1.00  0.00     0.193 HD
BRANCH  20  22
HETATM   22  O6  UNL     1     -55.129  -0.355 -26.384  1.00  0.00    -0.290 OA
ATOM     23  H6  UNL     1     -54.684  -0.389 -27.223  1.00  0.00     0.244 HD
ENDBRANCH  20  22
ENDBRANCH  16  19
ENDBRANCH   8   9
ENDBRANCH   6   8
ENDBRANCH   3   6
BRANCH   4  24
HETATM   24  O7  UNL     1     -47.273  -2.223 -23.812  1.00  0.00    -0.345 OA
ATOM     25  H7  UNL     1     -46.746  -2.834 -24.312  1.00  0.00     0.219 HD
ENDBRANCH   4  24
BRANCH   1  26
HETATM   26  C2  UNL     1     -51.393  -4.727 -24.375  1.00  0.00     0.313 C
HETATM   27  O3  UNL     1     -51.284  -5.965 -24.221  1.00  0.00    -0.257 OA
BRANCH  26  28
HETATM   28  O2  UNL     1     -52.471  -4.200 -25.050  1.00  0.00    -0.247 OA
BRANCH  28  29
HETATM   29  C1  UNL     1     -52.239  -3.415 -26.201  1.00  0.00     0.406 C
HETATM   30  O1  UNL     1     -53.087  -2.513 -26.443  1.00  0.00    -0.276 OA
ENDBRANCH  28  29
ENDBRANCH  26  28
ENDBRANCH   1  26
BRANCH   5  31
HETATM   31  C15 UNL     1     -48.490  -4.211 -25.435  1.00  0.00     0.041 A
HETATM   32  C16 UNL     1     -47.755  -5.396 -25.240  1.00  0.00     0.030 A
HETATM   33  C17 UNL     1     -47.148  -5.956 -26.342  1.00  0.00     0.002 A
HETATM   34  C18 UNL     1     -47.226  -5.421 -27.593  1.00  0.00     0.000 A
HETATM   35  C19 UNL     1     -47.946  -4.250 -27.822  1.00  0.00     0.002 A
HETATM   36  C20 UNL     1     -48.568  -3.679 -26.691  1.00  0.00     0.030 A
ENDBRANCH   5  31
TORSDOF 10
ENDMDL