MODEL 1
REMARK VINA RESULT: -7.445837241      0.000      0.000
REMARK  9 active torsions:
REMARK  status: ('A' for Active; 'I' for Inactive)
REMARK    1  A    between atoms: C4_4  and  N1_5
REMARK    2  A    between atoms: C5_7  and  O1_8
REMARK    3  A    between atoms: C5_7  and  C6_10
REMARK    4  A    between atoms: C6_10  and  S1_11
REMARK    5  A    between atoms: S1_11  and  C7_12
REMARK    6  A    between atoms: C8_17  and  S2_18
REMARK    7  A    between atoms: S2_18  and  C9_19
REMARK    8  A    between atoms: C9_19  and  C10_20
REMARK    9  A    between atoms: C11_23  and  C12_24
ROOT
HETATM    1  C10 UNL     1     -51.623   0.011 -23.803  1.00  0.00     0.042 A
HETATM    2  N4  UNL     1     -52.723   0.701 -23.571  1.00  0.00    -0.352 N
ATOM      3  H4  UNL     1     -53.377   1.018 -24.286  1.00  0.00     0.166 HD
HETATM    4  C11 UNL     1     -52.855   0.924 -22.240  1.00  0.00     0.140 A
HETATM    5  C13 UNL     1     -51.738   0.368 -21.593  1.00  0.00     0.088 A
HETATM    6 CL1  UNL     1     -51.384   0.450 -19.903  1.00  0.00    -0.080 Cl
HETATM    7  C14 UNL     1     -51.006  -0.151 -22.598  1.00  0.00     0.091 A
HETATM    8  C15 UNL     1     -49.715  -0.800 -22.437  1.00  0.00     0.103 C
HETATM    9  N5  UNL     1     -48.643  -1.202 -22.300  1.00  0.00    -0.191 NA
ENDROOT
BRANCH   1  10
HETATM   10  C9  UNL     1     -51.452  -0.742 -25.096  1.00  0.00     0.141 C
BRANCH  10  11
HETATM   11  S2  UNL     1     -52.622  -2.013 -25.359  1.00  0.00    -0.079 SA
BRANCH  11  12
HETATM   12  C8  UNL     1     -52.073  -3.540 -24.552  1.00  0.00     0.204 A
HETATM   13  N3  UNL     1     -52.174  -4.812 -25.031  1.00  0.00    -0.272 N
HETATM   14  N2  UNL     1     -51.728  -5.687 -24.167  1.00  0.00    -0.272 N
ATOM     15  H3  UNL     1     -52.549  -5.052 -25.949  1.00  0.00     0.189 HD
HETATM   16  C7  UNL     1     -51.292  -4.964 -23.098  1.00  0.00     0.204 A
ATOM     17  H2  UNL     1     -51.710  -6.702 -24.272  1.00  0.00     0.189 HD
HETATM   18  O2  UNL     1     -51.532  -3.703 -23.402  1.00  0.00    -0.262 OA
BRANCH  16  19
HETATM   19  S1  UNL     1     -50.541  -5.545 -21.601  1.00  0.00    -0.077 SA
BRANCH  19  20
HETATM   20  C6  UNL     1     -48.813  -6.047 -21.964  1.00  0.00     0.167 C
BRANCH  20  21
HETATM   21  C5  UNL     1     -48.033  -4.876 -22.270  1.00  0.00     0.126 C
HETATM   22  N1  UNL     1     -47.449  -4.623 -23.459  1.00  0.00    -0.325 N
ATOM     23  H1  UNL     1     -46.454  -4.848 -23.487  1.00  0.00     0.169 HD
BRANCH  22  24
HETATM   24  C4  UNL     1     -47.905  -4.155 -24.552  1.00  0.00     0.129 A
HETATM   25  C3  UNL     1     -47.683  -4.813 -25.809  1.00  0.00     0.084 A
HETATM   26  C2  UNL     1     -48.306  -4.015 -26.761  1.00  0.00     0.076 A
HETATM   27  C1  UNL     1     -48.318  -4.414 -28.185  1.00  0.00     0.079 C
HETATM   28  O3  UNL     1     -48.831  -3.019 -26.116  1.00  0.00    -0.241 OA
HETATM   29  N6  UNL     1     -48.653  -3.069 -24.878  1.00  0.00    -0.245 N
ATOM     30  H6  UNL     1     -49.018  -2.391 -24.209  1.00  0.00     0.196 HD
ENDBRANCH  22  24
BRANCH  21  31
HETATM   31  O1  UNL     1     -47.891  -4.008 -21.272  1.00  0.00    -0.349 OA
ATOM     32  H1  UNL     1     -47.987  -4.306 -20.375  1.00  0.00     0.219 HD
ENDBRANCH  21  31
ENDBRANCH  20  21
ENDBRANCH  19  20
ENDBRANCH  16  19
ENDBRANCH  11  12
ENDBRANCH  10  11
ENDBRANCH   1  10
BRANCH   4  33
HETATM   33  C12 UNL     1     -54.081   1.350 -21.491  1.00  0.00     0.434 C
HETATM   34  F1  UNL     1     -54.527   0.421 -20.599  1.00  0.00    -0.165 F
HETATM   35  F2  UNL     1     -54.968   1.624 -22.572  1.00  0.00    -0.165 F
HETATM   36  F3  UNL     1     -53.841   2.615 -20.911  1.00  0.00    -0.165 F
ENDBRANCH   4  33
TORSDOF 9
ENDMDL