MODEL 5
REMARK VINA RESULT: -7.633813902      2.350      2.861
REMARK  7 active torsions:
REMARK  status: ('A' for Active; 'I' for Inactive)
REMARK    1  A    between atoms: C3_4  and  N2_5
REMARK    2  A    between atoms: N2_5  and  N3_7
REMARK    3  A    between atoms: C4_9  and  C5_10
REMARK    4  A    between atoms: C7_15  and  C8_16
REMARK    5  A    between atoms: C12_24  and  S3_25
REMARK    6  A    between atoms: S3_25  and  C13_26
REMARK    7  A    between atoms: C13_26  and  C14_27
REMARK       I    between atoms: C14_27  and  N4_29
ROOT
HETATM    1  N1  UNL     1     -54.481   2.225 -21.434  1.00  0.00    -0.191 NA
HETATM    2  C1  UNL     1     -53.521   1.605 -21.289  1.00  0.00     0.103 C
HETATM    3  C2  UNL     1     -52.333   0.832 -21.140  1.00  0.00     0.091 A
HETATM    4  C3  UNL     1     -51.849   0.679 -19.842  1.00  0.00     0.070 A
HETATM    5  C9  UNL     1     -50.670  -0.015 -19.599  1.00  0.00     0.034 A
HETATM    6  C10 UNL     1     -50.009  -0.538 -20.680  1.00  0.00     0.028 A
HETATM    7  C11 UNL     1     -50.500  -0.380 -21.952  1.00  0.00     0.052 A
HETATM    8 CL1  UNL     1     -49.647  -1.051 -23.311  1.00  0.00    -0.083 Cl
HETATM    9  C12 UNL     1     -51.691   0.315 -22.236  1.00  0.00     0.049 A
ENDROOT
BRANCH   4  10
HETATM   10  N2  UNL     1     -52.554   1.247 -18.746  1.00  0.00    -0.300 N
ATOM     11  H2  UNL     1     -53.190   2.027 -18.909  1.00  0.00     0.187 HD
BRANCH  10  12
HETATM   12  N3  UNL     1     -52.394   0.760 -17.467  1.00  0.00    -0.309 N
HETATM   13  C4  UNL     1     -52.206   1.408 -16.397  1.00  0.00     0.145 C
ATOM     14  H3  UNL     1     -52.432  -0.254 -17.371  1.00  0.00     0.186 HD
BRANCH  13  15
HETATM   15  C5  UNL     1     -52.054   0.686 -15.098  1.00  0.00     0.116 A
HETATM   16  O1  UNL     1     -52.995   0.561 -14.269  1.00  0.00    -0.290 OA
HETATM   17  C6  UNL     1     -52.835  -0.065 -13.160  1.00  0.00     0.185 A
HETATM   18  S1  UNL     1     -53.945  -0.332 -11.955  1.00  0.00    -0.044 SA
HETATM   19  S2  UNL     1     -51.198  -0.551 -13.243  1.00  0.00    -0.046 SA
HETATM   20  C7  UNL     1     -50.839   0.125 -14.770  1.00  0.00     0.127 A
BRANCH  20  21
HETATM   21  C8  UNL     1     -49.564   0.124 -15.569  1.00  0.00     0.426 C
HETATM   22  F1  UNL     1     -49.725  -0.806 -16.588  1.00  0.00    -0.165 F
HETATM   23  F2  UNL     1     -48.562  -0.274 -14.695  1.00  0.00    -0.165 F
HETATM   24  F3  UNL     1     -49.284   1.369 -16.048  1.00  0.00    -0.165 F
ENDBRANCH  20  21
ENDBRANCH  13  15
ENDBRANCH  10  12
ENDBRANCH   4  10
BRANCH   9  25
HETATM   25  S3  UNL     1     -52.305   0.423 -23.886  1.00  0.00    -0.093 SA
BRANCH  25  26
HETATM   26  C13 UNL     1     -52.909  -1.035 -24.646  1.00  0.00     0.124 C
BRANCH  26  27
HETATM   27  C14 UNL     1     -53.424  -1.045 -25.991  1.00  0.00     0.253 C
HETATM   28  O2  UNL     1     -54.591  -0.852 -26.344  1.00  0.00    -0.268 OA
HETATM   29  N4  UNL     1     -52.433  -1.314 -27.033  1.00  0.00    -0.300 N
HETATM   30  C15 UNL     1     -52.073  -2.533 -27.281  1.00  0.00     0.203 C
ATOM     31  H4  UNL     1     -52.026  -0.543 -27.563  1.00  0.00     0.171 HD
HETATM   32  N5  UNL     1     -52.636  -3.612 -26.549  1.00  0.00    -0.066 NA
HETATM   33  N6  UNL     1     -51.110  -2.833 -28.287  1.00  0.00    -0.066 NA
ENDBRANCH  26  27
ENDBRANCH  25  26
ENDBRANCH   9  25
TORSDOF 7
ENDMDL