MODEL 4
REMARK VINA RESULT: -7.538791003      4.188      6.393
REMARK  7 active torsions:
REMARK  status: ('A' for Active; 'I' for Inactive)
REMARK    1  A    between atoms: N1_1  and  C1_4
REMARK    2  A    between atoms: C2_10  and  N4_11
REMARK    3  A    between atoms: C3_15  and  C4_16
REMARK       I    between atoms: C4_16  and  N7_18
REMARK    4  A    between atoms: N7_18  and  N8_20
REMARK    5  A    between atoms: C6_25  and  C7_26
REMARK    6  A    between atoms: C7_26  and  S1_27
REMARK    7  A    between atoms: S1_27  and  C8_28
ROOT
HETATM    1  N4  UNL     1     -52.788  -0.893 -20.825  1.00  0.00    -0.220 N
HETATM    2  N5  UNL     1     -52.834  -1.845 -19.892  1.00  0.00    -0.013 NA
HETATM    3  N6  UNL     1     -51.831  -2.693 -20.109  1.00  0.00    -0.277 N
ATOM      4  H6  UNL     1     -51.621  -3.522 -19.555  1.00  0.00     0.184 HD
HETATM    5  C3  UNL     1     -51.128  -2.263 -21.202  1.00  0.00     0.141 A
HETATM    6  C6  UNL     1     -51.759  -1.147 -21.642  1.00  0.00     0.077 A
ENDROOT
BRANCH   1   7
HETATM    7  C2  UNL     1     -53.419   0.403 -20.757  1.00  0.00     0.193 A
HETATM    8  C1  UNL     1     -53.009   1.238 -19.677  1.00  0.00     0.169 A
HETATM    9  N2  UNL     1     -53.641   2.436 -19.857  1.00  0.00    -0.222 N
HETATM   10  O1  UNL     1     -54.349   2.326 -20.924  1.00  0.00    -0.153 OA
ATOM     11  H2  UNL     1     -53.566   3.259 -19.260  1.00  0.00     0.198 HD
HETATM   12  N3  UNL     1     -54.223   1.139 -21.459  1.00  0.00    -0.221 N
ATOM     13  H3  UNL     1     -54.691   0.834 -22.313  1.00  0.00     0.198 HD
BRANCH   8  14
HETATM   14  N1  UNL     1     -52.219   1.024 -18.695  1.00  0.00    -0.381 N
ATOM     15  H12 UNL     1     -52.024   1.569 -17.855  1.00  0.00     0.157 HD
ATOM     16  H11 UNL     1     -51.637   0.189 -18.637  1.00  0.00     0.157 HD
ENDBRANCH   8  14
ENDBRANCH   1   7
BRANCH   6  17
HETATM   17  C7  UNL     1     -51.432  -0.327 -22.890  1.00  0.00     0.141 C
BRANCH  17  18
HETATM   18  S1  UNL     1     -52.022  -1.295 -24.287  1.00  0.00    -0.122 SA
BRANCH  18  19
HETATM   19  C8  UNL     1     -50.815  -2.011 -25.320  1.00  0.00     0.022 A
HETATM   20  C9  UNL     1     -49.460  -2.073 -25.048  1.00  0.00     0.022 A
HETATM   21  C10 UNL     1     -48.590  -2.647 -25.928  1.00  0.00     0.025 A
HETATM   22  C11 UNL     1     -48.982  -3.208 -27.125  1.00  0.00     0.035 A
HETATM   23 CL3  UNL     1     -47.824  -3.894 -28.253  1.00  0.00    -0.084 Cl
HETATM   24  C12 UNL     1     -50.324  -3.181 -27.428  1.00  0.00     0.049 A
HETATM   25  C13 UNL     1     -51.237  -2.589 -26.536  1.00  0.00     0.052 A
HETATM   26 CL4  UNL     1     -52.916  -2.577 -26.922  1.00  0.00    -0.083 Cl
ENDBRANCH  18  19
ENDBRANCH  17  18
ENDBRANCH   6  17
BRANCH   5  27
HETATM   27  C4  UNL     1     -49.934  -2.913 -21.640  1.00  0.00     0.289 C
HETATM   28  O2  UNL     1     -48.809  -2.303 -21.470  1.00  0.00    -0.264 OA
HETATM   29  N7  UNL     1     -49.936  -4.217 -22.218  1.00  0.00    -0.263 N
ATOM     30  H7  UNL     1     -50.815  -4.698 -22.405  1.00  0.00     0.190 HD
BRANCH  29  31
HETATM   31  N8  UNL     1     -48.677  -4.843 -22.537  1.00  0.00    -0.277 N
HETATM   32  C5  UNL     1     -48.741  -5.557 -23.637  1.00  0.00     0.190 C
HETATM   33 CL1  UNL     1     -47.280  -6.406 -24.133  1.00  0.00    -0.050 Cl
HETATM   34 CL2  UNL     1     -50.179  -5.667 -24.589  1.00  0.00    -0.050 Cl
ATOM     35  H8  UNL     1     -47.834  -4.743 -21.972  1.00  0.00     0.189 HD
ENDBRANCH  29  31
ENDBRANCH   5  27
TORSDOF 7
ENDMDL