MODEL 3
REMARK VINA RESULT: -5.722897727      2.811      3.580
REMARK  8 active torsions:
REMARK  status: ('A' for Active; 'I' for Inactive)
REMARK    1  A    between atoms: C6_8  and  N2_9
REMARK    2  A    between atoms: N2_9  and  C7_11
REMARK    3  A    between atoms: C7_11  and  C8_12
REMARK    4  A    between atoms: C8_12  and  C9_13
REMARK    5  A    between atoms: C9_13  and  C10_14
REMARK    6  A    between atoms: C10_14  and  N3_15
REMARK    7  A    between atoms: C11_21  and  N5_22
REMARK    8  A    between atoms: N5_22  and  C12_24
ROOT
HETATM    1  C1  UNL     1     180.232  18.794  83.460  1.00  0.00     0.018 C
HETATM    2  C2  UNL     1     179.372  17.967  83.626  1.00  0.00    -0.072 C
HETATM    3  C3  UNL     1     178.361  16.945  83.850  1.00  0.00     0.084 A
HETATM    4  C4  UNL     1     178.552  16.096  84.953  1.00  0.00     0.045 A
HETATM    5  C5  UNL     1     179.740  16.276  85.826  1.00  0.00     0.070 C
HETATM    6  N1  UNL     1     177.657  15.144  85.189  1.00  0.00    -0.194 N
ATOM      7  H1  UNL     1     177.781  14.519  85.986  1.00  0.00     0.184 HD
HETATM    8  C6  UNL     1     176.578  14.998  84.378  1.00  0.00     0.679 A
HETATM    9  N4  UNL     1     176.406  15.797  83.348  1.00  0.00    -0.175 N
ATOM     10  H4  UNL     1     175.583  15.654  82.762  1.00  0.00     0.186 HD
HETATM   11  C11 UNL     1     177.285  16.828  83.009  1.00  0.00     0.141 A
ENDROOT
BRANCH  11  12
HETATM   12  N5  UNL     1     177.050  17.530  82.042  1.00  0.00    -0.355 N
ATOM     13  H5  UNL     1     177.298  16.972  81.224  1.00  0.00     0.166 HD
BRANCH  12  14
HETATM   14  C12 UNL     1     176.608  18.716  81.563  1.00  0.00     0.058 C
HETATM   15  C13 UNL     1     175.990  19.666  82.603  1.00  0.00     0.054 C
ENDBRANCH  12  14
ENDBRANCH  11  12
BRANCH   8  16
HETATM   16  N2  UNL     1     175.784  14.065  84.684  1.00  0.00    -0.226 N
ATOM     17  H2  UNL     1     176.118  13.134  84.436  1.00  0.00     0.177 HD
BRANCH  16  18
HETATM   18  C7  UNL     1     174.508  14.077  85.312  1.00  0.00     0.138 C
BRANCH  18  19
HETATM   19  C8  UNL     1     173.457  13.602  84.373  1.00  0.00     0.022 C
BRANCH  19  20
HETATM   20  C9  UNL     1     172.745  14.573  83.541  1.00  0.00     0.029 C
BRANCH  20  21
HETATM   21  C10 UNL     1     171.266  14.520  83.450  1.00  0.00     0.229 C
BRANCH  21  22
HETATM   22  N3  UNL     1     170.816  13.229  84.036  1.00  0.00    -0.079 N
ATOM     23  H33 UNL     1     169.909  12.928  83.679  1.00  0.00     0.274 HD
ATOM     24  H32 UNL     1     171.363  12.434  83.706  1.00  0.00     0.274 HD
ATOM     25  H31 UNL     1     170.829  13.322  85.051  1.00  0.00     0.274 HD
ENDBRANCH  21  22
ENDBRANCH  20  21
ENDBRANCH  19  20
ENDBRANCH  18  19
ENDBRANCH  16  18
ENDBRANCH   8  16
TORSDOF 8
ENDMDL