MODEL 1
REMARK VINA RESULT: -6.230931004      0.000      0.000
REMARK  5 active torsions:
REMARK  status: ('A' for Active; 'I' for Inactive)
REMARK       I    between atoms: C1_4  and  N2_5
REMARK       I    between atoms: C1_4  and  N4_15
REMARK    1  A    between atoms: N2_5  and  C2_7
REMARK    2  A    between atoms: C2_7  and  C3_8
REMARK    3  A    between atoms: C3_8  and  C4_9
REMARK    4  A    between atoms: C4_9  and  N3_10
REMARK    5  A    between atoms: N4_15  and  C9_17
ROOT
HETATM    1  N1  UNL     1     176.309  12.877  84.698  1.00  0.00    -0.235 N
ATOM      2  H11 UNL     1     177.218  12.890  84.236  1.00  0.00     0.174 HD
ATOM      3  H12 UNL     1     175.991  12.026  85.163  1.00  0.00     0.174 HD
HETATM    4  C1  UNL     1     175.578  13.916  84.695  1.00  0.00     0.667 C
HETATM    5  N2  UNL     1     174.316  13.898  85.337  1.00  0.00    -0.227 N
ATOM      6  H2  UNL     1     174.215  14.223  86.298  1.00  0.00     0.177 HD
HETATM    7  N4  UNL     1     176.021  15.103  84.047  1.00  0.00    -0.222 N
ATOM      8  H4  UNL     1     175.324  15.747  83.673  1.00  0.00     0.178 HD
ENDROOT
BRANCH   5   9
HETATM    9  C2  UNL     1     173.178  13.409  84.598  1.00  0.00     0.140 C
BRANCH   9  10
HETATM   10  C3  UNL     1     171.873  13.944  85.173  1.00  0.00     0.050 C
BRANCH  10  11
HETATM   11  C4  UNL     1     170.945  14.216  84.047  1.00  0.00     0.274 C
BRANCH  11  12
HETATM   12  N3  UNL     1     170.404  15.525  83.986  1.00  0.00     0.088 N
HETATM   13  C5  UNL     1     169.975  15.945  82.677  1.00  0.00     0.272 C
HETATM   14  C6  UNL     1     169.506  17.377  82.978  1.00  0.00     0.032 C
HETATM   15  C7  UNL     1     170.435  17.814  84.104  1.00  0.00     0.032 C
HETATM   16  C8  UNL     1     171.280  16.576  84.388  1.00  0.00     0.272 C
ENDBRANCH  11  12
ENDBRANCH  10  11
ENDBRANCH   9  10
ENDBRANCH   5   9
BRANCH   7  17
HETATM   17  C9  UNL     1     177.424  15.431  83.898  1.00  0.00     0.102 C
HETATM   18  C10 UNL     1     177.665  16.280  82.665  1.00  0.00     0.053 C
HETATM   19  C11 UNL     1     179.069  16.858  82.793  1.00  0.00     0.234 C
HETATM   20  N5  UNL     1     178.989  17.848  83.835  1.00  0.00    -0.075 N
HETATM   21  C12 UNL     1     178.627  17.317  85.100  1.00  0.00     0.234 C
ATOM     22  H52 UNL     1     179.862  18.371  83.902  1.00  0.00     0.277 HD
ATOM     23  H51 UNL     1     178.357  18.602  83.568  1.00  0.00     0.277 HD
HETATM   24  C13 UNL     1     178.043  15.957  85.143  1.00  0.00     0.053 C
ENDBRANCH   7  17
TORSDOF 5
ENDMDL