MODEL 1
REMARK VINA RESULT: -5.476022678      0.000      0.000
REMARK  5 active torsions:
REMARK  status: ('A' for Active; 'I' for Inactive)
REMARK    1  A    between atoms: N1_2  and  C2_5
REMARK    2  A    between atoms: C2_5  and  C3_6
REMARK    3  A    between atoms: C3_6  and  N2_7
REMARK    4  A    between atoms: N2_7  and  C4_9
REMARK    5  A    between atoms: C12_20  and  N4_21
ROOT
HETATM    1  C4  UNL     1     175.998  15.453  84.724  1.00  0.00     0.092 C
HETATM    2  C5  UNL     1     175.894  16.175  86.037  1.00  0.00     0.034 C
HETATM    3  C6  UNL     1     176.819  17.389  85.937  1.00  0.00     0.050 C
HETATM    4  C7  UNL     1     177.885  17.403  87.021  1.00  0.00     0.239 C
HETATM    5  N3  UNL     1     179.215  17.679  86.507  1.00  0.00    -0.074 N
ATOM      6  H31 UNL     1     179.888  17.749  87.269  1.00  0.00     0.277 HD
ATOM      7  H32 UNL     1     179.269  18.631  86.144  1.00  0.00     0.277 HD
HETATM    8  C8  UNL     1     179.670  16.714  85.501  1.00  0.00     0.240 C
HETATM    9  C9  UNL     1     178.484  15.871  85.230  1.00  0.00     0.061 A
HETATM   10  C10 UNL     1     177.464  15.674  84.291  1.00  0.00     0.018 A
HETATM   11  C11 UNL     1     177.711  15.298  82.852  1.00  0.00     0.020 C
HETATM   12  C12 UNL     1     177.592  17.025  84.713  1.00  0.00     0.146 A
ENDROOT
BRANCH   1  13
HETATM   13  N2  UNL     1     175.755  14.067  84.714  1.00  0.00    -0.395 N
ATOM     14  H2  UNL     1     176.504  13.432  84.435  1.00  0.00     0.159 HD
BRANCH  13  15
HETATM   15  C3  UNL     1     174.514  13.539  85.075  1.00  0.00     0.083 C
BRANCH  15  16
HETATM   16  C2  UNL     1     173.294  13.991  84.331  1.00  0.00     0.275 C
BRANCH  16  17
HETATM   17  N1  UNL     1     172.133  13.143  84.671  1.00  0.00    -0.075 N
HETATM   18  C1  UNL     1     170.922  13.914  84.351  1.00  0.00     0.267 C
ATOM     19  H12 UNL     1     172.150  12.810  85.635  1.00  0.00     0.277 HD
ATOM     20  H11 UNL     1     172.158  12.231  84.216  1.00  0.00     0.277 HD
ENDBRANCH  16  17
ENDBRANCH  15  16
ENDBRANCH  13  15
ENDBRANCH   1  13
BRANCH  12  21
HETATM   21  N4  UNL     1     178.039  18.000  83.813  1.00  0.00    -0.068 N
HETATM   22  C13 UNL     1     176.992  18.995  83.671  1.00  0.00     0.267 C
ATOM     23  H42 UNL     1     178.934  18.406  84.084  1.00  0.00     0.277 HD
ATOM     24  H41 UNL     1     178.333  17.606  82.919  1.00  0.00     0.277 HD
ENDBRANCH  12  21
TORSDOF 5
ENDMDL