MODEL 1
REMARK VINA RESULT: -6.374601401      0.000      0.000
REMARK  6 active torsions:
REMARK  status: ('A' for Active; 'I' for Inactive)
REMARK    1  A    between atoms: C3_8  and  N3_9
REMARK    2  A    between atoms: N5_15  and  C8_16
REMARK    3  A    between atoms: C9_17  and  C10_18
REMARK    4  A    between atoms: C10_18  and  C11_19
REMARK    5  A    between atoms: C11_19  and  C12_20
REMARK    6  A    between atoms: C12_20  and  N6_21
ROOT
HETATM    1  N1  UNL     1     172.174  13.094  84.289  1.00  0.00    -0.370 N
ATOM      2  H11 UNL     1     171.243  13.431  84.046  1.00  0.00     0.159 HD
ATOM      3  H12 UNL     1     172.248  12.080  84.372  1.00  0.00     0.159 HD
HETATM    4  C1  UNL     1     173.140  13.886  84.472  1.00  0.00     0.191 C
HETATM    5  N2  UNL     1     174.470  13.405  84.819  1.00  0.00    -0.358 N
ATOM      6  H2  UNL     1     174.721  12.417  84.834  1.00  0.00     0.162 HD
HETATM    7  C2  UNL     1     175.411  14.476  85.142  1.00  0.00     0.177 C
HETATM    8  C3  UNL     1     175.397  15.424  83.997  1.00  0.00     0.353 C
HETATM    9  N4  UNL     1     174.105  15.992  83.703  1.00  0.00    -0.094 NA
HETATM   10  N5  UNL     1     173.038  15.284  84.356  1.00  0.00    -0.239 N
ENDROOT
BRANCH  10  11
HETATM   11  C8  UNL     1     171.970  16.091  84.812  1.00  0.00     0.111 C
HETATM   12  C9  UNL     1     170.959  16.681  83.966  1.00  0.00    -0.008 C
BRANCH  12  13
HETATM   13  C10 UNL     1     169.876  16.044  83.232  1.00  0.00     0.030 C
BRANCH  13  14
HETATM   14  C11 UNL     1     168.963  16.840  82.388  1.00  0.00     0.031 C
BRANCH  14  15
HETATM   15  C12 UNL     1     167.598  17.176  82.787  1.00  0.00     0.230 C
BRANCH  15  16
HETATM   16  N6  UNL     1     166.678  17.175  81.632  1.00  0.00    -0.079 N
ATOM     17  H63 UNL     1     165.754  17.520  81.890  1.00  0.00     0.274 HD
ATOM     18  H62 UNL     1     166.931  17.893  80.953  1.00  0.00     0.274 HD
ATOM     19  H61 UNL     1     166.623  16.254  81.197  1.00  0.00     0.274 HD
ENDBRANCH  15  16
ENDBRANCH  14  15
ENDBRANCH  13  14
ENDBRANCH  12  13
ENDBRANCH  10  11
BRANCH   8  20
HETATM   20  N3  UNL     1     176.327  16.523  84.088  1.00  0.00     0.111 N
HETATM   21  C4  UNL     1     177.480  16.313  84.890  1.00  0.00     0.275 C
HETATM   22  C5  UNL     1     178.564  15.826  83.973  1.00  0.00     0.032 C
HETATM   23  C6  UNL     1     178.242  16.557  82.683  1.00  0.00     0.032 C
HETATM   24  C7  UNL     1     176.800  16.950  82.786  1.00  0.00     0.275 C
ENDBRANCH   8  20
TORSDOF 6
ENDMDL