MODEL 4
REMARK VINA RESULT: -5.757355636      1.930      2.644
REMARK  6 active torsions:
REMARK  status: ('A' for Active; 'I' for Inactive)
REMARK    1  A    between atoms: C3_7  and  N3_8
REMARK    2  A    between atoms: N3_8  and  C4_10
REMARK    3  A    between atoms: C4_10  and  C5_11
REMARK    4  A    between atoms: C5_11  and  C6_12
REMARK    5  A    between atoms: C6_12  and  C7_13
REMARK    6  A    between atoms: C7_13  and  N4_14
ROOT
HETATM    1  C1  UNL     1     178.382  18.826  88.319  1.00  0.00     0.147 C
HETATM    2  N1  UNL     1     177.788  17.836  87.562  1.00  0.00    -0.379 N
ATOM      3  H1  UNL     1     176.872  17.574  87.926  1.00  0.00     0.160 HD
HETATM    4  C2  UNL     1     178.091  17.188  86.552  1.00  0.00     0.139 A
HETATM    5  N2  UNL     1     177.176  16.243  86.090  1.00  0.00    -0.175 N
ATOM      6  H2  UNL     1     176.299  16.114  86.595  1.00  0.00     0.186 HD
HETATM    7  C3  UNL     1     177.415  15.505  85.007  1.00  0.00     0.679 A
HETATM    8  N5  UNL     1     178.551  15.636  84.309  1.00  0.00    -0.194 N
ATOM      9  H5  UNL     1     178.704  15.056  83.483  1.00  0.00     0.184 HD
HETATM   10  C9  UNL     1     179.483  16.512  84.677  1.00  0.00     0.047 A
HETATM   11  C10 UNL     1     180.749  16.666  83.915  1.00  0.00     0.070 C
HETATM   12  C11 UNL     1     179.233  17.291  85.817  1.00  0.00     0.111 A
HETATM   13  C12 UNL     1     180.265  18.224  86.177  1.00  0.00     0.105 C
HETATM   14  N6  UNL     1     181.123  18.972  86.439  1.00  0.00    -0.191 NA
ENDROOT
BRANCH   7  15
HETATM   15  N3  UNL     1     176.504  14.627  84.628  1.00  0.00    -0.226 N
ATOM     16  H3  UNL     1     176.775  13.653  84.491  1.00  0.00     0.177 HD
BRANCH  15  17
HETATM   17  C4  UNL     1     175.138  15.014  84.405  1.00  0.00     0.138 C
BRANCH  17  18
HETATM   18  C5  UNL     1     174.190  14.299  85.346  1.00  0.00     0.022 C
BRANCH  18  19
HETATM   19  C6  UNL     1     173.231  13.411  84.624  1.00  0.00     0.029 C
BRANCH  19  20
HETATM   20  C7  UNL     1     171.825  13.574  85.163  1.00  0.00     0.231 C
BRANCH  20  21
HETATM   21  N4  UNL     1     170.883  13.369  84.075  1.00  0.00    -0.079 N
HETATM   22  C8  UNL     1     170.870  14.553  83.231  1.00  0.00     0.266 C
ATOM     23  H42 UNL     1     171.077  12.517  83.548  1.00  0.00     0.276 HD
ATOM     24  H41 UNL     1     169.951  13.120  84.410  1.00  0.00     0.276 HD
ENDBRANCH  20  21
ENDBRANCH  19  20
ENDBRANCH  18  19
ENDBRANCH  17  18
ENDBRANCH  15  17
ENDBRANCH   7  15
TORSDOF 6
ENDMDL