MODEL 1
REMARK VINA RESULT: -6.402885477      0.000      0.000
REMARK  6 active torsions:
REMARK  status: ('A' for Active; 'I' for Inactive)
REMARK    1  A    between atoms: C2_2  and  C3_3
REMARK    2  A    between atoms: C3_3  and  C4_4
REMARK    3  A    between atoms: C7_12  and  N3_13
REMARK    4  A    between atoms: C8_15  and  C9_16
REMARK    5  A    between atoms: C9_16  and  O1_17
REMARK    6  A    between atoms: C11_21  and  N5_22
ROOT
HETATM    1  C4  UNL     1     171.501  16.075  84.815  1.00  0.00     0.225 C
HETATM    2  N1  UNL     1     171.948  17.390  84.323  1.00  0.00    -0.061 N
ATOM      3  H11 UNL     1     171.272  18.149  84.412  1.00  0.00     0.278 HD
ATOM      4  H12 UNL     1     172.038  17.477  83.310  1.00  0.00     0.278 HD
HETATM    5  C5  UNL     1     173.195  17.549  85.092  1.00  0.00     0.291 C
HETATM    6  C6  UNL     1     173.799  16.182  84.868  1.00  0.00     0.064 A
HETATM    7  N2  UNL     1     175.049  15.730  84.814  1.00  0.00    -0.193 N
ATOM      8  H2  UNL     1     175.810  16.396  84.946  1.00  0.00     0.184 HD
HETATM    9  C7  UNL     1     175.360  14.443  84.595  1.00  0.00     0.683 A
HETATM   10  N4  UNL     1     174.288  13.570  84.420  1.00  0.00    -0.176 N
ATOM     11  H4  UNL     1     174.482  12.584  84.251  1.00  0.00     0.186 HD
HETATM   12  C11 UNL     1     173.030  13.975  84.465  1.00  0.00     0.125 A
HETATM   13  C12 UNL     1     172.739  15.304  84.692  1.00  0.00     0.041 A
ENDROOT
BRANCH   9  14
HETATM   14  N3  UNL     1     176.505  14.005  84.562  1.00  0.00    -0.203 N
HETATM   15  C8  UNL     1     177.776  14.206  84.162  1.00  0.00     0.105 C
ATOM     16  H3  UNL     1     176.486  13.103  85.039  1.00  0.00     0.183 HD
BRANCH  15  17
HETATM   17  C9  UNL     1     178.287  15.571  83.796  1.00  0.00     0.212 C
BRANCH  17  18
HETATM   18  O1  UNL     1     178.148  15.914  82.486  1.00  0.00    -0.391 OA
HETATM   19  C10 UNL     1     177.399  17.048  82.237  1.00  0.00     0.201 C
ENDBRANCH  17  18
ENDBRANCH  15  17
ENDBRANCH   9  14
BRANCH  12  20
HETATM   20  N5  UNL     1     172.076  13.095  84.295  1.00  0.00    -0.385 N
ATOM     21  H52 UNL     1     171.117  13.389  84.109  1.00  0.00     0.157 HD
ATOM     22  H51 UNL     1     172.303  12.102  84.355  1.00  0.00     0.157 HD
ENDBRANCH  12  20
BRANCH   1  23
HETATM   23  C3  UNL     1     170.309  15.553  84.102  1.00  0.00     0.037 C
BRANCH  23  24
HETATM   24  C2  UNL     1     170.150  16.273  82.789  1.00  0.00    -0.002 C
HETATM   25  C1  UNL     1     168.846  16.939  82.563  1.00  0.00     0.005 C
ENDBRANCH  23  24
ENDBRANCH   1  23
TORSDOF 6
ENDMDL