MODEL 3
REMARK VINA RESULT: -6.130889888      1.222      3.734
REMARK  9 active torsions:
REMARK  status: ('A' for Active; 'I' for Inactive)
REMARK    1  A    between atoms: C2_2  and  C3_3
REMARK    2  A    between atoms: C3_3  and  C4_4
REMARK    3  A    between atoms: C4_4  and  N1_5
REMARK    4  A    between atoms: N1_5  and  C5_7
REMARK    5  A    between atoms: C6_10  and  N3_11
REMARK    6  A    between atoms: N3_11  and  C7_13
REMARK    7  A    between atoms: C9_17  and  N5_18
REMARK    8  A    between atoms: N5_18  and  N6_20
REMARK    9  A    between atoms: N6_20  and  C10_22
ROOT
HETATM    1  C5  UNL     1     173.050  14.409  83.869  1.00  0.00     0.707 A
HETATM    2  N2  UNL     1     173.398  15.646  84.326  1.00  0.00    -0.022 N
ATOM      3  H2  UNL     1     172.857  16.461  84.036  1.00  0.00     0.203 HD
HETATM    4  C6  UNL     1     174.444  15.803  85.153  1.00  0.00     0.707 A
HETATM    5  N4  UNL     1     175.119  14.695  85.500  1.00  0.00    -0.020 N
ATOM      6  H4  UNL     1     175.918  14.789  86.127  1.00  0.00     0.203 HD
HETATM    7  C9  UNL     1     174.791  13.467  85.060  1.00  0.00     0.725 A
HETATM    8  N7  UNL     1     173.742  13.309  84.231  1.00  0.00    -0.020 N
ATOM      9  H7  UNL     1     173.479  12.387  83.886  1.00  0.00     0.203 HD
ENDROOT
BRANCH   1  10
HETATM   10  N1  UNL     1     172.036  14.330  83.079  1.00  0.00    -0.225 N
ATOM     11  H1  UNL     1     172.134  13.928  82.147  1.00  0.00     0.177 HD
BRANCH  10  12
HETATM   12  C4  UNL     1     170.750  14.824  83.540  1.00  0.00     0.138 C
BRANCH  12  13
HETATM   13  C3  UNL     1     170.177  15.854  82.615  1.00  0.00     0.020 C
BRANCH  13  14
HETATM   14  C2  UNL     1     169.304  16.781  83.447  1.00  0.00    -0.003 C
HETATM   15  C1  UNL     1     168.078  17.134  82.624  1.00  0.00     0.005 C
ENDBRANCH  13  14
ENDBRANCH  12  13
ENDBRANCH  10  12
ENDBRANCH   1  10
BRANCH   4  16
HETATM   16  N3  UNL     1     174.829  16.933  85.621  1.00  0.00    -0.225 N
ATOM     17  H3  UNL     1     175.085  16.958  86.608  1.00  0.00     0.177 HD
BRANCH  16  18
HETATM   18  C7  UNL     1     174.935  18.154  84.905  1.00  0.00     0.133 C
HETATM   19  C8  UNL     1     176.142  18.034  83.967  1.00  0.00     0.027 C
ENDBRANCH  16  18
ENDBRANCH   4  16
BRANCH   7  20
HETATM   20  N5  UNL     1     175.433  12.394  85.387  1.00  0.00    -0.135 N
ATOM     21  H5  UNL     1     175.396  12.008  86.330  1.00  0.00     0.205 HD
BRANCH  20  22
HETATM   22  N6  UNL     1     176.194  11.786  84.352  1.00  0.00    -0.323 N
ATOM     23  H6  UNL     1     175.855  10.932  83.909  1.00  0.00     0.180 HD
BRANCH  22  24
HETATM   24  C10 UNL     1     177.444  12.368  83.922  1.00  0.00     0.135 C
HETATM   25  C11 UNL     1     178.278  11.274  83.272  1.00  0.00     0.028 C
ENDBRANCH  22  24
ENDBRANCH  20  22
ENDBRANCH   7  20
TORSDOF 9
ENDMDL