MODEL 5
REMARK VINA RESULT: -5.552565652      4.312      6.224
REMARK  7 active torsions:
REMARK  status: ('A' for Active; 'I' for Inactive)
REMARK       I    between atoms: C2_4  and  N2_5
REMARK       I    between atoms: C2_4  and  N4_9
REMARK    1  A    between atoms: N4_9  and  C4_11
REMARK    2  A    between atoms: C4_11  and  C5_12
REMARK    3  A    between atoms: N5_16  and  C9_17
REMARK    4  A    between atoms: C9_17  and  C10_18
REMARK    5  A    between atoms: C10_18  and  C11_19
REMARK    6  A    between atoms: C11_19  and  C12_20
REMARK    7  A    between atoms: C12_20  and  N6_21
ROOT
HETATM    1  C1  UNL     1     170.069  16.305  83.088  1.00  0.00     0.165 C
HETATM    2  N1  UNL     1     170.902  15.111  83.026  1.00  0.00    -0.230 N
ATOM      3  H1  UNL     1     170.786  14.464  82.246  1.00  0.00     0.177 HD
HETATM    4  C2  UNL     1     171.778  14.854  83.928  1.00  0.00     0.682 C
HETATM    5  N2  UNL     1     172.576  13.701  83.864  1.00  0.00    -0.126 N
ATOM      6  H2  UNL     1     172.349  13.009  83.151  1.00  0.00     0.197 HD
HETATM    7  C3  UNL     1     173.654  13.433  84.701  1.00  0.00     0.196 C
HETATM    8  N3  UNL     1     174.536  13.204  85.382  1.00  0.00    -0.171 NA
HETATM    9  N4  UNL     1     171.906  15.787  84.985  1.00  0.00    -0.224 N
ATOM     10  H4  UNL     1     171.261  15.795  85.775  1.00  0.00     0.177 HD
ENDROOT
BRANCH   9  11
HETATM   11  C4  UNL     1     172.989  16.717  84.885  1.00  0.00     0.173 C
BRANCH  11  12
HETATM   12  C5  UNL     1     172.668  18.156  85.003  1.00  0.00     0.241 C
HETATM   13  C6  UNL     1     171.756  18.598  86.072  1.00  0.00     0.039 C
HETATM   14  C7  UNL     1     172.665  19.082  87.199  1.00  0.00     0.032 C
HETATM   15  C8  UNL     1     174.059  18.769  86.735  1.00  0.00     0.273 C
HETATM   16  N5  UNL     1     173.950  18.826  85.304  1.00  0.00     0.094 N
BRANCH  16  17
HETATM   17  C9  UNL     1     173.834  20.178  84.801  1.00  0.00     0.273 C
BRANCH  17  18
HETATM   18  C10 UNL     1     174.451  20.318  83.440  1.00  0.00     0.032 C
BRANCH  18  19
HETATM   19  C11 UNL     1     175.657  19.428  83.333  1.00  0.00     0.029 C
BRANCH  19  20
HETATM   20  C12 UNL     1     176.479  19.626  82.100  1.00  0.00     0.229 C
BRANCH  20  21
HETATM   21  N6  UNL     1     176.816  18.307  81.587  1.00  0.00    -0.079 N
ATOM     22  H63 UNL     1     177.548  17.844  82.127  1.00  0.00     0.274 HD
ATOM     23  H62 UNL     1     176.081  17.617  81.743  1.00  0.00     0.274 HD
ATOM     24  H61 UNL     1     177.057  18.417  80.602  1.00  0.00     0.274 HD
ENDBRANCH  20  21
ENDBRANCH  19  20
ENDBRANCH  18  19
ENDBRANCH  17  18
ENDBRANCH  16  17
ENDBRANCH  11  12
ENDBRANCH   9  11
TORSDOF 7
ENDMDL