MODEL 4
REMARK VINA RESULT: -5.658616804      2.060      6.290
REMARK  6 active torsions:
REMARK  status: ('A' for Active; 'I' for Inactive)
REMARK    1  A    between atoms: C2_2  and  C3_3
REMARK    2  A    between atoms: C3_3  and  N1_4
REMARK       I    between atoms: N1_4  and  C4_6
REMARK       I    between atoms: C4_6  and  N4_14
REMARK    3  A    between atoms: N2_7  and  C5_9
REMARK    4  A    between atoms: N4_14  and  C7_16
REMARK    5  A    between atoms: C7_16  and  C8_17
REMARK    6  A    between atoms: C8_17  and  N5_18
ROOT
HETATM    1  N1  UNL     1     174.175  16.081  85.135  1.00  0.00    -0.226 N
ATOM      2  H1  UNL     1     173.216  16.114  85.481  1.00  0.00     0.177 HD
HETATM    3  C4  UNL     1     174.806  14.805  84.896  1.00  0.00     0.675 C
HETATM    4  N2  UNL     1     174.101  13.816  84.464  1.00  0.00    -0.182 N
ATOM      5  H2  UNL     1     174.578  12.929  84.304  1.00  0.00     0.185 HD
HETATM    6  N4  UNL     1     176.192  14.731  85.166  1.00  0.00    -0.225 N
ATOM      7  H4  UNL     1     176.480  14.828  86.140  1.00  0.00     0.177 HD
ENDROOT
BRANCH   1   8
HETATM    8  C3  UNL     1     174.892  17.314  84.889  1.00  0.00     0.137 C
BRANCH   8   9
HETATM    9  C2  UNL     1     175.082  18.038  86.208  1.00  0.00     0.016 C
HETATM   10  C1  UNL     1     176.545  18.162  86.475  1.00  0.00     0.006 C
ENDBRANCH   8   9
ENDBRANCH   1   8
BRANCH   4  11
HETATM   11  C5  UNL     1     172.728  13.871  84.197  1.00  0.00     0.087 C
HETATM   12  C6  UNL     1     171.701  13.549  85.249  1.00  0.00     0.089 C
HETATM   13  N3  UNL     1     172.276  14.201  83.035  1.00  0.00    -0.389 N
ATOM     14  H32 UNL     1     172.972  14.419  82.321  1.00  0.00     0.157 HD
ATOM     15  H31 UNL     1     171.276  14.241  82.840  1.00  0.00     0.157 HD
ENDBRANCH   4  11
BRANCH   6  16
HETATM   16  C7  UNL     1     177.237  14.531  84.190  1.00  0.00     0.157 C
BRANCH  16  17
HETATM   17  C8  UNL     1     178.360  15.472  84.466  1.00  0.00     0.137 C
BRANCH  17  18
HETATM   18  N5  UNL     1     178.319  16.696  83.754  1.00  0.00    -0.408 N
HETATM   19  C9  UNL     1     179.375  17.623  83.975  1.00  0.00     0.144 C
HETATM   20  C10 UNL     1     179.085  18.875  83.139  1.00  0.00     0.251 C
HETATM   21  N6  UNL     1     177.648  18.978  83.027  1.00  0.00    -0.072 N
HETATM   22  C11 UNL     1     177.072  17.952  82.174  1.00  0.00     0.251 C
ATOM     23  H62 UNL     1     177.210  18.975  83.948  1.00  0.00     0.277 HD
ATOM     24  H61 UNL     1     177.373  19.909  82.715  1.00  0.00     0.277 HD
HETATM   25  C12 UNL     1     177.847  16.648  82.407  1.00  0.00     0.144 C
ENDBRANCH  17  18
ENDBRANCH  16  17
ENDBRANCH   6  16
TORSDOF 6
ENDMDL