MODEL 1
REMARK VINA RESULT: -5.938256801      0.000      0.000
REMARK  8 active torsions:
REMARK  status: ('A' for Active; 'I' for Inactive)
REMARK    1  A    between atoms: C2_2  and  C3_3
REMARK    2  A    between atoms: C3_3  and  N1_4
REMARK    3  A    between atoms: N1_4  and  C4_7
REMARK    4  A    between atoms: C4_7  and  C5_8
REMARK    5  A    between atoms: C5_8  and  C6_9
REMARK    6  A    between atoms: C6_9  and  N2_10
REMARK    7  A    between atoms: N2_10  and  N3_11
REMARK    8  A    between atoms: C11_22  and  N6_23
ROOT
HETATM    1  C1  UNL     1     175.604  16.728  86.230  1.00  0.00     0.048 C
HETATM    2  C2  UNL     1     174.636  16.116  85.263  1.00  0.00     0.090 C
HETATM    3  C7  UNL     1     174.679  14.642  85.438  1.00  0.00     0.045 C
HETATM    4  C8  UNL     1     173.360  13.956  85.408  1.00  0.00     0.050 C
HETATM    5  C9  UNL     1     172.279  14.751  84.834  1.00  0.00     0.039 A
HETATM    6  C10 UNL     1     172.267  16.150  84.930  1.00  0.00     0.168 A
HETATM    7  N4  UNL     1     171.141  16.578  84.315  1.00  0.00    -0.278 N
ATOM      8  H4  UNL     1     170.852  17.552  84.221  1.00  0.00     0.189 HD
HETATM    9  N5  UNL     1     170.479  15.536  83.858  1.00  0.00    -0.283 N
ATOM     10  H5  UNL     1     169.593  15.581  83.354  1.00  0.00     0.188 HD
HETATM   11  C11 UNL     1     171.145  14.396  84.157  1.00  0.00     0.124 A
HETATM   12  O1  UNL     1     173.357  16.706  85.596  1.00  0.00    -0.322 OA
ENDROOT
BRANCH   2  13
HETATM   13  C3  UNL     1     174.903  16.460  83.838  1.00  0.00     0.270 C
BRANCH  13  14
HETATM   14  N1  UNL     1     175.971  15.770  83.216  1.00  0.00    -0.072 N
ATOM     15  H12 UNL     1     176.319  15.012  83.803  1.00  0.00     0.277 HD
ATOM     16  H11 UNL     1     175.648  15.216  82.423  1.00  0.00     0.277 HD
BRANCH  14  17
HETATM   17  C4  UNL     1     177.035  16.679  82.834  1.00  0.00     0.238 C
BRANCH  17  18
HETATM   18  C5  UNL     1     178.396  16.036  83.134  1.00  0.00     0.089 C
BRANCH  18  19
HETATM   19  C6  UNL     1     178.161  14.962  84.157  1.00  0.00     0.182 C
BRANCH  19  20
HETATM   20  N2  UNL     1     178.028  13.786  83.738  1.00  0.00    -0.350 NA
BRANCH  20  21
HETATM   21  N3  UNL     1     177.658  12.606  83.500  1.00  0.00    -0.281 N
ATOM     22  H32 UNL     1     178.531  12.220  83.860  1.00  0.00     0.191 HD
ATOM     23  H31 UNL     1     177.157  11.760  83.226  1.00  0.00     0.191 HD
ENDBRANCH  20  21
ENDBRANCH  19  20
ENDBRANCH  18  19
ENDBRANCH  17  18
ENDBRANCH  14  17
ENDBRANCH  13  14
ENDBRANCH   2  13
BRANCH  11  24
HETATM   24  N6  UNL     1     170.721  13.201  83.826  1.00  0.00    -0.384 N
ATOM     25  H62 UNL     1     170.971  12.736  82.954  1.00  0.00     0.157 HD
ATOM     26  H61 UNL     1     170.110  12.571  84.345  1.00  0.00     0.157 HD
ENDBRANCH  11  24
TORSDOF 8
ENDMDL