MODEL 3
REMARK VINA RESULT: -7.395735162      3.984      5.585
REMARK  4 active torsions:
REMARK  status: ('A' for Active; 'I' for Inactive)
REMARK    1  A    between atoms: C4_9  and  N3_10
REMARK    2  A    between atoms: N3_10  and  S1_12
REMARK    3  A    between atoms: S1_12  and  N4_15
REMARK    4  A    between atoms: N4_15  and  C5_17
ROOT
HETATM    1  N3  UNL     1      10.275  14.835  50.565  1.00  0.00    -0.291 N
ATOM      2  H3  UNL     1      10.699  14.761  49.640  1.00  0.00     0.174 HD
ENDROOT
BRANCH   1   3
HETATM    3  C4  UNL     1       9.118  14.088  50.929  1.00  0.00     0.161 C
HETATM    4  C3  UNL     1       9.129  12.811  50.186  1.00  0.00     0.098 C
HETATM    5  N1  UNL     1       8.528  12.709  48.920  1.00  0.00    -0.352 N
HETATM    6  N2  UNL     1       9.694  11.782  50.704  1.00  0.00    -0.387 N
HETATM    7  C2  UNL     1       7.944  13.690  48.317  1.00  0.00    -0.016 C
ATOM      8  H1  UNL     1       8.554  11.804  48.449  1.00  0.00     0.166 HD
HETATM    9  C1  UNL     1       7.347  13.456  46.982  1.00  0.00     0.063 C
HETATM   10  C12 UNL     1       7.884  15.030  48.974  1.00  0.00     0.054 C
HETATM   11  C11 UNL     1       7.858  14.837  50.473  1.00  0.00     0.039 C
ATOM     12  H22 UNL     1       9.701  10.900  50.191  1.00  0.00     0.157 HD
ATOM     13  H21 UNL     1      10.130  11.856  51.623  1.00  0.00     0.157 HD
ENDBRANCH   1   3
BRANCH   1  14
HETATM   14  S1  UNL     1      10.902  15.854  51.763  1.00  0.00     0.316 S
HETATM   15  O1  UNL     1       9.818  16.870  52.109  1.00  0.00    -0.183 OA
HETATM   16  O2  UNL     1      11.097  15.042  53.017  1.00  0.00    -0.183 OA
BRANCH  14  17
HETATM   17  N4  UNL     1      12.289  16.735  51.330  1.00  0.00    -0.292 N
ATOM     18  H4  UNL     1      13.247  16.392  51.393  1.00  0.00     0.174 HD
BRANCH  17  19
HETATM   19  C5  UNL     1      11.902  18.049  50.856  1.00  0.00     0.166 C
HETATM   20  C6  UNL     1      12.816  19.119  51.422  1.00  0.00     0.032 C
HETATM   21  C7  UNL     1      13.965  19.457  50.505  1.00  0.00     0.002 C
HETATM   22  C8  UNL     1      13.478  19.950  49.156  1.00  0.00     0.006 C
HETATM   23  C9  UNL     1      12.049  19.510  48.901  1.00  0.00     0.081 C
HETATM   24  C10 UNL     1      11.829  18.091  49.340  1.00  0.00     0.264 C
HETATM   25  F1  UNL     1      12.777  17.263  48.770  1.00  0.00    -0.204 F
HETATM   26  F2  UNL     1      10.582  17.710  48.946  1.00  0.00    -0.204 F
ENDBRANCH  17  19
ENDBRANCH  14  17
ENDBRANCH   1  14
TORSDOF 4
ENDMDL