MODEL 5
REMARK VINA RESULT: -7.237860651      0.721      1.607
REMARK  5 active torsions:
REMARK  status: ('A' for Active; 'I' for Inactive)
REMARK    1  A    between atoms: C4_5  and  C6_7
REMARK    2  A    between atoms: C6_7  and  C7_8
REMARK    3  A    between atoms: C7_8  and  N2_9
REMARK    4  A    between atoms: N2_9  and  C8_11
REMARK    5  A    between atoms: C10_15  and  C11_16
ROOT
HETATM    1  C8  UNL     1       7.542  16.873  48.687  1.00  0.00     0.679 A
HETATM    2  N3  UNL     1       8.602  17.674  48.965  1.00  0.00    -0.201 N
ATOM      3  H3  UNL     1       8.982  17.709  49.910  1.00  0.00     0.183 HD
HETATM    4  C9  UNL     1       9.147  18.419  47.990  1.00  0.00     0.120 A
HETATM    5  C10 UNL     1       8.636  18.380  46.693  1.00  0.00     0.041 A
HETATM    6  C14 UNL     1       7.562  17.555  46.456  1.00  0.00     0.125 A
HETATM    7  N4  UNL     1       7.031  17.487  45.286  1.00  0.00    -0.384 N
ATOM      8  H41 UNL     1       6.234  16.875  45.110  1.00  0.00     0.157 HD
ATOM      9  H42 UNL     1       7.431  18.046  44.532  1.00  0.00     0.157 HD
HETATM   10  N5  UNL     1       7.026  16.805  47.467  1.00  0.00    -0.177 N
ATOM     11  H5  UNL     1       6.229  16.194  47.282  1.00  0.00     0.186 HD
ENDROOT
BRANCH   1  12
HETATM   12  N2  UNL     1       7.031  16.164  49.631  1.00  0.00    -0.226 N
ATOM     13  H2  UNL     1       6.675  15.237  49.400  1.00  0.00     0.177 HD
BRANCH  12  14
HETATM   14  C7  UNL     1       6.937  16.605  50.984  1.00  0.00     0.139 C
BRANCH  14  15
HETATM   15  C6  UNL     1       7.029  15.556  52.029  1.00  0.00     0.029 C
BRANCH  15  16
HETATM   16  C4  UNL     1       8.306  15.578  52.817  1.00  0.00    -0.039 C
HETATM   17  C3  UNL     1       9.458  15.731  51.869  1.00  0.00     0.039 C
HETATM   18  C2  UNL     1      10.507  14.653  52.056  1.00  0.00     0.272 C
HETATM   19  N1  UNL     1       9.780  13.397  51.805  1.00  0.00     0.084 N
HETATM   20  C1  UNL     1      10.743  12.320  51.646  1.00  0.00     0.309 C
HETATM   21  C16 UNL     1       9.016  13.145  52.986  1.00  0.00     0.272 C
HETATM   22  C15 UNL     1       8.349  14.301  53.615  1.00  0.00     0.039 C
HETATM   23  C5  UNL     1       8.285  16.716  53.802  1.00  0.00     0.015 C
ENDBRANCH  15  16
ENDBRANCH  14  15
ENDBRANCH  12  14
ENDBRANCH   1  12
BRANCH   5  24
HETATM   24  C11 UNL     1       9.275  19.193  45.653  1.00  0.00     0.128 C
HETATM   25  C12 UNL     1       8.801  20.652  45.772  1.00  0.00     0.057 C
HETATM   26  C13 UNL     1      10.793  19.225  45.778  1.00  0.00     0.057 C
HETATM   27  F1  UNL     1       8.977  18.805  44.367  1.00  0.00    -0.238 F
ENDBRANCH   5  24
TORSDOF 5
ENDMDL