MODEL 2
REMARK VINA RESULT: -7.263933409      2.544      5.195
REMARK  7 active torsions:
REMARK  status: ('A' for Active; 'I' for Inactive)
REMARK    1  A    between atoms: C2_2  and  N1_3
REMARK    2  A    between atoms: N1_3  and  C3_5
REMARK    3  A    between atoms: C4_8  and  N3_9
REMARK    4  A    between atoms: N3_9  and  C5_11
REMARK    5  A    between atoms: C11_17  and  N4_18
REMARK    6  A    between atoms: N4_18  and  C12_20
REMARK    7  A    between atoms: C12_20  and  C13_22
ROOT
HETATM    1  C3  UNL     1       9.021  15.927  52.545  1.00  0.00     0.681 A
HETATM    2  N2  UNL     1       8.179  15.420  51.636  1.00  0.00    -0.177 N
ATOM      3  H2  UNL     1       7.252  15.116  51.935  1.00  0.00     0.185 HD
HETATM    4  C4  UNL     1       8.521  15.298  50.331  1.00  0.00     0.120 A
HETATM    5  C10 UNL     1       9.775  15.716  49.964  1.00  0.00     0.097 A
HETATM    6  C11 UNL     1      10.659  16.246  50.913  1.00  0.00     0.125 A
HETATM    7  N5  UNL     1      10.246  16.334  52.179  1.00  0.00    -0.177 N
ATOM      8  H5  UNL     1      10.875  16.719  52.884  1.00  0.00     0.186 HD
ENDROOT
BRANCH   6   9
HETATM    9  N4  UNL     1      11.816  16.633  50.576  1.00  0.00    -0.331 N
ATOM     10  H4  UNL     1      12.568  15.950  50.478  1.00  0.00     0.168 HD
BRANCH   9  11
HETATM   11  C12 UNL     1      12.080  18.001  50.334  1.00  0.00     0.151 C
HETATM   12  S1  UNL     1      12.708  19.025  51.450  1.00  0.00    -0.059 SA
BRANCH  11  13
HETATM   13  C13 UNL     1      11.778  18.544  48.986  1.00  0.00     0.292 C
HETATM   14  C14 UNL     1      12.317  19.970  48.972  1.00  0.00     0.098 C
HETATM   15  F1  UNL     1      10.432  18.508  48.710  1.00  0.00    -0.199 F
HETATM   16  F2  UNL     1      12.455  17.817  48.053  1.00  0.00    -0.199 F
ENDBRANCH  11  13
ENDBRANCH   9  11
ENDBRANCH   6   9
BRANCH   4  17
HETATM   17  N3  UNL     1       7.576  14.766  49.451  1.00  0.00    -0.371 N
ATOM     18  H3  UNL     1       6.613  14.647  49.767  1.00  0.00     0.161 HD
BRANCH  17  19
HETATM   19  C5  UNL     1       7.926  14.382  48.109  1.00  0.00     0.083 C
HETATM   20  C6  UNL     1       7.169  15.198  47.116  1.00  0.00     0.025 C
HETATM   21  C7  UNL     1       6.221  14.266  46.392  1.00  0.00     0.002 C
HETATM   22  C8  UNL     1       6.910  12.924  46.507  1.00  0.00     0.002 C
HETATM   23  C9  UNL     1       7.620  12.930  47.825  1.00  0.00     0.025 C
ENDBRANCH  17  19
ENDBRANCH   4  17
BRANCH   1  24
HETATM   24  N1  UNL     1       8.680  16.039  53.795  1.00  0.00    -0.226 N
ATOM     25  H1  UNL     1       8.556  15.207  54.373  1.00  0.00     0.177 HD
BRANCH  24  26
HETATM   26  C2  UNL     1       8.479  17.359  54.357  1.00  0.00     0.133 C
HETATM   27  C1  UNL     1       7.006  17.682  54.218  1.00  0.00     0.027 C
ENDBRANCH  24  26
ENDBRANCH   1  24
TORSDOF 7
ENDMDL