MODEL 5
REMARK VINA RESULT: -7.052447196      2.069      3.858
REMARK  4 active torsions:
REMARK  status: ('A' for Active; 'I' for Inactive)
REMARK       I    between atoms: C1_2  and  N1_3
REMARK       I    between atoms: C1_2  and  N2_6
REMARK    1  A    between atoms: N2_6  and  C2_8
REMARK    2  A    between atoms: C2_8  and  C3_9
REMARK    3  A    between atoms: C3_9  and  C4_10
REMARK    4  A    between atoms: C11_18  and  O2_19
ROOT
HETATM    1  C4  UNL     1       7.819  15.739  50.422  1.00  0.00     0.036 C
HETATM    2  C5  UNL     1       7.169  17.008  49.913  1.00  0.00     0.011 C
HETATM    3  C6  UNL     1       6.114  17.524  50.881  1.00  0.00     0.001 C
HETATM    4  C7  UNL     1       6.823  17.842  52.165  1.00  0.00     0.006 C
HETATM    5  C8  UNL     1       7.449  16.601  52.759  1.00  0.00     0.053 C
HETATM    6  C9  UNL     1       8.423  15.962  51.771  1.00  0.00    -0.010 C
HETATM    7  N3  UNL     1       9.238  15.065  52.357  1.00  0.00    -0.367 N
HETATM    8  C10 UNL     1      10.516  14.652  52.077  1.00  0.00     0.155 C
HETATM    9  C11 UNL     1      10.498  13.154  52.411  1.00  0.00     0.139 C
HETATM   10  C12 UNL     1       9.069  12.884  52.911  1.00  0.00     0.074 C
HETATM   11  C13 UNL     1       8.772  14.289  53.473  1.00  0.00     0.183 C
HETATM   12 CL2  UNL     1       9.740  14.437  54.923  1.00  0.00    -0.102 Cl
ENDROOT
BRANCH   1  13
HETATM   13  C3  UNL     1       8.878  15.301  49.465  1.00  0.00     0.055 C
BRANCH  13  14
HETATM   14  C2  UNL     1       8.790  13.978  48.813  1.00  0.00     0.066 C
BRANCH  14  15
HETATM   15  N2  UNL     1       7.551  13.330  48.651  1.00  0.00    -0.322 N
HETATM   16  C1  UNL     1       6.671  13.716  47.588  1.00  0.00     0.334 C
HETATM   17  O1  UNL     1       7.015  14.649  46.790  1.00  0.00    -0.246 OA
HETATM   18  N1  UNL     1       5.413  13.101  47.372  1.00  0.00    -0.250 N
HETATM   19 CL1  UNL     1       4.389  13.618  46.073  1.00  0.00     0.015 Cl
ATOM     20  H1  UNL     1       5.106  12.347  47.988  1.00  0.00     0.185 HD
ATOM     21  H2  UNL     1       7.280  12.583  49.291  1.00  0.00     0.169 HD
ENDBRANCH  14  15
ENDBRANCH  13  14
ENDBRANCH   1  13
BRANCH   9  22
HETATM   22  O2  UNL     1      10.822  12.360  51.345  1.00  0.00    -0.394 OA
ATOM     23  H2  UNL     1      11.733  12.436  51.085  1.00  0.00     0.210 HD
ENDBRANCH   9  22
TORSDOF 4
ENDMDL