MODEL 4
REMARK VINA RESULT: -7.699666594      1.823      3.050
REMARK  4 active torsions:
REMARK  status: ('A' for Active; 'I' for Inactive)
REMARK    1  A    between atoms: C2_2  and  C3_5
REMARK    2  A    between atoms: C9_11  and  C10_12
REMARK       I    between atoms: C10_12  and  N1_14
REMARK       I    between atoms: C11_16  and  N3_18
REMARK       I    between atoms: N3_18  and  C12_20
REMARK    3  A    between atoms: C12_20  and  C13_22
REMARK    4  A    between atoms: C13_22  and  C14_23
ROOT
HETATM    1  C10 UNL     1       8.139  16.227  49.807  1.00  0.00     0.229 C
HETATM    2  O1  UNL     1       8.031  17.264  50.496  1.00  0.00    -0.273 OA
HETATM    3  N1  UNL     1       7.468  16.219  48.557  1.00  0.00    -0.301 N
ATOM      4  H1  UNL     1       6.721  15.546  48.383  1.00  0.00     0.171 HD
HETATM    5  C11 UNL     1       7.802  17.064  47.640  1.00  0.00     0.197 C
HETATM    6  N2  UNL     1       8.850  17.979  47.939  1.00  0.00    -0.063 NA
HETATM    7  N3  UNL     1       7.147  17.084  46.371  1.00  0.00    -0.301 N
ATOM      8  H3  UNL     1       6.396  16.428  46.155  1.00  0.00     0.171 HD
HETATM    9  C12 UNL     1       7.574  18.043  45.424  1.00  0.00     0.234 C
HETATM   10  O2  UNL     1       8.497  18.862  45.662  1.00  0.00    -0.273 OA
ENDROOT
BRANCH   1  11
HETATM   11  C9  UNL     1       8.893  15.032  50.177  1.00  0.00     0.092 C
HETATM   12  C3  UNL     1       8.921  14.664  51.613  1.00  0.00     0.034 C
HETATM   13  C4  UNL     1       7.560  14.872  52.236  1.00  0.00     0.022 C
HETATM   14  C5  UNL     1       9.189  13.170  51.683  1.00  0.00     0.016 C
HETATM   15  C6  UNL     1      10.031  12.677  50.540  1.00  0.00     0.001 C
HETATM   16  C7  UNL     1       9.335  12.841  49.205  1.00  0.00     0.001 C
HETATM   17  C8  UNL     1       8.237  13.858  49.426  1.00  0.00     0.015 C
BRANCH  12  18
HETATM   18  C2  UNL     1       9.929  15.432  52.439  1.00  0.00     0.248 C
HETATM   19  C1  UNL     1      10.456  14.617  53.591  1.00  0.00     0.091 C
HETATM   20  F1  UNL     1       9.428  16.599  52.968  1.00  0.00    -0.206 F
HETATM   21  F2  UNL     1      11.000  15.763  51.631  1.00  0.00    -0.206 F
ENDBRANCH  12  18
ENDBRANCH   1  11
BRANCH   9  22
HETATM   22  C13 UNL     1       6.872  18.043  44.100  1.00  0.00     0.216 C
BRANCH  22  23
HETATM   23  C14 UNL     1       5.451  18.380  44.212  1.00  0.00     0.181 C
HETATM   24  O3  UNL     1       4.996  19.473  43.828  1.00  0.00    -0.648 OA
HETATM   25  O4  UNL     1       4.617  17.408  44.774  1.00  0.00    -0.648 OA
ENDBRANCH  22  23
ENDBRANCH   9  22
TORSDOF 4
ENDMDL