MODEL 3
REMARK VINA RESULT: -6.433577134      1.152      1.485
REMARK  4 active torsions:
REMARK  status: ('A' for Active; 'I' for Inactive)
REMARK    1  A    between atoms: N2_6  and  C4_8
REMARK    2  A    between atoms: C4_8  and  C5_9
REMARK    3  A    between atoms: C5_9  and  C6_10
REMARK    4  A    between atoms: C6_10  and  N3_11
REMARK       I    between atoms: N3_11  and  C7_13
REMARK       I    between atoms: C7_13  and  N5_17
ROOT
HETATM    1  C4  UNL     1      10.255  12.030  50.807  1.00  0.00     0.125 C
ENDROOT
BRANCH   1   2
HETATM    2  N2  UNL     1       9.334  11.715  49.732  1.00  0.00    -0.356 N
HETATM    3  C3  UNL     1       8.753  12.680  49.093  1.00  0.00     0.225 A
HETATM    4  N1  UNL     1       8.913  14.013  49.324  1.00  0.00    -0.323 N
HETATM    5  O1  UNL     1       7.903  12.599  48.108  1.00  0.00    -0.270 OA
HETATM    6  C2  UNL     1       8.156  14.729  48.473  1.00  0.00     0.050 A
ATOM      7  H1  UNL     1       9.521  14.412  50.040  1.00  0.00     0.169 HD
HETATM    8  C1  UNL     1       8.012  16.203  48.359  1.00  0.00     0.072 C
HETATM    9  C10 UNL     1       7.514  13.777  47.700  1.00  0.00     0.147 A
HETATM   10 BR1  UNL     1       6.280  14.127  46.286  1.00  0.00    -0.021 Br
ATOM     11  H2  UNL     1       9.145  10.744  49.482  1.00  0.00     0.163 HD
ENDBRANCH   1   2
BRANCH   1  12
HETATM   12  C5  UNL     1       9.609  11.846  52.162  1.00  0.00     0.040 C
BRANCH  12  13
HETATM   13  C6  UNL     1      10.008  12.875  53.163  1.00  0.00     0.139 C
BRANCH  13  14
HETATM   14  N3  UNL     1       8.987  13.830  53.450  1.00  0.00    -0.227 N
HETATM   15  C7  UNL     1       9.242  15.215  53.503  1.00  0.00     0.668 C
HETATM   16  N4  UNL     1       9.635  15.754  54.582  1.00  0.00    -0.235 N
HETATM   17  N5  UNL     1       9.051  15.999  52.325  1.00  0.00    -0.227 N
ATOM     18  H42 UNL     1       9.771  15.194  55.424  1.00  0.00     0.174 HD
ATOM     19  H41 UNL     1       9.820  16.756  54.621  1.00  0.00     0.174 HD
HETATM   20  C8  UNL     1       7.673  16.314  51.957  1.00  0.00     0.168 C
HETATM   21  C9  UNL     1      10.182  16.438  51.564  1.00  0.00     0.168 C
ATOM     22  H3  UNL     1       8.038  13.499  53.621  1.00  0.00     0.177 HD
ENDBRANCH  13  14
ENDBRANCH  12  13
ENDBRANCH   1  12
TORSDOF 4
ENDMDL