MODEL 5
REMARK VINA RESULT: -7.707228114      1.659      3.498
REMARK  4 active torsions:
REMARK  status: ('A' for Active; 'I' for Inactive)
REMARK    1  A    between atoms: C2_2  and  N1_3
REMARK    2  A    between atoms: C2_2  and  C3_7
REMARK    3  A    between atoms: C3_7  and  O1_9
REMARK    4  A    between atoms: O1_9  and  C4_10
ROOT
HETATM    1  C4  UNL     1       7.683  15.444  49.613  1.00  0.00     0.135 C
HETATM    2  C5  UNL     1       8.772  16.087  48.849  1.00  0.00     0.037 C
HETATM    3  C6  UNL     1       9.549  17.131  49.655  1.00  0.00     0.063 C
HETATM    4  C7  UNL     1      10.498  16.430  50.602  1.00  0.00     0.133 C
HETATM    5  C8  UNL     1      11.880  17.013  50.399  1.00  0.00     0.071 C
HETATM    6  N2  UNL     1      10.527  15.060  50.293  1.00  0.00    -0.387 N
ATOM      7  H2  UNL     1      11.277  14.689  49.709  1.00  0.00     0.156 HD
HETATM    8  C9  UNL     1       9.543  14.206  50.776  1.00  0.00     0.086 C
HETATM    9  C10 UNL     1       9.582  12.883  49.996  1.00  0.00     0.032 C
HETATM   10  C11 UNL     1       8.139  14.683  50.830  1.00  0.00     0.072 C
HETATM   11  C12 UNL     1       7.981  15.533  52.038  1.00  0.00    -0.013 A
HETATM   12  C13 UNL     1       6.782  15.360  52.700  1.00  0.00     0.011 A
HETATM   13  C14 UNL     1       6.518  16.104  53.852  1.00  0.00     0.004 A
HETATM   14  C15 UNL     1       7.442  17.014  54.344  1.00  0.00     0.045 A
HETATM   15  C16 UNL     1       8.641  17.187  53.683  1.00  0.00     0.150 A
HETATM   16  F2  UNL     1       9.553  18.061  54.137  1.00  0.00    -0.203 F
HETATM   17  C17 UNL     1       8.893  16.449  52.546  1.00  0.00     0.117 A
HETATM   18  O2  UNL     1      10.152  16.714  51.960  1.00  0.00    -0.317 OA
ENDROOT
BRANCH   1  19
HETATM   19  O1  UNL     1       6.972  14.566  48.777  1.00  0.00    -0.349 OA
BRANCH  19  20
HETATM   20  C3  UNL     1       7.491  14.481  47.500  1.00  0.00     0.337 C
HETATM   21  F1  UNL     1       6.678  15.224  46.607  1.00  0.00    -0.217 F
BRANCH  20  22
HETATM   22  C2  UNL     1       7.428  13.066  47.021  1.00  0.00     0.239 C
HETATM   23  C1  UNL     1       6.688  13.005  45.684  1.00  0.00     0.045 C
BRANCH  22  24
HETATM   24  N1  UNL     1       6.821  12.187  47.991  1.00  0.00    -0.070 N
ATOM     25  H13 UNL     1       6.096  11.607  47.571  1.00  0.00     0.274 HD
ATOM     26  H12 UNL     1       7.462  11.449  48.281  1.00  0.00     0.274 HD
ATOM     27  H11 UNL     1       6.466  12.711  48.790  1.00  0.00     0.274 HD
ENDBRANCH  22  24
ENDBRANCH  20  22
ENDBRANCH  19  20
ENDBRANCH   1  19
TORSDOF 4
ENDMDL