MODEL 5
REMARK VINA RESULT: -7.426587763      3.917      4.814
REMARK  5 active torsions:
REMARK  status: ('A' for Active; 'I' for Inactive)
REMARK    1  A    between atoms: N1_1  and  C1_5
REMARK    2  A    between atoms: C8_12  and  N2_13
REMARK       I    between atoms: N2_13  and  C9_15
REMARK    3  A    between atoms: C9_15  and  C10_17
REMARK    4  A    between atoms: C10_17  and  N3_18
REMARK    5  A    between atoms: N3_18  and  C11_21
ROOT
HETATM    1  N2  UNL     1      11.565  16.413  51.513  1.00  0.00    -0.350 N
ATOM      2  H2  UNL     1      12.373  16.427  52.133  1.00  0.00     0.163 HD
HETATM    3  C9  UNL     1      11.626  17.222  50.361  1.00  0.00     0.244 C
HETATM    4  O1  UNL     1      10.707  17.308  49.507  1.00  0.00    -0.272 OA
ENDROOT
BRANCH   1   5
HETATM    5  C8  UNL     1      10.470  15.578  51.888  1.00  0.00     0.036 C
HETATM    6  C7  UNL     1      10.090  14.651  50.753  1.00  0.00     0.035 C
HETATM    7  C5  UNL     1       8.859  13.844  51.101  1.00  0.00    -0.009 C
HETATM    8  C4  UNL     1       9.215  12.943  52.262  1.00  0.00     0.009 C
HETATM    9  C6  UNL     1       7.738  14.777  51.417  1.00  0.00     0.043 C
HETATM   10  C3  UNL     1       9.639  13.797  53.408  1.00  0.00    -0.009 C
HETATM   11  C2  UNL     1       8.456  14.662  53.815  1.00  0.00     0.043 C
HETATM   12  C16 UNL     1      10.787  14.705  53.096  1.00  0.00     0.035 C
HETATM   13  C1  UNL     1       8.107  15.562  52.651  1.00  0.00     0.126 C
HETATM   14  C17 UNL     1       9.284  16.431  52.312  1.00  0.00     0.069 C
BRANCH  13  15
HETATM   15  N1  UNL     1       7.002  16.402  53.064  1.00  0.00    -0.070 N
ATOM     16  H13 UNL     1       7.298  17.203  53.621  1.00  0.00     0.275 HD
ATOM     17  H12 UNL     1       6.588  16.921  52.290  1.00  0.00     0.275 HD
ATOM     18  H11 UNL     1       6.329  15.808  53.549  1.00  0.00     0.275 HD
ENDBRANCH  13  15
ENDBRANCH   1   5
BRANCH   3  19
HETATM   19  C10 UNL     1      12.844  18.056  50.081  1.00  0.00     0.335 C
BRANCH  19  20
HETATM   20  N3  UNL     1      12.625  19.449  50.373  1.00  0.00    -0.062 N
ATOM     21  H32 UNL     1      11.644  19.664  50.550  1.00  0.00     0.278 HD
ATOM     22  H31 UNL     1      12.992  19.723  51.285  1.00  0.00     0.278 HD
BRANCH  20  23
HETATM   23  C11 UNL     1      13.183  20.230  49.286  1.00  0.00     0.192 C
HETATM   24  C12 UNL     1      12.443  21.552  49.126  1.00  0.00     0.039 C
HETATM   25  C13 UNL     1      11.177  21.093  48.451  1.00  0.00     0.081 C
HETATM   26  C14 UNL     1      11.677  20.171  47.386  1.00  0.00     0.245 C
HETATM   27  F1  UNL     1      11.973  20.902  46.251  1.00  0.00    -0.206 F
HETATM   28  F2  UNL     1      10.718  19.203  47.061  1.00  0.00    -0.206 F
HETATM   29  C15 UNL     1      12.906  19.522  47.975  1.00  0.00     0.112 C
ENDBRANCH  20  23
ENDBRANCH  19  20
ENDBRANCH   3  19
TORSDOF 5
ENDMDL