MODEL 1
REMARK VINA RESULT: -7.974743824      0.000      0.000
REMARK  5 active torsions:
REMARK  status: ('A' for Active; 'I' for Inactive)
REMARK    1  A    between atoms: C2_2  and  N1_4
REMARK       I    between atoms: N1_4  and  C4_6
REMARK       I    between atoms: C4_6  and  N2_8
REMARK    2  A    between atoms: N2_8  and  C5_10
REMARK    3  A    between atoms: C5_10  and  C6_11
REMARK    4  A    between atoms: C9_16  and  N3_17
REMARK    5  A    between atoms: N3_17  and  S1_19
ROOT
HETATM    1  C5  UNL     1       9.566  14.463  51.045  1.00  0.00     0.093 C
HETATM    2  C7  UNL     1      10.170  13.293  50.268  1.00  0.00     0.039 C
HETATM    3  C8  UNL     1       9.177  12.521  49.475  1.00  0.00     0.028 C
HETATM    4  C9  UNL     1       8.319  13.399  48.588  1.00  0.00     0.093 C
HETATM    5  C11 UNL     1       7.598  14.351  49.539  1.00  0.00     0.028 C
HETATM    6  C12 UNL     1       8.594  15.238  50.185  1.00  0.00     0.039 C
ENDROOT
BRANCH   1   7
HETATM    7  N2  UNL     1      10.630  15.344  51.425  1.00  0.00    -0.328 N
HETATM    8  C4  UNL     1      11.199  16.410  50.741  1.00  0.00     0.317 C
HETATM    9  N1  UNL     1      12.295  17.183  51.275  1.00  0.00    -0.339 N
HETATM   10  O1  UNL     1      10.809  16.782  49.619  1.00  0.00    -0.247 OA
ATOM     11  H1  UNL     1      12.660  16.928  52.193  1.00  0.00     0.164 HD
ATOM     12  H2  UNL     1      11.032  15.159  52.344  1.00  0.00     0.165 HD
BRANCH   9  13
HETATM   13  C2  UNL     1      12.902  18.287  50.591  1.00  0.00     0.078 C
HETATM   14  C1  UNL     1      14.241  17.931  49.967  1.00  0.00     0.032 C
HETATM   15  C3  UNL     1      13.141  19.472  51.502  1.00  0.00     0.032 C
ENDBRANCH   9  13
ENDBRANCH   1   7
BRANCH   1  16
HETATM   16  C6  UNL     1       8.833  13.941  52.244  1.00  0.00     0.381 C
HETATM   17  F1  UNL     1       8.809  14.905  53.265  1.00  0.00    -0.212 F
HETATM   18  F2  UNL     1       9.302  12.774  52.770  1.00  0.00    -0.212 F
ENDBRANCH   1  16
BRANCH   4  19
HETATM   19  N3  UNL     1       7.340  12.620  47.911  1.00  0.00    -0.315 N
ATOM     20  H3  UNL     1       7.198  11.627  48.098  1.00  0.00     0.172 HD
BRANCH  19  21
HETATM   21  S1  UNL     1       6.420  13.492  46.754  1.00  0.00     0.223 S
HETATM   22  C10 UNL     1       6.885  15.178  46.618  1.00  0.00     0.185 C
HETATM   23  O2  UNL     1       4.947  13.372  46.992  1.00  0.00    -0.206 OA
HETATM   24  O3  UNL     1       6.685  12.839  45.406  1.00  0.00    -0.206 OA
ENDBRANCH  19  21
ENDBRANCH   4  19
TORSDOF 5
ENDMDL