MODEL 4
REMARK VINA RESULT: -6.442068355      2.127      5.102
REMARK  6 active torsions:
REMARK  status: ('A' for Active; 'I' for Inactive)
REMARK    1  A    between atoms: N1_1  and  C1_4
REMARK    2  A    between atoms: C4_10  and  N3_11
REMARK    3  A    between atoms: N3_11  and  C5_13
REMARK    4  A    between atoms: C5_13  and  C6_14
REMARK    5  A    between atoms: C6_14  and  C7_15
REMARK    6  A    between atoms: C7_15  and  N4_16
ROOT
HETATM    1  C1  UNL     1       6.819  16.393  51.719  1.00  0.00     0.677 A
HETATM    2  N2  UNL     1       7.295  17.162  52.719  1.00  0.00    -0.201 N
ATOM      3  H2  UNL     1       6.949  18.113  52.842  1.00  0.00     0.183 HD
HETATM    4  C2  UNL     1       8.234  16.667  53.560  1.00  0.00     0.129 A
HETATM    5  C3  UNL     1       8.683  15.378  53.371  1.00  0.00     0.071 A
HETATM    6 BR1  UNL     1      10.005  14.687  54.557  1.00  0.00    -0.046 Br
HETATM    7  C4  UNL     1       8.195  14.570  52.336  1.00  0.00     0.135 A
HETATM    8  N5  UNL     1       7.266  15.134  51.546  1.00  0.00    -0.176 N
ATOM      9  H5  UNL     1       6.881  14.582  50.780  1.00  0.00     0.186 HD
ENDROOT
BRANCH   7  10
HETATM   10  N3  UNL     1       8.626  13.377  52.181  1.00  0.00    -0.375 N
ATOM     11  H3  UNL     1       8.145  12.657  52.719  1.00  0.00     0.161 HD
BRANCH  10  12
HETATM   12  C5  UNL     1       9.688  12.926  51.354  1.00  0.00     0.123 C
BRANCH  12  13
HETATM   13  C6  UNL     1       9.708  13.712  50.038  1.00  0.00     0.050 C
BRANCH  13  14
HETATM   14  C7  UNL     1       8.926  12.889  49.047  1.00  0.00     0.274 C
BRANCH  14  15
HETATM   15  N4  UNL     1       7.830  13.614  48.456  1.00  0.00     0.088 N
HETATM   16  C8  UNL     1       7.469  13.085  47.165  1.00  0.00     0.272 C
HETATM   17  C9  UNL     1       6.252  13.864  46.672  1.00  0.00     0.030 C
HETATM   18  C10 UNL     1       6.709  15.254  46.383  1.00  0.00     0.003 C
HETATM   19  C11 UNL     1       7.302  15.863  47.602  1.00  0.00     0.030 C
HETATM   20  C12 UNL     1       8.199  15.004  48.414  1.00  0.00     0.272 C
ENDBRANCH  14  15
ENDBRANCH  13  14
ENDBRANCH  12  13
ENDBRANCH  10  12
ENDBRANCH   7  10
BRANCH   1  21
HETATM   21  N1  UNL     1       5.926  16.844  50.909  1.00  0.00    -0.234 N
ATOM     22  H12 UNL     1       5.878  16.449  49.970  1.00  0.00     0.174 HD
ATOM     23  H11 UNL     1       5.280  17.578  51.200  1.00  0.00     0.174 HD
ENDBRANCH   1  21
TORSDOF 6
ENDMDL