MODEL 3
REMARK VINA RESULT: -5.917024329      5.291      7.068
REMARK  6 active torsions:
REMARK  status: ('A' for Active; 'I' for Inactive)
REMARK    1  A    between atoms: C2_2  and  O1_3
REMARK    2  A    between atoms: O1_3  and  C3_4
REMARK    3  A    between atoms: C6_7  and  N1_8
REMARK    4  A    between atoms: N1_8  and  C7_10
REMARK    5  A    between atoms: C7_10  and  N2_12
REMARK    6  A    between atoms: N2_12  and  C8_14
ROOT
HETATM    1  N1  UNL     1      59.844   1.350  40.404  1.00  0.00    -0.363 N
ATOM      2  H1  UNL     1      59.144   2.089  40.463  1.00  0.00     0.162 HD
ENDROOT
BRANCH   1   3
HETATM    3  C6  UNL     1      59.414   0.054  39.966  1.00  0.00     0.084 C
HETATM    4  C5  UNL     1      58.078   0.045  39.329  1.00  0.00     0.028 C
HETATM    5  C4  UNL     1      57.198  -1.124  39.618  1.00  0.00     0.034 C
HETATM    6  C3  UNL     1      57.907  -2.423  39.831  1.00  0.00     0.121 C
HETATM    7  C12 UNL     1      59.234  -2.272  40.528  1.00  0.00     0.034 C
HETATM    8  C11 UNL     1      59.366  -0.894  41.157  1.00  0.00     0.028 C
BRANCH   6   9
HETATM    9  O1  UNL     1      58.148  -3.067  38.621  1.00  0.00    -0.386 OA
BRANCH   9  10
HETATM   10  C2  UNL     1      59.170  -4.001  38.710  1.00  0.00     0.163 C
HETATM   11  C1  UNL     1      58.533  -5.343  38.992  1.00  0.00     0.033 C
ENDBRANCH   9  10
ENDBRANCH   6   9
ENDBRANCH   1   3
BRANCH   1  12
HETATM   12  C7  UNL     1      61.166   1.669  40.757  1.00  0.00     0.168 C
HETATM   13  S1  UNL     1      61.502   1.986  42.318  1.00  0.00    -0.041 SA
BRANCH  12  14
HETATM   14  N2  UNL     1      62.182   1.721  39.791  1.00  0.00    -0.359 N
ATOM     15  H2  UNL     1      62.038   2.366  39.014  1.00  0.00     0.162 HD
BRANCH  14  16
HETATM   16  C8  UNL     1      63.401   0.966  39.777  1.00  0.00     0.135 C
HETATM   17  C9  UNL     1      63.300  -0.521  39.980  1.00  0.00     0.259 C
HETATM   18  N3  UNL     1      64.353  -0.670  38.961  1.00  0.00    -0.071 N
HETATM   19  C10 UNL     1      63.855   0.556  38.372  1.00  0.00     0.259 C
ATOM     20  H32 UNL     1      65.333  -0.771  39.224  1.00  0.00     0.277 HD
ATOM     21  H31 UNL     1      64.440  -1.525  38.411  1.00  0.00     0.277 HD
ENDBRANCH  14  16
ENDBRANCH  12  14
ENDBRANCH   1  12
TORSDOF 6
ENDMDL