MODEL 2
REMARK VINA RESULT: -6.059080873      6.021      8.273
REMARK  6 active torsions:
REMARK  status: ('A' for Active; 'I' for Inactive)
REMARK    1  A    between atoms: C2_2  and  C3_3
REMARK    2  A    between atoms: C3_3  and  C4_4
REMARK    3  A    between atoms: C4_4  and  N1_5
REMARK    4  A    between atoms: N1_5  and  C5_7
REMARK    5  A    between atoms: C5_7  and  N2_9
REMARK    6  A    between atoms: N2_9  and  C6_11
ROOT
HETATM    1  C6  UNL     1      58.824  -6.186  42.145  1.00  0.00     0.290 C
HETATM    2  C7  UNL     1      59.350  -6.055  43.544  1.00  0.00     0.090 C
HETATM    3  C8  UNL     1      60.127  -7.304  43.877  1.00  0.00     0.229 C
HETATM    4  C9  UNL     1      61.232  -7.435  42.840  1.00  0.00     0.040 C
HETATM    5  C10 UNL     1      60.629  -8.352  41.816  1.00  0.00     0.067 C
HETATM    6  C11 UNL     1      59.203  -8.555  42.257  1.00  0.00     0.422 C
HETATM    7  N3  UNL     1      58.349  -7.494  41.816  1.00  0.00    -0.022 N
ATOM      8  H31 UNL     1      58.175  -7.569  40.814  1.00  0.00     0.282 HD
ATOM      9  H32 UNL     1      57.401  -7.628  42.167  1.00  0.00     0.282 HD
HETATM   10  N4  UNL     1      59.290  -8.463  43.715  1.00  0.00     0.120 N
HETATM   11  C12 UNL     1      59.878  -9.635  44.289  1.00  0.00     0.313 C
ENDROOT
BRANCH   1  12
HETATM   12  N2  UNL     1      57.804  -5.213  41.880  1.00  0.00    -0.340 N
ATOM     13  H2  UNL     1      56.915  -5.254  42.378  1.00  0.00     0.164 HD
BRANCH  12  14
HETATM   14  C5  UNL     1      58.037  -4.186  40.919  1.00  0.00     0.169 C
HETATM   15  S1  UNL     1      58.611  -4.569  39.431  1.00  0.00    -0.041 SA
BRANCH  14  16
HETATM   16  N1  UNL     1      57.787  -2.822  41.201  1.00  0.00    -0.367 N
ATOM     17  H1  UNL     1      57.188  -2.550  41.980  1.00  0.00     0.161 HD
BRANCH  16  18
HETATM   18  C4  UNL     1      58.405  -1.820  40.354  1.00  0.00     0.122 C
BRANCH  18  19
HETATM   19  C3  UNL     1      57.405  -0.917  39.704  1.00  0.00     0.019 C
BRANCH  19  20
HETATM   20  C2  UNL     1      57.589  -1.024  38.201  1.00  0.00    -0.003 C
HETATM   21  C1  UNL     1      56.482  -1.937  37.698  1.00  0.00     0.005 C
ENDBRANCH  19  20
ENDBRANCH  18  19
ENDBRANCH  16  18
ENDBRANCH  14  16
ENDBRANCH  12  14
ENDBRANCH   1  12
TORSDOF 6
ENDMDL