MODEL 1
REMARK VINA RESULT: -6.819052314      0.000      0.000
REMARK  4 active torsions:
REMARK  status: ('A' for Active; 'I' for Inactive)
REMARK    1  A    between atoms: C2_2  and  C3_3
REMARK    2  A    between atoms: C5_5  and  C6_6
REMARK    3  A    between atoms: C6_6  and  N1_9
REMARK       I    between atoms: C9_11  and  N3_13
REMARK    4  A    between atoms: N3_13  and  C10_15
ROOT
HETATM    1  N1  UNL     1      58.935   0.513  40.088  1.00  0.00    -0.353 N
ATOM      2  H1  UNL     1      58.443   1.392  40.250  1.00  0.00     0.163 HD
HETATM    3  C9  UNL     1      60.161   0.483  40.412  1.00  0.00     0.185 C
HETATM    4  N2  UNL     1      61.014  -0.640  40.265  1.00  0.00    -0.064 NA
HETATM    5  N3  UNL     1      60.731   1.663  40.967  1.00  0.00    -0.358 N
ATOM      6  H3  UNL     1      61.127   2.356  40.331  1.00  0.00     0.162 HD
ENDROOT
BRANCH   1   7
HETATM    7  C6  UNL     1      58.162  -0.559  39.515  1.00  0.00     0.043 C
HETATM    8  C7  UNL     1      56.710  -0.084  39.413  1.00  0.00     0.042 C
HETATM    9  C8  UNL     1      58.760  -0.847  38.155  1.00  0.00     0.042 C
BRANCH   7  10
HETATM   10  C5  UNL     1      58.198  -1.746  40.403  1.00  0.00     0.006 C
HETATM   11  C3  UNL     1      57.999  -2.992  40.014  1.00  0.00    -0.086 C
HETATM   12  C4  UNL     1      57.704  -3.430  38.629  1.00  0.00     0.043 C
BRANCH  11  13
HETATM   13  C2  UNL     1      58.071  -4.072  41.042  1.00  0.00     0.029 C
HETATM   14  C1  UNL     1      57.657  -3.536  42.411  1.00  0.00     0.010 C
ENDBRANCH  11  13
ENDBRANCH   7  10
ENDBRANCH   1   7
BRANCH   5  15
HETATM   15  C10 UNL     1      60.777   1.925  42.377  1.00  0.00     0.101 C
HETATM   16  C11 UNL     1      61.379   3.294  42.602  1.00  0.00     0.028 C
HETATM   17  C12 UNL     1      62.875   3.281  42.525  1.00  0.00     0.021 C
HETATM   18  C13 UNL     1      63.452   2.027  41.970  1.00  0.00     0.114 C
HETATM   19  N4  UNL     1      62.916   0.819  42.492  1.00  0.00    -0.419 N
HETATM   20  C14 UNL     1      61.644   0.936  43.129  1.00  0.00     0.139 C
ATOM     21  H4  UNL     1      63.407  -0.072  42.416  1.00  0.00     0.153 HD
ENDBRANCH   5  15
TORSDOF 4
ENDMDL