MODEL 4
REMARK VINA RESULT: -6.202476670      4.054      6.074
REMARK  5 active torsions:
REMARK  status: ('A' for Active; 'I' for Inactive)
REMARK    1  A    between atoms: C7_8  and  C8_9
REMARK    2  A    between atoms: C8_9  and  C9_10
REMARK    3  A    between atoms: C9_10  and  C10_11
REMARK    4  A    between atoms: C10_11  and  N1_12
REMARK    5  A    between atoms: N1_12  and  C11_14
ROOT
HETATM    1  C1  UNL     1      59.022  -0.018  39.569  1.00  0.00     0.078 C
HETATM    2  C2  UNL     1      58.125  -1.259  39.490  1.00  0.00     0.158 C
HETATM    3  C3  UNL     1      56.764  -0.738  39.031  1.00  0.00     0.078 C
HETATM    4  O1  UNL     1      58.578  -2.125  38.532  1.00  0.00    -0.348 OA
HETATM    5  C4  UNL     1      59.145  -3.228  39.165  1.00  0.00     0.154 C
HETATM    6  C5  UNL     1      58.478  -4.491  38.712  1.00  0.00     0.035 C
HETATM    7  C6  UNL     1      58.404  -5.298  40.009  1.00  0.00     0.010 C
HETATM    8  C7  UNL     1      57.955  -4.225  40.971  1.00  0.00     0.017 C
HETATM    9  C12 UNL     1      58.837  -3.052  40.642  1.00  0.00     0.158 C
HETATM   10  O2  UNL     1      58.074  -1.900  40.696  1.00  0.00    -0.348 OA
ENDROOT
BRANCH   8  11
HETATM   11  C8  UNL     1      57.988  -4.645  42.395  1.00  0.00     0.009 C
BRANCH  11  12
HETATM   12  C9  UNL     1      58.394  -6.107  42.446  1.00  0.00     0.020 C
BRANCH  12  13
HETATM   13  C10 UNL     1      59.474  -6.370  43.437  1.00  0.00     0.121 C
BRANCH  13  14
HETATM   14  N1  UNL     1      59.565  -5.461  44.528  1.00  0.00    -0.369 N
ATOM     15  H1  UNL     1      58.882  -4.706  44.578  1.00  0.00     0.161 HD
BRANCH  14  16
HETATM   16  C11 UNL     1      60.539  -5.537  45.545  1.00  0.00     0.180 C
HETATM   17  N2  UNL     1      61.071  -4.409  46.221  1.00  0.00    -0.070 NA
HETATM   18  S1  UNL     1      61.098  -6.996  46.002  1.00  0.00    -0.044 SA
ENDBRANCH  14  16
ENDBRANCH  13  14
ENDBRANCH  12  13
ENDBRANCH  11  12
ENDBRANCH   8  11
TORSDOF 5
ENDMDL