MODEL 5
REMARK VINA RESULT: -6.490031117      4.692      6.168
REMARK  4 active torsions:
REMARK  status: ('A' for Active; 'I' for Inactive)
REMARK    1  A    between atoms: C2_2  and  N1_3
REMARK    2  A    between atoms: C6_7  and  N2_8
REMARK       I    between atoms: N2_8  and  C7_10
REMARK       I    between atoms: C7_10  and  N4_14
REMARK    3  A    between atoms: N4_14  and  C8_16
REMARK    4  A    between atoms: C8_16  and  C9_17
ROOT
HETATM    1  N2  UNL     1      59.542  -6.429  40.869  1.00  0.00    -0.221 N
ATOM      2  H2  UNL     1      60.538  -6.440  40.652  1.00  0.00     0.178 HD
HETATM    3  C7  UNL     1      58.654  -6.052  39.855  1.00  0.00     0.667 C
HETATM    4  N3  UNL     1      57.405  -6.322  39.914  1.00  0.00    -0.235 N
ATOM      5  H31 UNL     1      56.757  -6.048  39.175  1.00  0.00     0.174 HD
ATOM      6  H32 UNL     1      57.090  -6.835  40.738  1.00  0.00     0.174 HD
HETATM    7  N4  UNL     1      59.096  -5.332  38.698  1.00  0.00    -0.226 N
ATOM      8  H4  UNL     1      59.337  -5.824  37.838  1.00  0.00     0.177 HD
ENDROOT
BRANCH   1   9
HETATM    9  C6  UNL     1      59.132  -6.804  42.209  1.00  0.00     0.127 C
HETATM   10  C5  UNL     1      59.034  -5.507  42.994  1.00  0.00     0.029 C
HETATM   11  C4  UNL     1      59.226  -5.679  44.460  1.00  0.00     0.032 C
HETATM   12  C3  UNL     1      60.447  -6.524  44.786  1.00  0.00     0.272 C
HETATM   13  N1  UNL     1      60.202  -7.824  44.202  1.00  0.00     0.090 N
HETATM   14  C14 UNL     1      60.198  -7.707  42.778  1.00  0.00     0.297 C
BRANCH  13  15
HETATM   15  C2  UNL     1      61.330  -8.681  44.554  1.00  0.00     0.268 C
HETATM   16  C1  UNL     1      62.485  -7.927  45.140  1.00  0.00     0.037 C
ENDBRANCH  13  15
ENDBRANCH   1   9
BRANCH   7  17
HETATM   17  C8  UNL     1      59.191  -3.897  38.779  1.00  0.00     0.143 C
BRANCH  17  18
HETATM   18  C9  UNL     1      57.817  -3.288  38.859  1.00  0.00     0.013 A
HETATM   19  C10 UNL     1      57.786  -1.995  39.746  1.00  0.00     0.017 A
HETATM   20  C11 UNL     1      57.392  -2.031  38.378  1.00  0.00    -0.035 A
HETATM   21  C12 UNL     1      56.197  -1.582  37.714  1.00  0.00     0.011 A
HETATM   22  C13 UNL     1      57.630  -1.226  37.246  1.00  0.00     0.011 A
ENDBRANCH  17  18
ENDBRANCH   7  17
TORSDOF 4
ENDMDL