MODEL 5
REMARK VINA RESULT: -7.354023319      5.102      7.406
REMARK  3 active torsions:
REMARK  status: ('A' for Active; 'I' for Inactive)
REMARK    1  A    between atoms: C2_2  and  C8_19
REMARK    2  A    between atoms: C3_3  and  C4_4
REMARK    3  A    between atoms: C4_4  and  N1_5
REMARK       I    between atoms: N1_5  and  C5_7
REMARK       I    between atoms: N3_9  and  C6_11
REMARK       I    between atoms: C6_11  and  N5_15
ROOT
HETATM    1  N1  UNL     1      57.809  -5.741  39.284  1.00  0.00    -0.361 N
ATOM      2  H1  UNL     1      56.876  -5.852  38.887  1.00  0.00     0.162 HD
HETATM    3  C5  UNL     1      58.198  -6.473  40.437  1.00  0.00     0.203 C
HETATM    4  N2  UNL     1      57.422  -6.458  41.617  1.00  0.00    -0.063 NA
HETATM    5  N3  UNL     1      59.297  -7.170  40.391  1.00  0.00    -0.163 N
ATOM      6  H3  UNL     1      59.862  -7.186  39.542  1.00  0.00     0.187 HD
HETATM    7  C6  UNL     1      59.702  -7.907  41.536  1.00  0.00     0.687 C
HETATM    8  N4  UNL     1      58.829  -8.540  42.242  1.00  0.00    -0.234 N
ATOM      9  H41 UNL     1      59.120  -9.069  43.064  1.00  0.00     0.174 HD
ATOM     10  H42 UNL     1      57.846  -8.506  41.972  1.00  0.00     0.174 HD
HETATM   11  N5  UNL     1      61.090  -7.955  41.918  1.00  0.00    -0.126 N
ATOM     12  H5  UNL     1      61.771  -8.446  41.338  1.00  0.00     0.197 HD
HETATM   13  C7  UNL     1      61.489  -7.318  43.096  1.00  0.00     0.196 C
HETATM   14  N6  UNL     1      61.824  -6.774  44.061  1.00  0.00    -0.171 NA
ENDROOT
BRANCH   1  15
HETATM   15  C4  UNL     1      58.764  -4.835  38.688  1.00  0.00     0.149 C
BRANCH  15  16
HETATM   16  C3  UNL     1      58.829  -3.596  39.489  1.00  0.00    -0.005 C
HETATM   17  C2  UNL     1      58.103  -2.529  39.184  1.00  0.00    -0.082 C
HETATM   18  C1  UNL     1      57.222  -2.643  37.996  1.00  0.00     0.043 C
BRANCH  17  19
HETATM   19  C8  UNL     1      58.232  -1.346  40.034  1.00  0.00     0.014 C
HETATM   20  C9  UNL     1      59.039  -1.750  41.262  1.00  0.00     0.009 C
HETATM   21  C10 UNL     1      59.978  -0.634  41.562  1.00  0.00     0.001 C
HETATM   22  C11 UNL     1      59.942   0.331  40.415  1.00  0.00     0.001 C
HETATM   23  C12 UNL     1      58.923  -0.181  39.436  1.00  0.00     0.009 C
ENDBRANCH  17  19
ENDBRANCH  15  16
ENDBRANCH   1  15
TORSDOF 3
ENDMDL