MODEL 5
REMARK VINA RESULT: -6.145118216      1.763      2.566
REMARK  5 active torsions:
REMARK  status: ('A' for Active; 'I' for Inactive)
REMARK    1  A    between atoms: C2_2  and  N1_3
REMARK       I    between atoms: C3_5  and  N2_6
REMARK       I    between atoms: C3_5  and  N3_9
REMARK    2  A    between atoms: N3_9  and  C5_11
REMARK    3  A    between atoms: C5_11  and  C6_12
REMARK    4  A    between atoms: C6_12  and  N4_14
REMARK    5  A    between atoms: N4_14  and  C7_16
ROOT
HETATM    1  C5  UNL     1      61.281   0.428  39.629  1.00  0.00     0.207 C
ENDROOT
BRANCH   1   2
HETATM    2  N3  UNL     1      62.258   1.111  40.483  1.00  0.00    -0.220 N
HETATM    3  C3  UNL     1      62.663   2.419  40.118  1.00  0.00     0.669 C
HETATM    4  N1  UNL     1      61.973   3.411  40.515  1.00  0.00    -0.227 N
HETATM    5  N2  UNL     1      63.804   2.610  39.333  1.00  0.00    -0.231 N
ATOM      6  H1  UNL     1      61.153   3.196  41.083  1.00  0.00     0.177 HD
HETATM    7  C4  UNL     1      63.840   2.080  37.992  1.00  0.00     0.165 C
ATOM      8  H2  UNL     1      64.606   3.119  39.706  1.00  0.00     0.177 HD
ATOM      9  H3  UNL     1      62.636   0.658  41.315  1.00  0.00     0.178 HD
BRANCH   4  10
HETATM   10  C2  UNL     1      62.220   4.791  40.252  1.00  0.00     0.133 C
HETATM   11  C1  UNL     1      60.916   5.535  40.268  1.00  0.00     0.027 C
ENDBRANCH   4  10
ENDBRANCH   1   2
BRANCH   1  12
HETATM   12  C6  UNL     1      60.107   0.075  40.431  1.00  0.00     0.092 C
HETATM   13  S1  UNL     1      60.297  -0.511  41.937  1.00  0.00    -0.064 SA
BRANCH  12  14
HETATM   14  N4  UNL     1      58.808   0.233  39.917  1.00  0.00    -0.378 N
ATOM     15  H4  UNL     1      58.532   1.159  39.590  1.00  0.00     0.160 HD
BRANCH  14  16
HETATM   16  C7  UNL     1      57.835  -0.839  39.821  1.00  0.00     0.082 C
HETATM   17  C8  UNL     1      58.380  -1.870  38.868  1.00  0.00     0.025 C
HETATM   18  C9  UNL     1      58.307  -1.465  37.431  1.00  0.00     0.002 C
HETATM   19  C10 UNL     1      57.031  -0.826  37.026  1.00  0.00     0.000 C
HETATM   20  C11 UNL     1      55.996  -0.943  38.122  1.00  0.00     0.002 C
HETATM   21  C12 UNL     1      56.555  -0.222  39.328  1.00  0.00     0.025 C
ENDBRANCH  14  16
ENDBRANCH  12  14
ENDBRANCH   1  12
TORSDOF 5
ENDMDL