MODEL 1
REMARK VINA RESULT: -7.257006769      0.000      0.000
REMARK  4 active torsions:
REMARK  status: ('A' for Active; 'I' for Inactive)
REMARK       I    between atoms: C1_2  and  N3_12
REMARK    1  A    between atoms: N2_3  and  C2_5
REMARK    2  A    between atoms: C2_5  and  C3_6
REMARK    3  A    between atoms: N3_12  and  C9_14
REMARK    4  A    between atoms: C9_14  and  C10_15
ROOT
HETATM    1  N1  UNL     1      60.592  -0.905  43.475  1.00  0.00    -0.064 NA
HETATM    2  C1  UNL     1      60.803  -0.058  42.365  1.00  0.00     0.184 C
HETATM    3  N2  UNL     1      60.140  -0.254  41.290  1.00  0.00    -0.364 N
ATOM      4  H2  UNL     1      60.291   0.358  40.488  1.00  0.00     0.162 HD
HETATM    5  N3  UNL     1      61.732   1.007  42.416  1.00  0.00    -0.364 N
ATOM      6  H3  UNL     1      62.724   0.820  42.271  1.00  0.00     0.162 HD
ENDROOT
BRANCH   3   7
HETATM    7  C2  UNL     1      59.176  -1.332  41.193  1.00  0.00     0.126 C
BRANCH   7   8
HETATM    8  C3  UNL     1      58.686  -1.364  39.764  1.00  0.00     0.003 C
HETATM    9  C4  UNL     1      58.029  -0.050  39.460  1.00  0.00     0.006 C
HETATM   10  C5  UNL     1      56.613  -0.332  38.996  1.00  0.00     0.000 C
HETATM   11  C6  UNL     1      56.634  -1.235  37.797  1.00  0.00     0.000 C
HETATM   12  C7  UNL     1      57.403  -2.510  38.039  1.00  0.00     0.000 C
HETATM   13  C8  UNL     1      57.763  -2.538  39.514  1.00  0.00     0.006 C
ENDBRANCH   7   8
ENDBRANCH   3   7
BRANCH   5  14
HETATM   14  C9  UNL     1      61.286   2.355  42.673  1.00  0.00     0.127 C
BRANCH  14  15
HETATM   15  C10 UNL     1      61.489   3.237  41.484  1.00  0.00     0.013 C
HETATM   16  C11 UNL     1      60.685   4.502  41.569  1.00  0.00     0.051 C
HETATM   17  C12 UNL     1      60.915   5.388  40.403  1.00  0.00     0.060 C
HETATM   18  N4  UNL     1      62.067   5.211  39.648  1.00  0.00    -0.382 N
HETATM   19  C13 UNL     1      63.134   4.451  40.112  1.00  0.00     0.060 C
ATOM     20  H4  UNL     1      62.132   5.650  38.729  1.00  0.00     0.163 HD
HETATM   21  C14 UNL     1      62.926   3.655  41.360  1.00  0.00     0.051 C
ENDBRANCH  14  15
ENDBRANCH   5  14
TORSDOF 4
ENDMDL