MODEL 1
REMARK VINA RESULT: -7.242340012      0.000      0.000
REMARK  4 active torsions:
REMARK  status: ('A' for Active; 'I' for Inactive)
REMARK       I    between atoms: C1_4  and  N2_5
REMARK       I    between atoms: C1_4  and  N4_15
REMARK    1  A    between atoms: N2_5  and  C2_7
REMARK    2  A    between atoms: C2_7  and  C3_8
REMARK    3  A    between atoms: C3_8  and  N3_9
REMARK    4  A    between atoms: N4_15  and  C9_17
ROOT
HETATM    1  N1  UNL     1      61.364  -0.493  40.172  1.00  0.00    -0.235 N
ATOM      2  H11 UNL     1      61.182  -0.274  39.193  1.00  0.00     0.174 HD
ATOM      3  H12 UNL     1      62.306  -0.703  40.500  1.00  0.00     0.174 HD
HETATM    4  C1  UNL     1      60.390  -0.503  40.999  1.00  0.00     0.667 C
HETATM    5  N2  UNL     1      60.641  -0.806  42.353  1.00  0.00    -0.225 N
ATOM      6  H2  UNL     1      60.207  -1.631  42.766  1.00  0.00     0.177 HD
HETATM    7  N4  UNL     1      59.087  -0.213  40.546  1.00  0.00    -0.222 N
ATOM      8  H4  UNL     1      58.589   0.546  41.009  1.00  0.00     0.178 HD
ENDROOT
BRANCH   5   9
HETATM    9  C2  UNL     1      61.510   0.031  43.181  1.00  0.00     0.157 C
BRANCH   9  10
HETATM   10  C3  UNL     1      60.857   1.367  43.275  1.00  0.00     0.142 C
BRANCH  10  11
HETATM   11  N3  UNL     1      61.684   2.497  43.088  1.00  0.00    -0.392 N
HETATM   12  C4  UNL     1      60.909   3.687  43.081  1.00  0.00     0.122 C
HETATM   13  C5  UNL     1      60.548   3.966  41.622  1.00  0.00     0.020 C
HETATM   14  C6  UNL     1      61.841   4.420  40.979  1.00  0.00     0.007 C
HETATM   15  C7  UNL     1      63.032   3.634  41.360  1.00  0.00     0.044 C
HETATM   16  C8  UNL     1      62.767   2.424  42.202  1.00  0.00     0.058 C
ENDBRANCH  10  11
ENDBRANCH   9  10
ENDBRANCH   5   9
BRANCH   7  17
HETATM   17  C9  UNL     1      58.409  -0.894  39.491  1.00  0.00     0.099 C
HETATM   18  C10 UNL     1      58.061  -2.341  39.824  1.00  0.00     0.026 C
HETATM   19  C11 UNL     1      57.746  -2.995  38.476  1.00  0.00     0.002 C
HETATM   20  C12 UNL     1      56.654  -2.302  37.734  1.00  0.00     0.000 C
HETATM   21  C13 UNL     1      56.662  -0.819  37.801  1.00  0.00     0.002 C
HETATM   22  C14 UNL     1      57.082  -0.237  39.123  1.00  0.00     0.026 C
ENDBRANCH   7  17
TORSDOF 4
ENDMDL