MODEL 5
REMARK VINA RESULT: -5.953516495      2.850      6.599
REMARK  5 active torsions:
REMARK  status: ('A' for Active; 'I' for Inactive)
REMARK    1  A    between atoms: C1_2  and  N2_4
REMARK    2  A    between atoms: N2_4  and  C2_6
REMARK    3  A    between atoms: C2_6  and  C3_7
REMARK    4  A    between atoms: C3_7  and  N3_8
REMARK    5  A    between atoms: N3_8  and  C4_10
ROOT
HETATM    1  C4  UNL     1      60.951   1.717  41.325  1.00  0.00     0.084 C
HETATM    2  C5  UNL     1      60.955   3.161  41.702  1.00  0.00     0.009 C
HETATM    3  C6  UNL     1      61.768   4.075  40.862  1.00  0.00     0.011 C
HETATM    4  C7  UNL     1      63.209   3.585  40.782  1.00  0.00    -0.013 C
HETATM    5  C8  UNL     1      63.796   3.629  42.178  1.00  0.00     0.009 C
HETATM    6  C9  UNL     1      62.967   2.702  43.035  1.00  0.00    -0.013 C
HETATM    7  C10 UNL     1      61.554   3.230  43.117  1.00  0.00     0.011 C
HETATM    8  C11 UNL     1      63.038   1.308  42.456  1.00  0.00     0.011 C
HETATM    9  C12 UNL     1      62.358   1.278  41.070  1.00  0.00     0.009 C
HETATM   10  C13 UNL     1      63.162   2.199  40.224  1.00  0.00     0.011 C
ENDROOT
BRANCH   1  11
HETATM   11  N3  UNL     1      59.955   1.306  40.416  1.00  0.00    -0.415 N
ATOM     12  H3  UNL     1      59.176   1.934  40.218  1.00  0.00     0.153 HD
BRANCH  11  13
HETATM   13  C3  UNL     1      60.002   0.064  39.779  1.00  0.00     0.133 C
BRANCH  13  14
HETATM   14  C2  UNL     1      59.145  -0.890  40.635  1.00  0.00     0.141 C
BRANCH  14  15
HETATM   15  N2  UNL     1      58.160  -1.553  39.837  1.00  0.00    -0.368 N
ATOM     16  H2  UNL     1      58.146  -2.568  39.744  1.00  0.00     0.161 HD
BRANCH  15  17
HETATM   17  C1  UNL     1      57.200  -0.731  39.177  1.00  0.00     0.181 C
HETATM   18  N1  UNL     1      56.766   0.481  39.733  1.00  0.00    -0.070 NA
HETATM   19  S1  UNL     1      56.543  -1.160  37.724  1.00  0.00    -0.044 SA
ENDBRANCH  15  17
ENDBRANCH  14  15
ENDBRANCH  13  14
ENDBRANCH  11  13
ENDBRANCH   1  11
TORSDOF 5
ENDMDL