MODEL 4
REMARK VINA RESULT: -7.153366980      2.969      3.354
REMARK  1 active torsions:
REMARK  status: ('A' for Active; 'I' for Inactive)
REMARK    1  A    between atoms: N2_7  and  N3_9
ROOT
HETATM    1  N3  UNL     1      11.248   6.417  24.127  1.00  0.00    -0.306 N
ATOM      2  H3  UNL     1      11.552   7.390  24.179  1.00  0.00     0.186 HD
HETATM    3  C5  UNL     1      12.072   5.518  23.649  1.00  0.00     0.007 C
HETATM    4  C6  UNL     1      13.414   5.948  23.202  1.00  0.00     0.059 C
HETATM    5  C7  UNL     1      14.056   4.867  22.361  1.00  0.00    -0.003 C
HETATM    6  C8  UNL     1      12.975   4.334  21.418  1.00  0.00     0.049 C
HETATM    7  C9  UNL     1      12.578   3.405  22.544  1.00  0.00     0.109 C
HETATM    8  F1  UNL     1      12.239   2.141  22.193  1.00  0.00    -0.243 F
HETATM    9  C10 UNL     1      11.694   4.096  23.549  1.00  0.00     0.097 C
HETATM   10  C11 UNL     1      14.020   3.518  23.047  1.00  0.00     0.049 C
ENDROOT
BRANCH   1  11
HETATM   11  N2  UNL     1       9.979   6.084  24.563  1.00  0.00    -0.265 N
HETATM   12  C4  UNL     1       9.018   6.894  24.736  1.00  0.00     0.243 A
HETATM   13  N1  UNL     1       9.053   8.216  24.529  1.00  0.00    -0.329 N
HETATM   14  O1  UNL     1       7.815   6.602  25.147  1.00  0.00    -0.282 OA
HETATM   15  C3  UNL     1       7.835   8.738  24.823  1.00  0.00     0.124 A
ATOM     16  H1  UNL     1       9.863   8.744  24.204  1.00  0.00     0.168 HD
HETATM   17  C2  UNL     1       7.069   7.678  25.214  1.00  0.00     0.068 A
HETATM   18  C1  UNL     1       5.657   7.765  25.633  1.00  0.00     0.078 C
ATOM     19  H2  UNL     1       9.800   5.100  24.764  1.00  0.00     0.190 HD
ENDBRANCH   1  11
TORSDOF 1
ENDMDL