MODEL 5
REMARK VINA RESULT: -5.531088139      6.439      7.921
REMARK  3 active torsions:
REMARK  status: ('A' for Active; 'I' for Inactive)
REMARK    1  A    between atoms: O1_2  and  C2_3
REMARK    2  A    between atoms: C2_3  and  O2_4
REMARK    3  A    between atoms: C9_12  and  N1_13
ROOT
HETATM    1  C2  UNL     1       6.921   8.786  24.630  1.00  0.00     0.165 C
HETATM    2  C4  UNL     1       6.912   7.338  24.771  1.00  0.00     0.074 C
HETATM    3  C5  UNL     1       7.767   6.630  25.726  1.00  0.00     0.001 C
HETATM    4  C6  UNL     1       9.129   6.990  26.077  1.00  0.00     0.049 C
HETATM    5  C7  UNL     1       8.647   7.448  27.457  1.00  0.00     0.110 C
HETATM    6  F1  UNL     1       9.358   6.999  28.520  1.00  0.00    -0.242 F
HETATM    7  C8  UNL     1       8.344   8.926  27.457  1.00  0.00     0.082 C
HETATM    8  C9  UNL     1       6.887   9.042  27.159  1.00  0.00     0.132 C
HETATM    9  C10 UNL     1       6.248   7.714  27.433  1.00  0.00     0.047 C
HETATM   10  C11 UNL     1       7.357   6.750  27.170  1.00  0.00     0.032 C
HETATM   11  C12 UNL     1       6.529   9.591  25.837  1.00  0.00     0.107 C
ENDROOT
BRANCH   1  12
HETATM   12  O1  UNL     1       6.046   9.175  23.629  1.00  0.00    -0.360 OA
HETATM   13  C1  UNL     1       4.907   9.810  23.948  1.00  0.00     0.205 C
ENDBRANCH   1  12
BRANCH   1  14
HETATM   14  O2  UNL     1       8.162   9.270  24.132  1.00  0.00    -0.360 OA
HETATM   15  C3  UNL     1       8.408   8.913  22.833  1.00  0.00     0.205 C
ENDBRANCH   1  14
BRANCH   8  16
HETATM   16  N1  UNL     1       6.335   9.979  28.154  1.00  0.00    -0.070 N
ATOM     17  H13 UNL     1       7.019  10.653  28.498  1.00  0.00     0.275 HD
ATOM     18  H12 UNL     1       5.683  10.655  27.755  1.00  0.00     0.275 HD
ATOM     19  H11 UNL     1       5.925   9.406  28.890  1.00  0.00     0.275 HD
ENDBRANCH   8  16
TORSDOF 3
ENDMDL