MODEL 4
REMARK VINA RESULT: -6.188297781      3.357      5.280
REMARK  2 active torsions:
REMARK  status: ('A' for Active; 'I' for Inactive)
REMARK    1  A    between atoms: C2_3  and  S1_4
REMARK    2  A    between atoms: C2_3  and  C3_6
ROOT
HETATM    1  N1  UNL     1      12.572   2.243  21.828  1.00  0.00    -0.196 NA
HETATM    2  C1  UNL     1      13.109   3.246  21.968  1.00  0.00     0.081 C
HETATM    3  C2  UNL     1      13.803   4.512  22.143  1.00  0.00     0.217 C
ENDROOT
BRANCH   3   4
HETATM    4  S1  UNL     1      15.028   4.354  23.502  1.00  0.00    -0.034 SA
HETATM    5 CL1  UNL     1      16.932   4.900  22.830  1.00  0.00    -0.042 Cl
ENDBRANCH   3   4
BRANCH   3   6
HETATM    6  C3  UNL     1      12.877   5.591  22.539  1.00  0.00     0.039 C
HETATM    7  N2  UNL     1      11.835   5.439  23.292  1.00  0.00    -0.349 N
HETATM    8  C4  UNL     1      11.313   6.676  23.385  1.00  0.00     0.077 C
ATOM      9  H2  UNL     1      11.489   4.578  23.717  1.00  0.00     0.167 HD
HETATM   10  C5  UNL     1      10.221   7.444  23.819  1.00  0.00     0.076 C
HETATM   11  N3  UNL     1      11.480   7.091  22.034  1.00  0.00    -0.370 N
HETATM   12  C6  UNL     1      10.799   8.873  23.623  1.00  0.00     0.007 C
HETATM   13  C7  UNL     1      12.199   9.066  23.364  1.00  0.00     0.003 C
HETATM   14  C8  UNL     1      13.256   8.120  22.951  1.00  0.00     0.031 C
HETATM   15  C9  UNL     1      12.942   7.001  22.066  1.00  0.00     0.131 C
ATOM     16  H3  UNL     1      10.818   7.357  21.305  1.00  0.00     0.161 HD
ENDBRANCH   3   6
TORSDOF 2
ENDMDL