MODEL 1
REMARK VINA RESULT: -6.919015464      0.000      0.000
REMARK  1 active torsions:
REMARK  status: ('A' for Active; 'I' for Inactive)
REMARK       I    between atoms: N1_2  and  C2_4
REMARK    1  A    between atoms: C2_4  and  C3_6
ROOT
HETATM    1  C3  UNL     1      13.333   6.558  22.851  1.00  0.00     0.206 C
HETATM    2  C4  UNL     1      14.777   6.830  23.190  1.00  0.00     0.063 C
HETATM    3  O2  UNL     1      13.187   6.021  21.576  1.00  0.00    -0.216 OA
HETATM    4  O3  UNL     1      12.071   5.326  21.659  1.00  0.00    -0.225 OA
HETATM    5  C5  UNL     1      12.349   4.451  22.702  1.00  0.00     0.130 C
HETATM    6  C6  UNL     1      13.394   3.485  22.267  1.00  0.00     0.044 C
HETATM    7  C7  UNL     1      12.612   2.264  21.825  1.00  0.00     0.003 C
HETATM    8  C8  UNL     1      11.198   2.453  22.269  1.00  0.00     0.003 C
HETATM    9  C9  UNL     1      11.147   3.674  23.148  1.00  0.00     0.044 C
HETATM   10  C10 UNL     1      12.839   5.425  23.766  1.00  0.00     0.254 C
HETATM   11  F1  UNL     1      13.870   4.829  24.429  1.00  0.00    -0.242 F
ENDROOT
BRANCH   1  12
HETATM   12  C2  UNL     1      12.482   7.748  22.976  1.00  0.00     0.258 C
HETATM   13  N1  UNL     1      11.187   7.650  23.523  1.00  0.00    -0.363 N
HETATM   14  C1  UNL     1      10.300   8.792  23.673  1.00  0.00     0.149 C
ATOM     15  H1  UNL     1      10.856   6.735  23.829  1.00  0.00     0.162 HD
HETATM   16  O1  UNL     1      12.930   8.851  22.588  1.00  0.00    -0.270 OA
ENDBRANCH   1  12
TORSDOF 1
ENDMDL