MODEL 3
REMARK VINA RESULT: -6.078405092      0.919      1.026
REMARK  4 active torsions:
REMARK  status: ('A' for Active; 'I' for Inactive)
REMARK    1  A    between atoms: C2_2  and  O2_4
REMARK    2  A    between atoms: O2_4  and  N1_5
REMARK    3  A    between atoms: N1_5  and  C3_7
REMARK    4  A    between atoms: N2_9  and  C4_11
ROOT
HETATM    1  C3  UNL     1      10.561   4.977  25.535  1.00  0.00     0.195 C
HETATM    2 CL1  UNL     1      11.786   4.472  26.652  1.00  0.00    -0.043 Cl
HETATM    3  N2  UNL     1      10.725   4.790  24.290  1.00  0.00    -0.361 N
ATOM      4  H2  UNL     1       9.973   5.107  23.678  1.00  0.00     0.162 HD
ENDROOT
BRANCH   1   5
HETATM    5  N1  UNL     1       9.396   5.589  26.025  1.00  0.00    -0.232 N
ATOM      6  H1  UNL     1       9.189   5.498  27.020  1.00  0.00     0.197 HD
BRANCH   5   7
HETATM    7  O2  UNL     1       8.517   6.305  25.244  1.00  0.00    -0.198 OA
BRANCH   7   8
HETATM    8  C2  UNL     1       8.805   7.614  24.862  1.00  0.00     0.277 C
HETATM    9  C1  UNL     1       8.324   8.793  25.635  1.00  0.00     0.128 C
HETATM   10  O1  UNL     1       9.508   7.738  23.809  1.00  0.00    -0.264 OA
ENDBRANCH   7   8
ENDBRANCH   5   7
ENDBRANCH   1   5
BRANCH   3  11
HETATM   11  C4  UNL     1      11.849   4.183  23.654  1.00  0.00     0.084 C
HETATM   12  C5  UNL     1      11.419   3.088  22.690  1.00  0.00     0.025 C
HETATM   13  C6  UNL     1      12.640   2.632  21.901  1.00  0.00     0.002 C
HETATM   14  C7  UNL     1      13.119   3.723  20.972  1.00  0.00     0.000 C
HETATM   15  C8  UNL     1      12.498   5.033  21.382  1.00  0.00     0.002 C
HETATM   16  C9  UNL     1      12.584   5.266  22.874  1.00  0.00     0.025 C
ENDBRANCH   3  11
TORSDOF 4
ENDMDL