MODEL 1
REMARK VINA RESULT: -5.944758122      0.000      0.000
REMARK  2 active torsions:
REMARK  status: ('A' for Active; 'I' for Inactive)
REMARK    1  A    between atoms: C2_2  and  C4_5
REMARK    2  A    between atoms: C5_12  and  N4_13
ROOT
HETATM    1  C4  UNL     1      13.719   6.245  22.935  1.00  0.00     0.095 A
HETATM    2  N1  UNL     1      14.771   6.933  23.473  1.00  0.00    -0.285 N
ATOM      3  H1  UNL     1      14.717   7.881  23.845  1.00  0.00     0.188 HD
HETATM    4  N2  UNL     1      15.868   6.197  23.444  1.00  0.00    -0.241 N
ATOM      5  H2  UNL     1      16.792   6.466  23.781  1.00  0.00     0.208 HD
HETATM    6  N3  UNL     1      15.534   5.049  22.896  1.00  0.00    -0.269 N
ATOM      7  H3  UNL     1      16.178   4.273  22.740  1.00  0.00     0.190 HD
HETATM    8  C5  UNL     1      14.206   5.037  22.564  1.00  0.00     0.145 A
ENDROOT
BRANCH   8   9
HETATM    9  N4  UNL     1      13.548   3.965  21.957  1.00  0.00    -0.364 N
HETATM   10  C6  UNL     1      13.224   3.778  20.574  1.00  0.00     0.124 C
HETATM   11  C7  UNL     1      11.835   3.128  20.628  1.00  0.00     0.021 C
HETATM   12  C8  UNL     1      11.760   2.457  21.984  1.00  0.00     0.021 C
HETATM   13  C9  UNL     1      13.056   2.799  22.658  1.00  0.00     0.124 C
ENDBRANCH   8   9
BRANCH   1  14
HETATM   14  C2  UNL     1      12.373   6.807  22.842  1.00  0.00     0.077 C
HETATM   15  C1  UNL     1      12.362   8.284  23.286  1.00  0.00     0.039 C
HETATM   16  C3  UNL     1      11.422   6.142  23.847  1.00  0.00     0.039 C
HETATM   17 CL1  UNL     1      11.688   6.706  21.222  1.00  0.00    -0.113 Cl
ENDBRANCH   1  14
TORSDOF 2
ENDMDL