MODEL 2
REMARK VINA RESULT: -6.019164930      4.131      5.762
REMARK  3 active torsions:
REMARK  status: ('A' for Active; 'I' for Inactive)
REMARK    1  A    between atoms: C2_2  and  O1_5
REMARK    2  A    between atoms: O1_5  and  C5_6
REMARK       I    between atoms: C5_6  and  N1_8
REMARK    3  A    between atoms: N1_8  and  N2_10
ROOT
HETATM    1  C5  UNL     1      10.443   5.399  25.581  1.00  0.00     0.380 C
HETATM    2  O2  UNL     1       9.356   5.452  24.962  1.00  0.00    -0.237 OA
HETATM    3  N1  UNL     1      11.615   5.049  24.903  1.00  0.00    -0.240 N
ATOM      4  H1  UNL     1      12.470   5.020  25.458  1.00  0.00     0.193 HD
ENDROOT
BRANCH   3   5
HETATM    5  N2  UNL     1      11.738   4.742  23.578  1.00  0.00    -0.282 N
HETATM    6  C6  UNL     1      11.520   3.428  23.181  1.00  0.00     0.091 C
HETATM    7  C7  UNL     1      12.196   2.903  21.986  1.00  0.00     0.084 C
HETATM    8  C8  UNL     1      13.130   3.834  21.278  1.00  0.00     0.179 C
HETATM    9  F1  UNL     1      13.225   3.475  19.940  1.00  0.00    -0.249 F
HETATM   10  C9  UNL     1      12.572   5.232  21.390  1.00  0.00     0.084 C
HETATM   11  C10 UNL     1      12.611   5.573  22.865  1.00  0.00     0.091 C
ENDBRANCH   3   5
BRANCH   1  12
HETATM   12  O1  UNL     1      10.385   5.700  26.927  1.00  0.00    -0.293 OA
BRANCH  12  13
HETATM   13  C2  UNL     1      10.608   4.735  27.885  1.00  0.00     0.061 C
HETATM   14  C1  UNL     1       9.774   3.491  27.752  1.00  0.00     0.046 C
HETATM   15  C3  UNL     1      12.065   4.330  27.858  1.00  0.00     0.046 C
HETATM   16  C4  UNL     1      10.308   5.316  29.268  1.00  0.00     0.046 C
ENDBRANCH  12  13
ENDBRANCH   1  12
TORSDOF 3
ENDMDL