MODEL 1
REMARK VINA RESULT: -5.587459534      0.000      0.000
REMARK  3 active torsions:
REMARK  status: ('A' for Active; 'I' for Inactive)
REMARK    1  A    between atoms: O1_2  and  C2_3
REMARK    2  A    between atoms: C2_3  and  C3_5
REMARK    3  A    between atoms: C7_9  and  C9_11
ROOT
HETATM    1  C3  UNL     1      11.867   7.021  22.942  1.00  0.00     0.111 C
HETATM    2  C4  UNL     1      12.903   8.127  23.190  1.00  0.00     0.049 C
HETATM    3  C5  UNL     1      12.145   6.460  21.573  1.00  0.00     0.041 C
HETATM    4  C6  UNL     1      13.185   5.385  21.662  1.00  0.00     0.015 C
HETATM    5  C7  UNL     1      12.681   4.250  22.524  1.00  0.00    -0.016 C
HETATM    6  C8  UNL     1      11.855   3.282  21.683  1.00  0.00     0.018 C
HETATM    7  C10 UNL     1      11.810   4.712  23.650  1.00  0.00     0.125 C
HETATM    8  N1  UNL     1      11.974   6.089  23.998  1.00  0.00    -0.404 N
ATOM      9  H1  UNL     1      12.157   6.382  24.957  1.00  0.00     0.154 HD
ENDROOT
BRANCH   1  10
HETATM   10  C2  UNL     1      10.550   7.707  22.880  1.00  0.00     0.286 C
HETATM   11  O2  UNL     1       9.754   7.609  23.847  1.00  0.00    -0.262 OA
BRANCH  10  12
HETATM   12  O1  UNL     1      10.145   8.462  21.793  1.00  0.00    -0.325 OA
HETATM   13  C1  UNL     1       9.122   9.419  21.915  1.00  0.00     0.213 C
ENDBRANCH  10  12
ENDBRANCH   1  10
BRANCH   5  14
HETATM   14  C9  UNL     1      13.892   3.475  23.004  1.00  0.00     0.125 C
HETATM   15 CL1  UNL     1      15.191   4.651  23.308  1.00  0.00    -0.130 Cl
ENDBRANCH   5  14
TORSDOF 3
ENDMDL