MODEL 3
REMARK VINA RESULT: -7.315106318      2.226      3.502
REMARK  2 active torsions:
REMARK  status: ('A' for Active; 'I' for Inactive)
REMARK    1  A    between atoms: O1_2  and  C2_3
REMARK    2  A    between atoms: C2_3  and  C3_5
ROOT
HETATM    1  C3  UNL     1      12.308   6.422  22.734  1.00  0.00     0.053 C
HETATM    2  C4  UNL     1      13.650   7.051  22.809  1.00  0.00     0.022 C
HETATM    3  C5  UNL     1      14.750   6.227  23.326  1.00  0.00     0.026 C
HETATM    4  C6  UNL     1      14.715   4.776  22.988  1.00  0.00     0.080 C
HETATM    5  C7  UNL     1      13.951   4.042  24.099  1.00  0.00     0.029 C
HETATM    6  C8  UNL     1      12.466   4.161  23.847  1.00  0.00    -0.007 C
HETATM    7  C9  UNL     1      12.181   3.485  22.531  1.00  0.00     0.071 C
HETATM    8  C10 UNL     1      12.895   4.331  21.466  1.00  0.00     0.173 C
HETATM    9  F1  UNL     1      12.677   3.705  20.256  1.00  0.00    -0.220 F
HETATM   10  C11 UNL     1      12.158   5.643  21.420  1.00  0.00     0.086 C
HETATM   11  N1  UNL     1      14.262   4.439  21.709  1.00  0.00    -0.384 N
ATOM     12  H1  UNL     1      14.931   4.272  20.957  1.00  0.00     0.156 HD
HETATM   13  C12 UNL     1      11.974   5.565  23.928  1.00  0.00     0.025 C
ENDROOT
BRANCH   1  14
HETATM   14  C2  UNL     1      11.292   7.504  22.658  1.00  0.00     0.267 C
HETATM   15  O2  UNL     1      10.853   7.847  21.532  1.00  0.00    -0.264 OA
BRANCH  14  16
HETATM   16  O1  UNL     1      10.803   8.157  23.777  1.00  0.00    -0.326 OA
HETATM   17  C1  UNL     1       9.408   8.374  23.872  1.00  0.00     0.213 C
ENDBRANCH  14  16
ENDBRANCH   1  14
TORSDOF 2
ENDMDL