MODEL 3
REMARK VINA RESULT: -5.926936962      2.209      3.156
REMARK  1 active torsions:
REMARK  status: ('A' for Active; 'I' for Inactive)
REMARK    1  A    between atoms: N1_2  and  C2_5
ROOT
HETATM    1  C2  UNL     1      10.354   5.777  24.488  1.00  0.00     0.193 C
HETATM    2  C3  UNL     1      10.293   7.297  24.428  1.00  0.00     0.038 C
HETATM    3  C4  UNL     1      11.097   7.625  23.189  1.00  0.00    -0.011 C
HETATM    4  C5  UNL     1      11.756   8.969  23.262  1.00  0.00     0.010 C
HETATM    5  C6  UNL     1      12.176   6.551  23.158  1.00  0.00     0.008 C
HETATM    6  C7  UNL     1      12.254   6.074  21.743  1.00  0.00     0.087 C
HETATM    7  S1  UNL     1      13.662   4.885  21.690  1.00  0.00    -0.089 SA
HETATM    8  C8  UNL     1      13.538   4.097  23.318  1.00  0.00     0.220 C
HETATM    9  O1  UNL     1      14.505   3.653  23.851  1.00  0.00    -0.282 OA
HETATM   10  C9  UNL     1      12.141   4.106  23.841  1.00  0.00     0.257 C
HETATM   11  F1  UNL     1      11.340   3.610  22.835  1.00  0.00    -0.240 F
HETATM   12  C10 UNL     1      11.804   5.532  24.180  1.00  0.00     0.064 C
ENDROOT
BRANCH   1  13
HETATM   13  N1  UNL     1       9.979   5.392  25.831  1.00  0.00    -0.074 N
HETATM   14  C1  UNL     1       8.864   6.140  26.353  1.00  0.00     0.267 C
ATOM     15  H12 UNL     1      10.780   5.450  26.460  1.00  0.00     0.277 HD
ATOM     16  H11 UNL     1       9.797   4.389  25.881  1.00  0.00     0.277 HD
ENDBRANCH   1  13
TORSDOF 1
ENDMDL