MODEL 1
REMARK VINA RESULT: -4.268089421      0.000      0.000
REMARK  5 active torsions:
REMARK  status: ('A' for Active; 'I' for Inactive)
REMARK    1  A    between atoms: N1_1  and  C1_5
REMARK    2  A    between atoms: C1_5  and  C2_6
REMARK    3  A    between atoms: C2_6  and  N2_7
REMARK    4  A    between atoms: C4_9  and  N3_10
REMARK    5  A    between atoms: N3_10  and  N4_11
ROOT
HETATM    1  N2  UNL     1     113.998  29.990  27.639  1.00  0.00    -0.231 NA
HETATM    2  C3  UNL     1     114.241  31.418  27.754  1.00  0.00     0.133 C
HETATM    3  C4  UNL     1     114.211  31.860  26.328  1.00  0.00     0.129 C
HETATM    4  C5  UNL     1     114.810  30.658  25.609  1.00  0.00     0.153 C
HETATM    5  N5  UNL     1     114.833  29.593  26.599  1.00  0.00    -0.163 NA
ENDROOT
BRANCH   1   6
HETATM    6  C2  UNL     1     114.420  29.336  28.853  1.00  0.00     0.137 C
BRANCH   6   7
HETATM    7  C1  UNL     1     115.694  29.934  29.400  1.00  0.00     0.245 C
BRANCH   7   8
HETATM    8  N1  UNL     1     116.264  29.042  30.389  1.00  0.00    -0.078 N
ATOM      9  H13 UNL     1     116.370  29.492  31.298  1.00  0.00     0.274 HD
ATOM     10  H12 UNL     1     115.613  28.307  30.665  1.00  0.00     0.274 HD
ATOM     11  H11 UNL     1     117.146  28.664  30.041  1.00  0.00     0.274 HD
ENDBRANCH   7   8
ENDBRANCH   6   7
ENDBRANCH   1   6
BRANCH   3  12
HETATM   12  N3  UNL     1     114.979  33.059  26.083  1.00  0.00    -0.141 NA
BRANCH  12  13
HETATM   13  N4  UNL     1     116.322  32.748  26.090  1.00  0.00    -0.348 N
ATOM     14  H42 UNL     1     117.057  33.364  26.440  1.00  0.00     0.172 HD
ATOM     15  H41 UNL     1     116.454  31.818  25.693  1.00  0.00     0.172 HD
ENDBRANCH  12  13
ENDBRANCH   3  12
TORSDOF 5
ENDMDL