MODEL 2
REMARK VINA RESULT: -4.754802136      3.118      4.074
REMARK  3 active torsions:
REMARK  status: ('A' for Active; 'I' for Inactive)
REMARK    1  A    between atoms: N2_4  and  O1_6
REMARK    2  A    between atoms: O1_6  and  C1_7
REMARK    3  A    between atoms: C1_7  and  C2_8
ROOT
HETATM    1  C2  UNL     1     112.807  35.548  25.899  1.00  0.00     0.154 A
HETATM    2  N3  UNL     1     111.667  35.978  26.471  1.00  0.00    -0.334 N
ATOM      3  H3  UNL     1     111.582  35.932  27.486  1.00  0.00     0.168 HD
HETATM    4  C3  UNL     1     110.634  36.467  25.760  1.00  0.00     0.185 A
HETATM    5  N4  UNL     1     110.734  36.531  24.436  1.00  0.00    -0.318 N
ATOM      6  H4  UNL     1     109.967  36.897  23.871  1.00  0.00     0.170 HD
HETATM    7  C4  UNL     1     111.873  36.102  23.860  1.00  0.00     0.224 A
HETATM    8  N5  UNL     1     111.947  36.175  22.574  1.00  0.00    -0.365 N
ATOM      9  H51 UNL     1     112.809  35.850  22.138  1.00  0.00     0.159 HD
ATOM     10  H52 UNL     1     111.177  36.541  22.014  1.00  0.00     0.159 HD
HETATM   11  O2  UNL     1     112.877  35.624  24.590  1.00  0.00    -0.264 OA
ENDROOT
BRANCH   1  12
HETATM   12  C1  UNL     1     113.939  35.015  26.653  1.00  0.00     0.287 C
BRANCH  12  13
HETATM   13  O1  UNL     1     114.679  34.034  25.998  1.00  0.00    -0.257 OA
BRANCH  13  14
HETATM   14  N2  UNL     1     115.734  33.350  26.494  1.00  0.00    -0.214 N
HETATM   15  N1  UNL     1     116.576  33.929  27.252  1.00  0.00    -0.326 N
ATOM     16  H12 UNL     1     116.441  34.915  27.477  1.00  0.00     0.178 HD
ATOM     17  H11 UNL     1     117.372  33.413  27.626  1.00  0.00     0.178 HD
ATOM     18  H2  UNL     1     115.856  32.364  26.260  1.00  0.00     0.215 HD
ENDBRANCH  13  14
ENDBRANCH  12  13
ENDBRANCH   1  12
TORSDOF 3
ENDMDL