MODEL 5
REMARK VINA RESULT: -4.783914480      1.434      1.618
REMARK  5 active torsions:
REMARK  status: ('A' for Active; 'I' for Inactive)
REMARK    1  A    between atoms: N1_1  and  C1_5
REMARK    2  A    between atoms: C3_7  and  N2_8
REMARK    3  A    between atoms: C3_7  and  C4_12
REMARK    4  A    between atoms: C4_12  and  O1_13
REMARK    5  A    between atoms: O1_13  and  C5_14
ROOT
HETATM    1  C1  UNL     1     114.287  28.687  29.447  1.00  0.00     0.223 A
HETATM    2  C2  UNL     1     115.606  28.711  30.252  1.00  0.00     0.078 A
HETATM    3  C3  UNL     1     115.094  29.924  29.599  1.00  0.00     0.174 A
ENDROOT
BRANCH   3   4
HETATM    4  N2  UNL     1     114.555  31.034  30.375  1.00  0.00    -0.066 N
ATOM      5  H23 UNL     1     114.440  31.839  29.759  1.00  0.00     0.275 HD
ATOM      6  H22 UNL     1     113.586  30.825  30.615  1.00  0.00     0.275 HD
ATOM      7  H21 UNL     1     115.043  31.335  31.218  1.00  0.00     0.275 HD
ENDBRANCH   3   4
BRANCH   3   8
HETATM    8  C4  UNL     1     115.870  30.394  28.379  1.00  0.00     0.211 C
BRANCH   8   9
HETATM    9  O1  UNL     1     115.354  29.710  27.265  1.00  0.00    -0.365 OA
BRANCH   9  10
HETATM   10  C5  UNL     1     114.804  30.581  26.341  1.00  0.00     0.245 C
HETATM   11  C6  UNL     1     115.704  31.699  25.890  1.00  0.00     0.180 C
HETATM   12  N3  UNL     1     115.997  30.948  24.676  1.00  0.00    -0.142 NA
HETATM   13  N4  UNL     1     114.851  30.173  24.968  1.00  0.00    -0.115 NA
ENDBRANCH   9  10
ENDBRANCH   8   9
ENDBRANCH   3   8
BRANCH   1  14
HETATM   14  N1  UNL     1     113.110  28.441  30.229  1.00  0.00    -0.072 N
ATOM     15  H13 UNL     1     112.629  29.318  30.430  1.00  0.00     0.274 HD
ATOM     16  H12 UNL     1     112.401  27.976  29.662  1.00  0.00     0.274 HD
ATOM     17  H11 UNL     1     113.271  27.920  31.091  1.00  0.00     0.274 HD
ENDBRANCH   1  14
TORSDOF 5
ENDMDL