MODEL 2
REMARK VINA RESULT: -4.935806757      3.382      5.097
REMARK  2 active torsions:
REMARK  status: ('A' for Active; 'I' for Inactive)
REMARK    1  A    between atoms: N2_3  and  N3_5
REMARK    2  A    between atoms: C2_7  and  C3_8
ROOT
HETATM    1  C3  UNL     1     115.727  29.993  28.847  1.00  0.00     0.335 C
HETATM    2  N4  UNL     1     115.803  29.446  30.187  1.00  0.00    -0.037 N
ATOM      3  H41 UNL     1     115.534  30.100  30.923  1.00  0.00     0.281 HD
ATOM      4  H42 UNL     1     116.753  29.288  30.522  1.00  0.00     0.281 HD
HETATM    5  C4  UNL     1     114.992  28.258  30.125  1.00  0.00     0.364 C
HETATM    6  N5  UNL     1     114.153  28.342  28.972  1.00  0.00    -0.119 NA
HETATM    7  N6  UNL     1     114.506  29.475  28.263  1.00  0.00    -0.108 NA
ENDROOT
BRANCH   1   8
HETATM    8  C2  UNL     1     115.657  31.460  28.873  1.00  0.00     0.131 C
HETATM    9  N3  UNL     1     115.977  32.132  27.829  1.00  0.00    -0.312 N
ATOM     10  H3  UNL     1     115.932  33.150  27.837  1.00  0.00     0.185 HD
BRANCH   9  11
HETATM   11  N2  UNL     1     116.386  31.453  26.682  1.00  0.00    -0.299 N
HETATM   12  C1  UNL     1     116.134  31.982  25.533  1.00  0.00     0.206 C
HETATM   13  N1  UNL     1     116.550  31.293  24.369  1.00  0.00    -0.095 NA
ATOM     14  H2  UNL     1     116.873  30.560  26.750  1.00  0.00     0.187 HD
ENDBRANCH   9  11
ENDBRANCH   1   8
TORSDOF 2
ENDMDL