MODEL 2
REMARK VINA RESULT: -3.963995222      4.443      5.654
REMARK  4 active torsions:
REMARK  status: ('A' for Active; 'I' for Inactive)
REMARK    1  A    between atoms: N1_2  and  C2_5
REMARK    2  A    between atoms: C2_5  and  C3_6
REMARK    3  A    between atoms: C5_12  and  N4_13
REMARK    4  A    between atoms: N4_13  and  N5_14
ROOT
HETATM    1  C3  UNL     1     112.933  36.147  26.324  1.00  0.00     0.090 C
HETATM    2  N2  UNL     1     113.348  36.618  27.520  1.00  0.00    -0.327 N
HETATM    3  C4  UNL     1     113.052  36.303  28.823  1.00  0.00     0.363 C
HETATM    4  N3  UNL     1     113.970  37.419  29.226  1.00  0.00    -0.022 N
ATOM      5  H31 UNL     1     114.622  37.312  30.003  1.00  0.00     0.283 HD
ATOM      6  H32 UNL     1     113.611  38.261  29.675  1.00  0.00     0.283 HD
HETATM    7  C5  UNL     1     114.450  37.442  27.811  1.00  0.00     0.403 C
ENDROOT
BRANCH   1   8
HETATM    8  C2  UNL     1     111.521  36.401  25.861  1.00  0.00     0.276 C
BRANCH   8   9
HETATM    9  N1  UNL     1     111.441  37.045  24.573  1.00  0.00    -0.075 N
HETATM   10  C1  UNL     1     111.837  36.126  23.489  1.00  0.00     0.267 C
ATOM     11  H12 UNL     1     111.986  37.907  24.550  1.00  0.00     0.277 HD
ATOM     12  H11 UNL     1     110.515  37.440  24.409  1.00  0.00     0.277 HD
ENDBRANCH   8   9
ENDBRANCH   1   8
BRANCH   7  13
HETATM   13  N4  UNL     1     115.714  36.704  27.704  1.00  0.00    -0.093 NA
BRANCH  13  14
HETATM   14  N5  UNL     1     116.825  37.545  27.848  1.00  0.00    -0.345 N
ATOM     15  H52 UNL     1     116.750  38.559  27.938  1.00  0.00     0.172 HD
ATOM     16  H51 UNL     1     117.701  37.023  27.850  1.00  0.00     0.172 HD
ENDBRANCH  13  14
ENDBRANCH   7  13
TORSDOF 4
ENDMDL