MODEL 5
REMARK VINA RESULT: -3.673945693      1.845      2.576
REMARK  5 active torsions:
REMARK  status: ('A' for Active; 'I' for Inactive)
REMARK    1  A    between atoms: N1_1  and  C1_5
REMARK    2  A    between atoms: C1_5  and  C2_6
REMARK    3  A    between atoms: C2_6  and  N2_7
REMARK    4  A    between atoms: N2_7  and  C3_9
REMARK    5  A    between atoms: C6_15  and  N4_16
ROOT
HETATM    1  C3  UNL     1     116.868  36.340  30.259  1.00  0.00     0.310 C
HETATM    2  N3  UNL     1     116.478  35.034  29.788  1.00  0.00    -0.052 N
ATOM      3  H31 UNL     1     117.244  34.376  29.643  1.00  0.00     0.279 HD
ATOM      4  H32 UNL     1     116.144  35.000  28.825  1.00  0.00     0.279 HD
HETATM    5  C4  UNL     1     115.508  34.643  30.795  1.00  0.00     0.237 C
HETATM    6  C5  UNL     1     116.320  34.849  32.061  1.00  0.00     0.064 C
HETATM    7  C6  UNL     1     117.005  36.198  31.736  1.00  0.00     0.234 C
ENDROOT
BRANCH   1   8
HETATM    8  N2  UNL     1     115.994  37.337  29.780  1.00  0.00    -0.392 N
ATOM      9  H2  UNL     1     115.443  37.900  30.428  1.00  0.00     0.155 HD
BRANCH   8  10
HETATM   10  C2  UNL     1     115.895  37.540  28.374  1.00  0.00     0.143 C
BRANCH  10  11
HETATM   11  C1  UNL     1     114.405  37.501  28.025  1.00  0.00     0.248 C
BRANCH  11  12
HETATM   12  N1  UNL     1     113.560  37.512  29.179  1.00  0.00    -0.078 N
ATOM     13  H13 UNL     1     113.056  38.395  29.253  1.00  0.00     0.274 HD
ATOM     14  H12 UNL     1     112.771  36.878  29.059  1.00  0.00     0.274 HD
ATOM     15  H11 UNL     1     114.062  37.307  30.043  1.00  0.00     0.274 HD
ENDBRANCH  11  12
ENDBRANCH  10  11
ENDBRANCH   8  10
ENDBRANCH   1   8
BRANCH   7  16
HETATM   16  N4  UNL     1     116.376  37.193  32.536  1.00  0.00    -0.071 N
ATOM     17  H43 UNL     1     116.760  38.109  32.306  1.00  0.00     0.274 HD
ATOM     18  H42 UNL     1     115.409  37.313  32.235  1.00  0.00     0.274 HD
ATOM     19  H41 UNL     1     116.405  37.054  33.546  1.00  0.00     0.274 HD
ENDBRANCH   7  16
TORSDOF 5
ENDMDL