MODEL 3
REMARK VINA RESULT: -7.105242897      3.417      7.095
REMARK  4 active torsions:
REMARK  status: ('A' for Active; 'I' for Inactive)
REMARK    1  A    between atoms: C2_2  and  O1_4
REMARK    2  A    between atoms: O1_4  and  C4_5
REMARK    3  A    between atoms: N1_8  and  C7_9
REMARK    4  A    between atoms: C9_11  and  N2_12
ROOT
HETATM    1  C7  UNL     1      12.713  -0.836  34.908  1.00  0.00     0.107 A
HETATM    2  C8  UNL     1      14.079  -0.958  34.812  1.00  0.00     0.096 A
HETATM    3  C9  UNL     1      14.825  -1.336  35.933  1.00  0.00     0.103 A
HETATM    4  N3  UNL     1      14.227  -1.583  37.112  1.00  0.00    -0.339 N
ATOM      5  H3  UNL     1      14.769  -1.858  37.932  1.00  0.00     0.168 HD
HETATM    6  C10 UNL     1      12.890  -1.455  37.172  1.00  0.00     0.183 A
HETATM    7  N4  UNL     1      12.159  -1.093  36.106  1.00  0.00    -0.339 N
ATOM      8  H4  UNL     1      11.147  -1.011  36.208  1.00  0.00     0.168 HD
ENDROOT
BRANCH   1   9
HETATM    9  N1  UNL     1      11.898  -0.449  33.782  1.00  0.00    -0.367 N
HETATM   10  C6  UNL     1      12.429   0.358  32.709  1.00  0.00     0.127 C
HETATM   11  C5  UNL     1      11.267   1.195  32.164  1.00  0.00     0.051 C
HETATM   12  C4  UNL     1      10.216   0.333  31.500  1.00  0.00     0.125 C
HETATM   13  C12 UNL     1      10.086  -0.984  32.222  1.00  0.00     0.051 C
HETATM   14  C11 UNL     1      10.516  -0.857  33.684  1.00  0.00     0.127 C
BRANCH  12  15
HETATM   15  O1  UNL     1      10.572   0.191  30.166  1.00  0.00    -0.381 OA
BRANCH  15  16
HETATM   16  C2  UNL     1      10.311   1.327  29.412  1.00  0.00     0.113 C
HETATM   17  C1  UNL     1      11.510   1.888  28.722  1.00  0.00     0.039 C
HETATM   18  C3  UNL     1       9.192   1.143  28.435  1.00  0.00     0.039 C
ENDBRANCH  15  16
ENDBRANCH  12  15
ENDBRANCH   1   9
BRANCH   3  19
HETATM   19  N2  UNL     1      16.106  -1.448  35.832  1.00  0.00    -0.385 N
ATOM     20  H22 UNL     1      16.577  -1.110  34.993  1.00  0.00     0.157 HD
ATOM     21  H21 UNL     1      16.632  -1.876  36.595  1.00  0.00     0.157 HD
ENDBRANCH   3  19
TORSDOF 4
ENDMDL