MODEL 3
REMARK VINA RESULT: -6.142641364      1.541      3.398
REMARK  3 active torsions:
REMARK  status: ('A' for Active; 'I' for Inactive)
REMARK    1  A    between atoms: O1_2  and  C2_3
REMARK    2  A    between atoms: C2_3  and  O2_4
REMARK    3  A    between atoms: C2_3  and  C3_6
ROOT
HETATM    1  C3  UNL     1      11.176  -0.140  33.357  1.00  0.00     0.006 C
HETATM    2  C4  UNL     1       9.852   0.089  33.290  1.00  0.00    -0.001 C
HETATM    3  C5  UNL     1       9.141  -0.607  34.404  1.00  0.00     0.030 C
HETATM    4  C6  UNL     1       7.675  -0.699  34.257  1.00  0.00     0.045 C
HETATM    5  C7  UNL     1       7.423  -2.022  34.996  1.00  0.00     0.172 C
HETATM    6  O3  UNL     1       8.624  -2.697  35.047  1.00  0.00    -0.360 OA
HETATM    7  C8  UNL     1       9.525  -2.088  34.229  1.00  0.00     0.273 C
HETATM    8  O4  UNL     1      10.846  -2.206  34.548  1.00  0.00    -0.345 OA
HETATM    9  C9  UNL     1      11.565  -1.014  34.513  1.00  0.00     0.091 C
HETATM   10  C10 UNL     1      13.029  -1.253  34.586  1.00  0.00     0.052 C
HETATM   11  C11 UNL     1      11.142  -0.228  35.762  1.00  0.00     0.022 C
HETATM   12  C12 UNL     1      11.649  -1.000  36.958  1.00  0.00     0.013 C
HETATM   13  C13 UNL     1       9.629  -0.194  35.746  1.00  0.00     0.026 C
ENDROOT
BRANCH   1  14
HETATM   14  C2  UNL     1      12.117   0.422  32.387  1.00  0.00     0.289 C
BRANCH  14  15
HETATM   15  O1  UNL     1      11.385   1.106  31.420  1.00  0.00    -0.362 OA
HETATM   16  C1  UNL     1      12.129   2.169  30.881  1.00  0.00     0.205 C
ENDBRANCH  14  15
BRANCH  14  17
HETATM   17  O2  UNL     1      12.943   1.329  33.076  1.00  0.00    -0.367 OA
ATOM     18  H2  UNL     1      12.728   2.215  32.808  1.00  0.00     0.213 HD
ENDBRANCH  14  17
ENDBRANCH   1  14
TORSDOF 3
ENDMDL