MODEL 1
REMARK VINA RESULT: -8.519580259      0.000      0.000
REMARK  5 active torsions:
REMARK  status: ('A' for Active; 'I' for Inactive)
REMARK    1  A    between atoms: C2_2  and  C3_3
REMARK    2  A    between atoms: C3_3  and  C5_5
REMARK    3  A    between atoms: C5_5  and  C6_6
REMARK    4  A    between atoms: C8_8  and  O1_9
REMARK    5  A    between atoms: C11_13  and  O2_14
ROOT
HETATM    1  C6  UNL     1      10.289   1.365  30.939  1.00  0.00     0.134 C
HETATM    2  C7  UNL     1       9.309   0.965  29.895  1.00  0.00     0.064 C
HETATM    3  C8  UNL     1       9.866   0.984  28.485  1.00  0.00     0.120 C
HETATM    4  C9  UNL     1       9.623   2.314  27.809  1.00  0.00     0.034 C
HETATM    5  C10 UNL     1      10.766   2.838  27.028  1.00  0.00     0.034 C
HETATM    6  C11 UNL     1      12.000   3.204  27.757  1.00  0.00     0.127 C
HETATM    7  C12 UNL     1      11.803   3.713  29.163  1.00  0.00     0.142 C
HETATM    8  C13 UNL     1      12.284   2.739  30.176  1.00  0.00     0.261 C
HETATM    9  O3  UNL     1      13.379   3.007  30.734  1.00  0.00    -0.265 OA
HETATM   10  O4  UNL     1      11.563   1.660  30.441  1.00  0.00    -0.316 OA
ENDROOT
BRANCH   1  11
HETATM   11  C5  UNL     1      10.305   0.567  32.186  1.00  0.00     0.037 C
BRANCH  11  12
HETATM   12  C3  UNL     1      11.517  -0.196  32.579  1.00  0.00    -0.017 C
HETATM   13  C4  UNL     1      11.100  -1.360  33.511  1.00  0.00     0.010 C
BRANCH  12  14
HETATM   14  C2  UNL     1      12.649   0.544  33.204  1.00  0.00    -0.000 C
HETATM   15  C1  UNL     1      13.253  -0.349  34.331  1.00  0.00     0.005 C
ENDBRANCH  12  14
ENDBRANCH  11  12
ENDBRANCH   1  11
BRANCH   3  16
HETATM   16  O1  UNL     1      11.145   0.511  28.391  1.00  0.00    -0.395 OA
ATOM     17  H1  UNL     1      11.808   1.192  28.408  1.00  0.00     0.210 HD
ENDBRANCH   3  16
BRANCH   6  18
HETATM   18  O2  UNL     1      12.683   4.150  26.954  1.00  0.00    -0.395 OA
ATOM     19  H2  UNL     1      12.958   4.852  27.533  1.00  0.00     0.210 HD
ENDBRANCH   6  18
TORSDOF 5
ENDMDL