MODEL 1
REMARK VINA RESULT: -5.730957393      0.000      0.000
REMARK  2 active torsions:
REMARK  status: ('A' for Active; 'I' for Inactive)
REMARK    1  A    between atoms: C4_4  and  C5_5
REMARK    2  A    between atoms: C5_5  and  C6_6
ROOT
HETATM    1  C1  UNL     1      10.219  -1.984  33.135  1.00  0.00     0.020 C
HETATM    2  C2  UNL     1      10.832  -0.756  33.800  1.00  0.00     0.007 C
HETATM    3  C3  UNL     1      12.230  -1.055  34.195  1.00  0.00     0.020 C
HETATM    4  C4  UNL     1      10.537   0.526  33.107  1.00  0.00     0.009 C
HETATM    5  C7  UNL     1       9.159   0.448  33.774  1.00  0.00     0.068 C
HETATM    6  C8  UNL     1       9.902  -0.295  34.908  1.00  0.00     0.143 C
HETATM    7  N1  UNL     1      10.423   0.727  35.782  1.00  0.00    -0.339 N
ATOM      8  H1  UNL     1      11.434   0.864  35.776  1.00  0.00     0.164 HD
HETATM    9  C9  UNL     1       9.675   1.559  36.645  1.00  0.00     0.136 C
HETATM   10  N2  UNL     1      10.279   2.598  37.082  1.00  0.00    -0.380 N
ATOM     11  H21 UNL     1       9.739   3.198  37.705  1.00  0.00     0.158 HD
ATOM     12  H22 UNL     1      11.236   2.694  36.743  1.00  0.00     0.158 HD
HETATM   13  S1  UNL     1       8.004   1.391  37.236  1.00  0.00    -0.092 SA
HETATM   14  C10 UNL     1       7.559  -0.383  37.056  1.00  0.00     0.108 C
HETATM   15  C11 UNL     1       8.835  -1.196  36.793  1.00  0.00     0.181 C
HETATM   16  O2  UNL     1       9.163  -1.277  35.479  1.00  0.00    -0.359 OA
ENDROOT
BRANCH   4  17
HETATM   17  C5  UNL     1      10.474   0.543  31.626  1.00  0.00     0.075 C
BRANCH  17  18
HETATM   18  C6  UNL     1      11.466   1.513  31.117  1.00  0.00     0.231 C
HETATM   19  O1  UNL     1      12.535   1.651  31.658  1.00  0.00    -0.307 OA
ENDBRANCH  17  18
ENDBRANCH   4  17
TORSDOF 2
ENDMDL