MODEL 4
REMARK VINA RESULT: -7.000158371      1.665      2.852
REMARK  4 active torsions:
REMARK  status: ('A' for Active; 'I' for Inactive)
REMARK    1  A    between atoms: C2_2  and  C3_3
REMARK    2  A    between atoms: N2_9  and  C7_10
REMARK    3  A    between atoms: C7_10  and  C8_11
REMARK    4  A    between atoms: C12_19  and  N5_20
ROOT
HETATM    1  C3  UNL     1      11.447   2.219  29.812  1.00  0.00     0.053 A
HETATM    2  N1  UNL     1      12.022   1.841  30.980  1.00  0.00    -0.352 N
ATOM      3  H1  UNL     1      12.836   2.345  31.331  1.00  0.00     0.166 HD
HETATM    4  C4  UNL     1      11.522   0.804  31.678  1.00  0.00     0.102 A
HETATM    5  C5  UNL     1      11.913   0.224  32.873  1.00  0.00     0.055 A
HETATM    6  C6  UNL     1      13.070   0.696  33.678  1.00  0.00     0.072 C
HETATM    7  N2  UNL     1      11.057  -0.781  33.099  1.00  0.00    -0.292 N
HETATM    8  N3  UNL     1      10.184  -0.838  32.113  1.00  0.00    -0.281 N
ATOM      9  H3  UNL     1       9.428  -1.521  32.052  1.00  0.00     0.189 HD
HETATM   10  C11 UNL     1      10.417   0.125  31.193  1.00  0.00     0.151 A
HETATM   11  N4  UNL     1       9.828   0.471  30.045  1.00  0.00    -0.324 N
ATOM     12  H4  UNL     1       9.014  -0.036  29.697  1.00  0.00     0.169 HD
HETATM   13  C12 UNL     1      10.348   1.523  29.357  1.00  0.00     0.123 A
ENDROOT
BRANCH   7  14
HETATM   14  C7  UNL     1      11.111  -1.651  34.252  1.00  0.00     0.153 C
BRANCH  14  15
HETATM   15  C8  UNL     1      10.477  -1.036  35.481  1.00  0.00    -0.003 C
HETATM   16  C9  UNL     1      11.408  -1.342  36.647  1.00  0.00     0.011 C
HETATM   17  C10 UNL     1       9.154  -1.695  35.808  1.00  0.00     0.011 C
ENDBRANCH  14  15
ENDBRANCH   7  14
BRANCH   1  18
HETATM   18  C2  UNL     1      12.027   3.368  29.044  1.00  0.00     0.056 C
HETATM   19  C1  UNL     1      13.418   3.717  29.471  1.00  0.00     0.011 C
ENDBRANCH   1  18
BRANCH  13  20
HETATM   20  N5  UNL     1       9.792   1.896  28.244  1.00  0.00    -0.384 N
ATOM     21  H52 UNL     1      10.160   2.708  27.747  1.00  0.00     0.157 HD
ATOM     22  H51 UNL     1       9.003   1.357  27.887  1.00  0.00     0.157 HD
ENDBRANCH  13  20
TORSDOF 4
ENDMDL