MODEL 4
REMARK VINA RESULT: -7.115156005      4.086      7.513
REMARK  4 active torsions:
REMARK  status: ('A' for Active; 'I' for Inactive)
REMARK    1  A    between atoms: O1_2  and  C2_3
REMARK    2  A    between atoms: C7_10  and  C8_11
REMARK    3  A    between atoms: C11_14  and  C12_15
REMARK    4  A    between atoms: C12_15  and  N2_16
ROOT
HETATM    1  C2  UNL     1      11.540  -1.508  36.633  1.00  0.00     0.105 A
HETATM    2  C3  UNL     1      10.885  -1.314  35.432  1.00  0.00     0.085 A
HETATM    3  C4  UNL     1      11.635  -1.144  34.294  1.00  0.00     0.044 A
HETATM    4  N1  UNL     1      12.955  -1.170  34.336  1.00  0.00    -0.360 N
ATOM      5  H1  UNL     1      13.465  -1.042  33.462  1.00  0.00     0.165 HD
HETATM    6  C5  UNL     1      13.686  -1.360  35.491  1.00  0.00     0.015 A
HETATM    7  C6  UNL     1      15.156  -1.491  35.376  1.00  0.00     0.069 C
HETATM    8  C7  UNL     1      12.942  -1.526  36.653  1.00  0.00     0.004 A
HETATM    9  C11 UNL     1      10.886  -0.910  33.034  1.00  0.00     0.065 C
HETATM   10  C13 UNL     1       9.739  -1.906  33.047  1.00  0.00     0.032 C
HETATM   11  C14 UNL     1       8.752  -1.526  34.101  1.00  0.00     0.121 C
HETATM   12  N3  UNL     1       9.436  -1.280  35.346  1.00  0.00    -0.386 N
ATOM     13  H3  UNL     1       8.891  -1.077  36.184  1.00  0.00     0.159 HD
ENDROOT
BRANCH   9  14
HETATM   14  C12 UNL     1      10.400   0.508  32.922  1.00  0.00     0.240 C
BRANCH  14  15
HETATM   15  N2  UNL     1      10.298   0.873  31.507  1.00  0.00    -0.079 N
ATOM     16  H23 UNL     1      11.176   0.734  31.008  1.00  0.00     0.274 HD
ATOM     17  H22 UNL     1       9.724   0.215  30.978  1.00  0.00     0.274 HD
ATOM     18  H21 UNL     1       9.957   1.832  31.432  1.00  0.00     0.274 HD
ENDBRANCH  14  15
ENDBRANCH   9  14
BRANCH   1  19
HETATM   19  O1  UNL     1      10.782  -1.691  37.779  1.00  0.00    -0.353 OA
HETATM   20  C1  UNL     1      10.223  -0.655  38.542  1.00  0.00     0.210 C
ENDBRANCH   1  19
BRANCH   8  21
HETATM   21  C8  UNL     1      13.621  -1.794  37.910  1.00  0.00     0.023 A
HETATM   22  C9  UNL     1      14.987  -1.164  38.082  1.00  0.00     0.010 A
HETATM   23  C10 UNL     1      13.830  -0.994  39.088  1.00  0.00     0.010 A
ENDBRANCH   8  21
TORSDOF 4
ENDMDL