MODEL 1
REMARK VINA RESULT: -6.730068617      0.000      0.000
REMARK  4 active torsions:
REMARK  status: ('A' for Active; 'I' for Inactive)
REMARK    1  A    between atoms: C2_2  and  C3_3
REMARK    2  A    between atoms: C3_3  and  C4_4
REMARK    3  A    between atoms: C5_7  and  N2_8
REMARK    4  A    between atoms: N2_8  and  C6_10
ROOT
HETATM    1  C4  UNL     1      10.095  -0.933  33.030  1.00  0.00     0.101 A
HETATM    2  N1  UNL     1       9.925  -0.120  31.967  1.00  0.00    -0.180 N
ATOM      3  H1  UNL     1       9.043  -0.173  31.457  1.00  0.00     0.185 HD
HETATM    4  C5  UNL     1      10.853   0.759  31.539  1.00  0.00     0.682 A
HETATM    5  N3  UNL     1      12.010   0.830  32.207  1.00  0.00    -0.166 N
ATOM      6  H3  UNL     1      12.736   1.483  31.915  1.00  0.00     0.186 HD
HETATM    7  C10 UNL     1      12.201   0.027  33.272  1.00  0.00     0.193 A
HETATM    8  S1  UNL     1      13.630   0.154  34.051  1.00  0.00    -0.040 SA
HETATM    9  N4  UNL     1      11.261  -0.840  33.678  1.00  0.00    -0.317 N
HETATM   10  C11 UNL     1      11.494  -1.685  34.827  1.00  0.00     0.160 C
ENDROOT
BRANCH   4  11
HETATM   11  N2  UNL     1      10.612   1.516  30.496  1.00  0.00    -0.221 N
ATOM     12  H2  UNL     1      10.522   2.527  30.591  1.00  0.00     0.178 HD
BRANCH  11  13
HETATM   13  C6  UNL     1      10.477   0.880  29.215  1.00  0.00     0.099 C
HETATM   14  C7  UNL     1      11.224   1.649  28.139  1.00  0.00     0.026 C
HETATM   15  C8  UNL     1       9.936   2.204  27.614  1.00  0.00     0.004 C
HETATM   16  C9  UNL     1       9.190   1.209  28.480  1.00  0.00     0.026 C
ENDBRANCH  11  13
ENDBRANCH   4  11
BRANCH   1  17
HETATM   17  C3  UNL     1       8.993  -1.875  33.424  1.00  0.00     0.077 C
BRANCH  17  18
HETATM   18  C2  UNL     1       7.886  -1.122  34.132  1.00  0.00     0.003 C
HETATM   19  C1  UNL     1       6.665  -2.026  34.106  1.00  0.00     0.005 C
ENDBRANCH  17  18
ENDBRANCH   1  17
TORSDOF 4
ENDMDL