MODEL 5
REMARK VINA RESULT: -7.869835517      2.589      2.982
REMARK  3 active torsions:
REMARK  status: ('A' for Active; 'I' for Inactive)
REMARK    1  A    between atoms: C4_8  and  C5_9
REMARK    2  A    between atoms: C5_9  and  C6_10
REMARK    3  A    between atoms: C6_10  and  C7_11
ROOT
HETATM    1  C1  UNL     1      13.557  -1.947  37.611  1.00  0.00     0.098 C
HETATM    2  C2  UNL     1      13.006  -1.402  36.317  1.00  0.00     0.123 A
HETATM    3  N1  UNL     1      13.690  -0.760  35.355  1.00  0.00    -0.323 N
ATOM      4  H1  UNL     1      14.689  -0.552  35.369  1.00  0.00     0.169 HD
HETATM    5  C3  UNL     1      12.831  -0.440  34.371  1.00  0.00     0.161 A
HETATM    6  N2  UNL     1      12.680   0.152  33.156  1.00  0.00    -0.328 N
ATOM      7  H2  UNL     1      13.431   0.589  32.622  1.00  0.00     0.169 HD
HETATM    8  C4  UNL     1      11.401   0.077  32.764  1.00  0.00     0.084 A
HETATM    9  N4  UNL     1      10.748  -0.569  33.745  1.00  0.00    -0.323 N
ATOM     10  H4  UNL     1       9.750  -0.781  33.736  1.00  0.00     0.169 HD
HETATM   11  C12 UNL     1      11.594  -0.898  34.742  1.00  0.00     0.195 A
HETATM   12  O1  UNL     1      11.770  -1.461  35.912  1.00  0.00    -0.277 OA
ENDROOT
BRANCH   8  13
HETATM   13  C5  UNL     1      10.839   0.611  31.487  1.00  0.00     0.077 C
BRANCH  13  14
HETATM   14  C6  UNL     1      11.628   1.804  30.999  1.00  0.00     0.012 C
BRANCH  14  15
HETATM   15  C7  UNL     1      11.284   1.979  29.527  1.00  0.00    -0.011 C
HETATM   16  C8  UNL     1      10.039   1.212  29.155  1.00  0.00     0.032 C
HETATM   17  C9  UNL     1       9.450   1.755  27.875  1.00  0.00     0.232 C
HETATM   18  N3  UNL     1      10.444   2.346  27.015  1.00  0.00    -0.075 N
HETATM   19  C10 UNL     1      11.123   3.465  27.608  1.00  0.00     0.232 C
ATOM     20  H32 UNL     1      11.113   1.643  26.701  1.00  0.00     0.277 HD
ATOM     21  H31 UNL     1      10.036   2.606  26.118  1.00  0.00     0.277 HD
HETATM   22  C11 UNL     1      11.105   3.407  29.136  1.00  0.00     0.032 C
ENDBRANCH  14  15
ENDBRANCH  13  14
ENDBRANCH   8  13
TORSDOF 3
ENDMDL