MODEL 5
REMARK VINA RESULT: -6.017934272      2.535      4.849
REMARK  5 active torsions:
REMARK  status: ('A' for Active; 'I' for Inactive)
REMARK    1  A    between atoms: C2_2  and  C3_3
REMARK    2  A    between atoms: C3_3  and  C4_4
REMARK    3  A    between atoms: C4_4  and  C5_5
REMARK    4  A    between atoms: C10_11  and  O1_12
REMARK    5  A    between atoms: C11_14  and  O2_15
ROOT
HETATM    1  C5  UNL     1      10.944  -0.253  32.919  1.00  0.00     0.149 C
HETATM    2  C6  UNL     1      10.495  -0.001  31.535  1.00  0.00     0.098 C
HETATM    3  N1  UNL     1      10.132   0.185  30.448  1.00  0.00    -0.194 NA
HETATM    4  C7  UNL     1      10.080   0.510  33.905  1.00  0.00     0.061 C
HETATM    5  C8  UNL     1       9.916  -0.553  34.982  1.00  0.00     0.021 C
HETATM    6  C9  UNL     1       8.696  -0.328  35.819  1.00  0.00     0.041 C
HETATM    7  C10 UNL     1       7.859  -1.611  35.875  1.00  0.00     0.147 C
HETATM    8  C11 UNL     1       7.342  -1.808  34.444  1.00  0.00     0.149 C
HETATM    9  C12 UNL     1       8.476  -1.892  33.477  1.00  0.00     0.066 C
HETATM   10  C13 UNL     1       9.829  -1.784  34.114  1.00  0.00     0.130 C
HETATM   11  O3  UNL     1      10.808  -1.583  33.176  1.00  0.00    -0.360 OA
ENDROOT
BRANCH   1  12
HETATM   12  C4  UNL     1      12.338   0.270  33.033  1.00  0.00     0.053 C
BRANCH  12  13
HETATM   13  C3  UNL     1      12.846   0.371  34.435  1.00  0.00     0.004 C
BRANCH  13  14
HETATM   14  C2  UNL     1      13.892  -0.737  34.611  1.00  0.00    -0.004 C
HETATM   15  C1  UNL     1      13.413  -1.748  35.645  1.00  0.00     0.005 C
ENDBRANCH  13  14
ENDBRANCH  12  13
ENDBRANCH   1  12
BRANCH   7  16
HETATM   16  O1  UNL     1       6.798  -1.394  36.735  1.00  0.00    -0.393 OA
ATOM     17  H1  UNL     1       7.146  -1.290  37.613  1.00  0.00     0.210 HD
ENDBRANCH   7  16
BRANCH   8  18
HETATM   18  O2  UNL     1       6.491  -2.912  34.388  1.00  0.00    -0.393 OA
ATOM     19  H2  UNL     1       5.863  -2.806  33.682  1.00  0.00     0.210 HD
ENDBRANCH   8  18
TORSDOF 5
ENDMDL