MODEL 4
REMARK VINA RESULT: -5.528561765      1.366      4.714
REMARK  2 active torsions:
REMARK  status: ('A' for Active; 'I' for Inactive)
REMARK    1  A    between atoms: C2_2  and  N1_4
REMARK    2  A    between atoms: C4_7  and  C5_8
ROOT
HETATM    1  C5  UNL     1      -5.468 -32.527 -21.411  1.00  0.00     0.202 C
HETATM    2  C6  UNL     1      -4.487 -33.553 -21.766  1.00  0.00     0.066 C
HETATM    3  N3  UNL     1      -3.691 -34.364 -22.036  1.00  0.00    -0.197 NA
ENDROOT
BRANCH   1   4
HETATM    4  C4  UNL     1      -5.559 -32.383 -19.922  1.00  0.00     0.123 C
HETATM    5  N2  UNL     1      -6.305 -31.576 -19.245  1.00  0.00    -0.272 N
HETATM    6  N1  UNL     1      -6.039 -31.809 -17.870  1.00  0.00    -0.212 N
ATOM      7  H2  UNL     1      -6.964 -30.897 -19.626  1.00  0.00     0.189 HD
HETATM    8  N5  UNL     1      -4.860 -32.555 -17.800  1.00  0.00    -0.003 NA
HETATM    9  N4  UNL     1      -4.778 -33.171 -19.034  1.00  0.00    -0.270 N
ATOM     10  H4  UNL     1      -4.262 -34.021 -19.262  1.00  0.00     0.185 HD
BRANCH   6  11
HETATM   11  C2  UNL     1      -6.797 -31.388 -16.727  1.00  0.00     0.117 C
HETATM   12  C1  UNL     1      -6.201 -31.852 -15.419  1.00  0.00     0.035 C
HETATM   13  C3  UNL     1      -8.232 -31.845 -16.889  1.00  0.00     0.035 C
ENDBRANCH   6  11
ENDBRANCH   1   4
TORSDOF 2
ENDMDL