MODEL 1
REMARK VINA RESULT: -4.179271743      0.000      0.000
REMARK  6 active torsions:
REMARK  status: ('A' for Active; 'I' for Inactive)
REMARK    1  A    between atoms: C2_2  and  O1_4
REMARK    2  A    between atoms: O1_4  and  C4_5
REMARK    3  A    between atoms: C4_5  and  N1_6
REMARK    4  A    between atoms: C4_5  and  N2_9
REMARK    5  A    between atoms: N2_9  and  N3_11
REMARK    6  A    between atoms: N3_11  and  C5_13
ROOT
HETATM    1  C4  UNL     1      -4.784 -33.176 -20.762  1.00  0.00     0.232 C
ENDROOT
BRANCH   1   2
HETATM    2  O1  UNL     1      -5.973 -32.610 -21.203  1.00  0.00    -0.317 OA
BRANCH   2   3
HETATM    3  C2  UNL     1      -6.132 -31.207 -21.268  1.00  0.00     0.123 C
HETATM    4  C1  UNL     1      -4.844 -30.513 -21.659  1.00  0.00     0.040 C
HETATM    5  C3  UNL     1      -6.519 -30.730 -19.887  1.00  0.00     0.040 C
ENDBRANCH   2   3
ENDBRANCH   1   2
BRANCH   1   6
HETATM    6  N1  UNL     1      -4.260 -34.086 -21.513  1.00  0.00    -0.364 N
ATOM      7  H12 UNL     1      -4.776 -34.631 -22.204  1.00  0.00     0.159 HD
ATOM      8  H11 UNL     1      -3.261 -34.258 -21.396  1.00  0.00     0.159 HD
ENDBRANCH   1   6
BRANCH   1   9
HETATM    9  N2  UNL     1      -4.230 -32.730 -19.544  1.00  0.00    -0.265 N
ATOM     10  H2  UNL     1      -3.621 -31.913 -19.518  1.00  0.00     0.190 HD
BRANCH   9  11
HETATM   11  N3  UNL     1      -4.537 -33.439 -18.356  1.00  0.00    -0.298 N
ATOM     12  H3  UNL     1      -4.392 -34.444 -18.265  1.00  0.00     0.187 HD
BRANCH  11  13
HETATM   13  C5  UNL     1      -5.009 -32.723 -17.404  1.00  0.00     0.188 C
HETATM   14  S1  UNL     1      -6.033 -31.992 -16.392  1.00  0.00    -0.073 SA
ENDBRANCH  11  13
ENDBRANCH   9  11
ENDBRANCH   1   9
TORSDOF 6
ENDMDL