MODEL 3
REMARK VINA RESULT: -4.496785541      2.247      4.109
REMARK  2 active torsions:
REMARK  status: ('A' for Active; 'I' for Inactive)
REMARK    1  A    between atoms: O1_1  and  C1_3
REMARK    2  A    between atoms: C1_3  and  C2_4
ROOT
HETATM    1  C2  UNL     1      -8.750 -33.143 -27.175  1.00  0.00     0.325 C
HETATM    2  N1  UNL     1      -8.965 -32.234 -26.131  1.00  0.00    -0.306 N
ATOM      3  H1  UNL     1      -8.736 -32.417 -25.154  1.00  0.00     0.182 HD
HETATM    4  N2  UNL     1      -9.458 -31.201 -26.534  1.00  0.00    -0.303 N
ATOM      5  H2  UNL     1      -9.700 -30.403 -25.946  1.00  0.00     0.182 HD
HETATM    6  C3  UNL     1      -9.653 -31.261 -27.939  1.00  0.00     0.212 C
HETATM    7  C4  UNL     1     -11.070 -31.426 -28.359  1.00  0.00     0.063 C
HETATM    8  C5  UNL     1     -11.486 -30.176 -29.093  1.00  0.00     0.004 C
HETATM    9  C6  UNL     1     -10.258 -29.344 -29.296  1.00  0.00     0.004 C
HETATM   10  C7  UNL     1      -9.137 -29.973 -28.534  1.00  0.00     0.063 C
HETATM   11  N3  UNL     1      -8.803 -32.377 -28.387  1.00  0.00    -0.023 N
ATOM     12  H31 UNL     1      -9.122 -32.876 -29.217  1.00  0.00     0.282 HD
ATOM     13  H32 UNL     1      -7.903 -32.119 -28.791  1.00  0.00     0.282 HD
ENDROOT
BRANCH   1  14
HETATM   14  C1  UNL     1      -7.485 -33.951 -27.036  1.00  0.00     0.220 C
BRANCH  14  15
HETATM   15  O1  UNL     1      -6.431 -33.213 -26.546  1.00  0.00    -0.397 OA
ATOM     16  H1  UNL     1      -5.928 -33.679 -25.888  1.00  0.00     0.209 HD
ENDBRANCH  14  15
ENDBRANCH   1  14
TORSDOF 2
ENDMDL