MODEL 2
REMARK VINA RESULT: -2.603373453      2.217      2.628
REMARK  2 active torsions:
REMARK  status: ('A' for Active; 'I' for Inactive)
REMARK    1  A    between atoms: S1_2  and  N1_3
REMARK    2  A    between atoms: C3_8  and  N2_9
ROOT
HETATM    1  C1  UNL     1     -13.103 -28.805 -28.096  1.00  0.00     0.090 C
HETATM    2  S1  UNL     1     -11.913 -28.476 -26.665  1.00  0.00    -0.179 SA
HETATM    3  C2  UNL     1     -10.382 -28.544 -27.617  1.00  0.00     0.148 C
HETATM    4  S2  UNL     1     -10.524 -26.952 -28.588  1.00  0.00    -0.126 SA
HETATM    5  C3  UNL     1     -10.639 -25.954 -27.055  1.00  0.00     0.254 C
HETATM    6  C4  UNL     1     -11.541 -26.755 -26.116  1.00  0.00     0.117 C
ENDROOT
BRANCH   2   7
HETATM    7  N1  UNL     1     -13.046 -28.845 -25.420  1.00  0.00    -0.390 N
ATOM      8  H12 UNL     1     -13.821 -28.310 -25.029  1.00  0.00     0.162 HD
ATOM      9  H11 UNL     1     -12.672 -29.773 -25.220  1.00  0.00     0.162 HD
ENDBRANCH   2   7
BRANCH   5  10
HETATM   10  N2  UNL     1      -9.274 -25.962 -26.502  1.00  0.00    -0.066 N
ATOM     11  H23 UNL     1      -8.898 -25.034 -26.310  1.00  0.00     0.275 HD
ATOM     12  H22 UNL     1      -9.216 -26.309 -25.544  1.00  0.00     0.275 HD
ATOM     13  H21 UNL     1      -8.727 -26.501 -27.174  1.00  0.00     0.275 HD
ENDBRANCH   5  10
TORSDOF 2
ENDMDL