MODEL 2
REMARK VINA RESULT: -5.664365496      1.252      1.858
REMARK  1 active torsions:
REMARK  status: ('A' for Active; 'I' for Inactive)
REMARK    1  A    between atoms: C2_2  and  C5_5
ROOT
HETATM    1  C5  UNL     1      -6.250 -32.212 -18.323  1.00  0.00     0.115 C
HETATM    2  C6  UNL     1      -6.319 -31.132 -19.331  1.00  0.00     0.098 C
HETATM    3  C7  UNL     1      -5.608 -31.523 -20.574  1.00  0.00     0.110 C
HETATM    4  N1  UNL     1      -5.856 -30.702 -21.719  1.00  0.00    -0.086 NA
HETATM    5  N2  UNL     1      -4.818 -32.534 -20.628  1.00  0.00    -0.280 N
ATOM      6  H2  UNL     1      -4.346 -32.777 -21.499  1.00  0.00     0.189 HD
HETATM    7  N3  UNL     1      -4.618 -33.290 -19.486  1.00  0.00    -0.245 N
ATOM      8  H3  UNL     1      -4.318 -34.263 -19.537  1.00  0.00     0.203 HD
HETATM    9  N4  UNL     1      -4.846 -32.660 -18.259  1.00  0.00    -0.119 NA
ENDROOT
BRANCH   1  10
HETATM   10  C2  UNL     1      -6.672 -31.833 -16.943  1.00  0.00    -0.032 C
HETATM   11  C1  UNL     1      -8.172 -31.871 -16.760  1.00  0.00     0.016 C
HETATM   12  C3  UNL     1      -6.260 -30.365 -16.742  1.00  0.00     0.016 C
HETATM   13  C4  UNL     1      -6.019 -32.590 -15.845  1.00  0.00     0.016 C
ENDBRANCH   1  10
TORSDOF 1
ENDMDL