MODEL 1
REMARK VINA RESULT: -4.858221444      0.000      0.000
REMARK  4 active torsions:
REMARK  status: ('A' for Active; 'I' for Inactive)
REMARK    1  A    between atoms: C2_2  and  S1_3
REMARK    2  A    between atoms: S1_3  and  C3_4
REMARK    3  A    between atoms: C3_4  and  O1_6
REMARK    4  A    between atoms: O1_6  and  C4_7
ROOT
HETATM    1  O1  UNL     1      -4.477 -31.970 -20.459  1.00  0.00    -0.264 OA
ENDROOT
BRANCH   1   2
HETATM    2  C3  UNL     1      -5.184 -32.114 -19.246  1.00  0.00     0.183 C
HETATM    3  S2  UNL     1      -4.513 -33.054 -18.090  1.00  0.00    -0.045 SA
BRANCH   2   4
HETATM    4  S1  UNL     1      -6.737 -31.314 -18.980  1.00  0.00    -0.093 SA
BRANCH   4   5
HETATM    5  C2  UNL     1      -7.080 -31.258 -17.197  1.00  0.00     0.077 C
HETATM    6  C1  UNL     1      -8.394 -31.898 -16.845  1.00  0.00     0.016 C
ENDBRANCH   4   5
ENDBRANCH   2   4
ENDBRANCH   1   2
BRANCH   1   7
HETATM    7  C4  UNL     1      -4.828 -32.907 -21.452  1.00  0.00     0.231 C
HETATM    8  N1  UNL     1      -5.649 -32.536 -22.370  1.00  0.00    -0.367 N
ATOM      9  H12 UNL     1      -6.013 -31.584 -22.347  1.00  0.00     0.159 HD
ATOM     10  H11 UNL     1      -5.903 -33.214 -23.089  1.00  0.00     0.159 HD
HETATM   11  N2  UNL     1      -4.324 -34.226 -21.483  1.00  0.00    -0.056 NA
ENDBRANCH   1   7
TORSDOF 4
ENDMDL