MODEL 3
REMARK VINA RESULT: -4.012983372      1.940      2.438
REMARK  1 active torsions:
REMARK  status: ('A' for Active; 'I' for Inactive)
REMARK    1  A    between atoms: S1_2  and  C2_3
ROOT
HETATM    1  C2  UNL     1      -6.373 -31.618 -20.055  1.00  0.00     0.171 C
HETATM    2  N1  UNL     1      -6.376 -30.229 -19.748  1.00  0.00    -0.124 NA
HETATM    3  N2  UNL     1      -6.456 -30.087 -18.367  1.00  0.00    -0.292 N
ATOM      4  H2  UNL     1      -6.589 -29.195 -17.890  1.00  0.00     0.183 HD
HETATM    5  C3  UNL     1      -6.343 -31.212 -17.768  1.00  0.00     0.095 C
HETATM    6  N3  UNL     1      -6.349 -31.657 -16.398  1.00  0.00    -0.379 N
ATOM      7  H3  UNL     1      -6.784 -31.122 -15.646  1.00  0.00     0.160 HD
HETATM    8  C4  UNL     1      -5.681 -32.934 -16.174  1.00  0.00     0.121 C
HETATM    9  C5  UNL     1      -4.424 -32.887 -17.053  1.00  0.00     0.020 C
HETATM   10  C6  UNL     1      -4.764 -32.830 -18.527  1.00  0.00     0.016 C
HETATM   11  C7  UNL     1      -6.162 -32.299 -18.767  1.00  0.00     0.085 C
ENDROOT
BRANCH   1  12
HETATM   12  S1  UNL     1      -5.178 -32.074 -21.330  1.00  0.00    -0.149 SA
HETATM   13  C1  UNL     1      -4.355 -30.543 -21.858  1.00  0.00     0.091 C
ENDBRANCH   1  12
TORSDOF 1
ENDMDL