MODEL 4
REMARK VINA RESULT: -3.748116467      9.036      9.895
REMARK  2 active torsions:
REMARK  status: ('A' for Active; 'I' for Inactive)
REMARK    1  A    between atoms: C1_2  and  C2_7
REMARK    2  A    between atoms: N2_3  and  O1_5
ROOT
HETATM    1  C2  UNL     1      -8.779 -31.610 -27.243  1.00  0.00     0.165 C
HETATM    2  C3  UNL     1      -8.630 -32.863 -26.465  1.00  0.00     0.034 C
HETATM    3  C4  UNL     1      -7.936 -33.977 -27.182  1.00  0.00     0.004 C
HETATM    4  C5  UNL     1      -6.472 -33.590 -27.274  1.00  0.00     0.021 C
HETATM    5  C6  UNL     1      -6.304 -32.898 -28.598  1.00  0.00     0.139 C
HETATM    6  N3  UNL     1      -6.725 -31.547 -28.592  1.00  0.00    -0.340 N
ATOM      7  H3  UNL     1      -6.161 -30.862 -29.095  1.00  0.00     0.179 HD
HETATM    8  N4  UNL     1      -7.737 -31.158 -28.011  1.00  0.00    -0.329 N
ATOM      9  H4  UNL     1      -7.835 -30.152 -28.148  1.00  0.00     0.180 HD
ENDROOT
BRANCH   1  10
HETATM   10  C1  UNL     1      -9.971 -31.762 -28.134  1.00  0.00     0.137 C
HETATM   11  N1  UNL     1      -9.724 -31.697 -29.533  1.00  0.00    -0.083 NA
HETATM   12  N2  UNL     1     -11.158 -31.941 -27.665  1.00  0.00    -0.257 N
ATOM     13  H2  UNL     1     -11.318 -31.984 -26.658  1.00  0.00     0.195 HD
BRANCH  12  14
HETATM   14  O1  UNL     1     -12.192 -32.070 -28.532  1.00  0.00    -0.289 OA
ATOM     15  H1  UNL     1     -12.871 -32.706 -28.343  1.00  0.00     0.244 HD
ENDBRANCH  12  14
ENDBRANCH   1  10
TORSDOF 2
ENDMDL