MODEL 2
REMARK VINA RESULT: -4.651995758      1.553      2.339
REMARK  2 active torsions:
REMARK  status: ('A' for Active; 'I' for Inactive)
REMARK    1  A    between atoms: C2_2  and  O1_5
REMARK    2  A    between atoms: O1_5  and  C5_6
ROOT
HETATM    1  C5  UNL     1      -5.225 -32.175 -19.925  1.00  0.00     0.331 C
HETATM    2  O2  UNL     1      -4.575 -33.416 -19.887  1.00  0.00    -0.247 OA
HETATM    3  N1  UNL     1      -4.560 -33.910 -21.113  1.00  0.00    -0.092 NA
HETATM    4  C6  UNL     1      -4.520 -32.810 -22.061  1.00  0.00     0.200 C
HETATM    5  C7  UNL     1      -5.348 -31.817 -21.350  1.00  0.00     0.054 C
HETATM    6  N2  UNL     1      -6.009 -30.879 -21.869  1.00  0.00    -0.401 N
ATOM      7  H21 UNL     1      -6.095 -30.631 -22.854  1.00  0.00     0.155 HD
ATOM      8  H22 UNL     1      -6.582 -30.192 -21.377  1.00  0.00     0.155 HD
ENDROOT
BRANCH   1   9
HETATM    9  O1  UNL     1      -6.436 -32.329 -19.287  1.00  0.00    -0.344 OA
BRANCH   9  10
HETATM   10  C2  UNL     1      -6.550 -31.654 -18.095  1.00  0.00     0.053 C
HETATM   11  C1  UNL     1      -7.957 -31.694 -17.530  1.00  0.00     0.045 C
HETATM   12  C3  UNL     1      -6.195 -30.206 -18.374  1.00  0.00     0.045 C
HETATM   13  C4  UNL     1      -5.613 -32.137 -17.022  1.00  0.00     0.045 C
ENDBRANCH   9  10
ENDBRANCH   1   9
TORSDOF 2
ENDMDL