MODEL 1
REMARK VINA RESULT: -7.256296854      0.000      0.000
REMARK  2 active torsions:
REMARK  status: ('A' for Active; 'I' for Inactive)
REMARK    1  A    between atoms: C4_4  and  N1_5
REMARK    2  A    between atoms: N1_5  and  C5_8
ROOT
HETATM    1  N1  UNL     1      -6.378 -31.765 -20.211  1.00  0.00    -0.033 N
ATOM      2  H11 UNL     1      -6.696 -30.806 -20.349  1.00  0.00     0.281 HD
ATOM      3  H12 UNL     1      -7.178 -32.268 -20.597  1.00  0.00     0.281 HD
ENDROOT
BRANCH   1   4
HETATM    4  C4  UNL     1      -6.227 -32.050 -18.823  1.00  0.00     0.190 C
HETATM    5  C3  UNL     1      -4.855 -32.453 -18.389  1.00  0.00     0.033 C
HETATM    6  C2  UNL     1      -4.888 -32.985 -16.990  1.00  0.00     0.002 C
HETATM    7  C1  UNL     1      -5.888 -32.429 -16.081  1.00  0.00     0.000 C
HETATM    8  C7  UNL     1      -6.899 -31.483 -16.595  1.00  0.00     0.002 C
HETATM    9  C6  UNL     1      -6.563 -30.849 -17.923  1.00  0.00     0.033 C
ENDBRANCH   1   4
BRANCH   1  10
HETATM   10  C5  UNL     1      -5.184 -32.026 -20.992  1.00  0.00     0.416 A
HETATM   11  N2  UNL     1      -5.249 -31.390 -22.236  1.00  0.00    -0.280 N
HETATM   12  N3  UNL     1      -5.370 -32.437 -22.864  1.00  0.00    -0.244 N
ATOM     13  H2  UNL     1      -5.211 -30.410 -22.519  1.00  0.00     0.185 HD
HETATM   14  N4  UNL     1      -5.325 -33.209 -21.757  1.00  0.00    -0.069 NA
ATOM     15  H3  UNL     1      -5.468 -32.648 -23.858  1.00  0.00     0.203 HD
ENDBRANCH   1  10
TORSDOF 2
ENDMDL