MODEL 5
REMARK VINA RESULT: -2.359473325      3.049      5.720
REMARK  3 active torsions:
REMARK  status: ('A' for Active; 'I' for Inactive)
REMARK    1  A    between atoms: N1_1  and  C1_4
REMARK    2  A    between atoms: C2_7  and  C3_8
REMARK    3  A    between atoms: C8_16  and  C9_17
ROOT
HETATM    1  C1  UNL     1     -26.367   6.484  -4.643  1.00  0.00     0.143 A
HETATM    2  N2  UNL     1     -25.492   5.485  -4.675  1.00  0.00    -0.335 N
ATOM      3  H2  UNL     1     -24.492   5.675  -4.615  1.00  0.00     0.168 HD
HETATM    4  C2  UNL     1     -25.927   4.250  -4.784  1.00  0.00     0.065 A
HETATM    5  C8  UNL     1     -27.279   4.064  -4.859  1.00  0.00     0.046 A
HETATM    6  S1  UNL     1     -27.867   5.691  -4.769  1.00  0.00    -0.051 SA
ENDROOT
BRANCH   4   7
HETATM    7  C3  UNL     1     -25.005   3.068  -4.831  1.00  0.00     0.033 A
HETATM    8  C4  UNL     1     -24.167   2.924  -5.896  1.00  0.00     0.034 A
HETATM    9  C5  UNL     1     -23.289   1.870  -6.008  1.00  0.00     0.088 A
HETATM   10  N3  UNL     1     -23.286   0.969  -5.013  1.00  0.00    -0.372 N
HETATM   11  C6  UNL     1     -24.087   1.058  -3.940  1.00  0.00     0.130 A
ATOM     12  H3  UNL     1     -22.644   0.179  -5.075  1.00  0.00     0.164 HD
HETATM   13  C7  UNL     1     -24.977   2.133  -3.832  1.00  0.00     0.144 A
HETATM   14  F1  UNL     1     -25.808   2.252  -2.747  1.00  0.00    -0.204 F
ENDBRANCH   4   7
BRANCH   5  15
HETATM   15  C9  UNL     1     -28.085   2.831  -4.979  1.00  0.00    -0.017 A
HETATM   16  C10 UNL     1     -28.307   2.356  -6.255  1.00  0.00     0.013 A
HETATM   17  C11 UNL     1     -29.036   1.205  -6.430  1.00  0.00     0.001 A
HETATM   18  C12 UNL     1     -29.567   0.489  -5.370  1.00  0.00     0.000 A
HETATM   19  C13 UNL     1     -29.340   0.969  -4.092  1.00  0.00     0.001 A
HETATM   20  C14 UNL     1     -28.597   2.142  -3.917  1.00  0.00     0.013 A
ENDBRANCH   5  15
BRANCH   1  21
HETATM   21  N1  UNL     1     -26.103   7.773  -4.538  1.00  0.00    -0.380 N
ATOM     22  H12 UNL     1     -25.296   8.239  -4.125  1.00  0.00     0.158 HD
ATOM     23  H11 UNL     1     -26.679   8.548  -4.864  1.00  0.00     0.158 HD
ENDBRANCH   1  21
TORSDOF 3
ENDMDL