MODEL 3
REMARK VINA RESULT: -6.976236952      1.808      2.562
REMARK  2 active torsions:
REMARK  status: ('A' for Active; 'I' for Inactive)
REMARK    1  A    between atoms: O1_2  and  C2_3
REMARK    2  A    between atoms: C6_8  and  N1_9
ROOT
HETATM    1  N1  UNL     1     -27.049   3.147  -4.711  1.00  0.00    -0.329 N
HETATM    2  C7  UNL     1     -28.386   3.179  -4.853  1.00  0.00     0.128 A
HETATM    3  C8  UNL     1     -28.946   1.930  -4.692  1.00  0.00     0.078 A
HETATM    4  N2  UNL     1     -30.077   1.200  -4.680  1.00  0.00    -0.297 N
ATOM      5  H2  UNL     1     -31.020   1.556  -4.838  1.00  0.00     0.187 HD
HETATM    6  N3  UNL     1     -29.759  -0.049  -4.429  1.00  0.00    -0.289 N
ATOM      7  H3  UNL     1     -30.425  -0.819  -4.363  1.00  0.00     0.188 HD
HETATM    8  C9  UNL     1     -28.428  -0.169  -4.273  1.00  0.00     0.129 A
HETATM    9  S1  UNL     1     -27.552  -1.521  -3.948  1.00  0.00    -0.058 SA
HETATM   10  C10 UNL     1     -27.864   1.081  -4.434  1.00  0.00     0.049 A
HETATM   11  C11 UNL     1     -26.737   1.865  -4.456  1.00  0.00     0.113 A
ENDROOT
BRANCH   1  12
HETATM   12  C6  UNL     1     -26.142   4.263  -4.814  1.00  0.00     0.043 A
HETATM   13  C5  UNL     1     -26.574   5.560  -4.614  1.00  0.00     0.072 A
HETATM   14  C4  UNL     1     -25.745   6.647  -4.701  1.00  0.00     0.121 A
HETATM   15  C3  UNL     1     -24.415   6.400  -5.009  1.00  0.00     0.079 A
HETATM   16  F1  UNL     1     -26.163   7.928  -4.505  1.00  0.00    -0.206 F
HETATM   17  C2  UNL     1     -23.925   5.124  -5.220  1.00  0.00     0.073 A
HETATM   18  C12 UNL     1     -24.818   4.057  -5.116  1.00  0.00     0.066 A
BRANCH  17  19
HETATM   19  O1  UNL     1     -22.599   4.951  -5.520  1.00  0.00    -0.356 OA
HETATM   20  C1  UNL     1     -21.944   3.736  -5.229  1.00  0.00     0.210 C
ENDBRANCH  17  19
ENDBRANCH   1  12
TORSDOF 2
ENDMDL