MODEL 5
REMARK VINA RESULT: -7.498848825      1.407      2.594
REMARK  2 active torsions:
REMARK  status: ('A' for Active; 'I' for Inactive)
REMARK       I    between atoms: C1_2  and  N1_3
REMARK    1  A    between atoms: C1_2  and  C9_18
REMARK    2  A    between atoms: N2_5  and  C2_7
ROOT
HETATM    1  O1  UNL     1     -25.791  -0.705  -4.304  1.00  0.00    -0.266 OA
HETATM    2  C1  UNL     1     -26.460   0.205  -4.854  1.00  0.00     0.273 C
HETATM    3  N1  UNL     1     -25.896   1.475  -5.148  1.00  0.00    -0.265 N
ATOM      4  H1  UNL     1     -26.323   2.052  -5.872  1.00  0.00     0.190 HD
HETATM    5  N2  UNL     1     -24.889   1.902  -4.541  1.00  0.00    -0.296 N
ATOM      6  H2  UNL     1     -24.439   1.346  -3.814  1.00  0.00     0.187 HD
ENDROOT
BRANCH   5   7
HETATM    7  C2  UNL     1     -24.386   3.190  -4.899  1.00  0.00     0.077 A
HETATM    8  C3  UNL     1     -23.108   3.502  -5.368  1.00  0.00     0.120 A
HETATM    9  N3  UNL     1     -23.028   4.827  -5.590  1.00  0.00    -0.363 N
HETATM   10  C4  UNL     1     -24.213   5.423  -5.285  1.00  0.00     0.047 A
ATOM     11  H3  UNL     1     -22.201   5.312  -5.936  1.00  0.00     0.165 HD
HETATM   12  C5  UNL     1     -24.664   6.726  -5.328  1.00  0.00     0.047 A
HETATM   13  C8  UNL     1     -25.040   4.405  -4.861  1.00  0.00     0.035 A
HETATM   14  C6  UNL     1     -25.950   7.041  -4.948  1.00  0.00     0.090 A
HETATM   15  N4  UNL     1     -26.742   6.035  -4.537  1.00  0.00    -0.374 N
HETATM   16  C7  UNL     1     -26.320   4.760  -4.489  1.00  0.00     0.103 A
ATOM     17  H4  UNL     1     -27.698   6.247  -4.252  1.00  0.00     0.164 HD
ENDBRANCH   5   7
BRANCH   2  18
HETATM   18  C9  UNL     1     -27.848  -0.068  -5.190  1.00  0.00     0.072 A
HETATM   19  C10 UNL     1     -28.420   0.522  -6.311  1.00  0.00     0.020 A
HETATM   20  C11 UNL     1     -29.735   0.259  -6.620  1.00  0.00     0.001 A
HETATM   21  C12 UNL     1     -30.494  -0.585  -5.829  1.00  0.00     0.003 A
HETATM   22  C13 UNL     1     -29.893  -1.155  -4.720  1.00  0.00     0.043 A
HETATM   23  C14 UNL     1     -28.588  -0.913  -4.386  1.00  0.00     0.132 A
HETATM   24  F1  UNL     1     -27.974  -1.451  -3.316  1.00  0.00    -0.205 F
ENDBRANCH   2  18
TORSDOF 2
ENDMDL