MODEL 3
REMARK VINA RESULT: -5.210902107      1.140      1.413
REMARK  7 active torsions:
REMARK  status: ('A' for Active; 'I' for Inactive)
REMARK    1  A    between atoms: C2_2  and  C4_4
REMARK    2  A    between atoms: C5_6  and  C6_7
REMARK    3  A    between atoms: C6_7  and  C7_8
REMARK    4  A    between atoms: C7_8  and  C8_9
REMARK    5  A    between atoms: C8_9  and  C9_10
REMARK    6  A    between atoms: C10_12  and  C11_13
REMARK    7  A    between atoms: C11_13  and  N1_14
ROOT
HETATM    1  C4  UNL     1     -28.484   0.585  -4.913  1.00  0.00     0.036 A
HETATM    2  S1  UNL     1     -28.631   2.311  -5.172  1.00  0.00    -0.078 SA
HETATM    3  C5  UNL     1     -27.129   2.814  -4.575  1.00  0.00     0.069 A
HETATM    4  C10 UNL     1     -26.543   1.645  -4.188  1.00  0.00     0.018 A
HETATM    5  C12 UNL     1     -27.236   0.509  -4.361  1.00  0.00     0.073 A
HETATM    6  N2  UNL     1     -26.686  -0.791  -3.975  1.00  0.00    -0.100 NA
ENDROOT
BRANCH   3   7
HETATM    7  C6  UNL     1     -26.639   4.172  -4.514  1.00  0.00    -0.059 C
BRANCH   7   8
HETATM    8  C7  UNL     1     -26.249   5.312  -4.463  1.00  0.00    -0.099 C
BRANCH   8   9
HETATM    9  C8  UNL     1     -25.764   6.702  -4.424  1.00  0.00     0.109 C
BRANCH   9  10
HETATM   10  C9  UNL     1     -24.476   6.721  -5.218  1.00  0.00     0.126 C
HETATM   11 CL1  UNL     1     -24.594   8.063  -6.380  1.00  0.00    -0.130 Cl
ENDBRANCH   9  10
ENDBRANCH   8   9
ENDBRANCH   7   8
ENDBRANCH   3   7
BRANCH   4  12
HETATM   12  C11 UNL     1     -25.148   1.713  -3.584  1.00  0.00     0.272 C
BRANCH  12  13
HETATM   13  N1  UNL     1     -24.140   1.275  -4.496  1.00  0.00    -0.075 N
ATOM     14  H13 UNL     1     -24.497   0.552  -5.119  1.00  0.00     0.274 HD
ATOM     15  H12 UNL     1     -23.930   1.996  -5.186  1.00  0.00     0.274 HD
ATOM     16  H11 UNL     1     -23.293   0.965  -4.019  1.00  0.00     0.274 HD
ENDBRANCH  12  13
ENDBRANCH   4  12
BRANCH   1  17
HETATM   17  C2  UNL     1     -29.493  -0.411  -5.241  1.00  0.00    -0.052 C
HETATM   18  C1  UNL     1     -29.788  -1.407  -4.508  1.00  0.00     0.020 C
HETATM   19  C3  UNL     1     -30.216  -0.211  -6.550  1.00  0.00     0.049 C
ENDBRANCH   1  17
TORSDOF 7
ENDMDL