MODEL 5
REMARK VINA RESULT: -5.462241461      1.350      3.488
REMARK  2 active torsions:
REMARK  status: ('A' for Active; 'I' for Inactive)
REMARK    1  A    between atoms: C3_8  and  C4_9
REMARK    2  A    between atoms: C8_14  and  C9_15
ROOT
HETATM    1  N1  UNL     1     -29.908  -1.482  -4.109  1.00  0.00    -0.234 N
ATOM      2  H11 UNL     1     -30.766  -0.994  -3.852  1.00  0.00     0.174 HD
ATOM      3  H12 UNL     1     -29.978  -2.495  -4.196  1.00  0.00     0.174 HD
HETATM    4  C1  UNL     1     -28.857  -0.901  -4.304  1.00  0.00     0.676 A
HETATM    5  N2  UNL     1     -27.700  -1.557  -4.650  1.00  0.00    -0.201 N
ATOM      6  H2  UNL     1     -27.724  -2.572  -4.747  1.00  0.00     0.183 HD
HETATM    7  C2  UNL     1     -26.556  -0.926  -4.862  1.00  0.00     0.122 A
HETATM    8  C3  UNL     1     -26.504   0.470  -4.731  1.00  0.00     0.042 A
HETATM    9  C8  UNL     1     -27.628   1.153  -4.390  1.00  0.00     0.076 A
HETATM   10  N3  UNL     1     -28.762   0.470  -4.186  1.00  0.00    -0.190 N
ATOM     11  H3  UNL     1     -29.600   0.992  -3.929  1.00  0.00     0.184 HD
ENDROOT
BRANCH   9  12
HETATM   12  C9  UNL     1     -27.581   2.598  -4.257  1.00  0.00     0.031 A
HETATM   13  C10 UNL     1     -28.285   3.326  -5.226  1.00  0.00     0.017 A
HETATM   14  C11 UNL     1     -28.351   4.679  -5.244  1.00  0.00     0.001 A
HETATM   15  C12 UNL     1     -27.683   5.374  -4.247  1.00  0.00     0.003 A
HETATM   16  C13 UNL     1     -26.980   4.662  -3.280  1.00  0.00     0.043 A
HETATM   17  C14 UNL     1     -26.927   3.280  -3.282  1.00  0.00     0.128 A
HETATM   18  F1  UNL     1     -26.259   2.594  -2.334  1.00  0.00    -0.205 F
ENDBRANCH   9  12
BRANCH   8  19
HETATM   19  C4  UNL     1     -25.257   1.157  -4.965  1.00  0.00     0.088 A
HETATM   20  C5  UNL     1     -24.093   1.239  -4.258  1.00  0.00     0.040 A
HETATM   21  C6  UNL     1     -23.239   2.052  -4.979  1.00  0.00     0.027 A
HETATM   22  C7  UNL     1     -23.924   2.436  -6.106  1.00  0.00     0.142 A
HETATM   23  O1  UNL     1     -25.093   1.900  -6.069  1.00  0.00    -0.322 OA
ENDBRANCH   8  19
TORSDOF 2
ENDMDL