MODEL 5
REMARK VINA RESULT: -7.271562813      4.042      7.309
REMARK  3 active torsions:
REMARK  status: ('A' for Active; 'I' for Inactive)
REMARK    1  A    between atoms: N1_1  and  C1_4
REMARK    2  A    between atoms: C2_7  and  C3_8
REMARK    3  A    between atoms: C6_11  and  C7_12
ROOT
HETATM    1  C3  UNL     1     -25.593   2.159  -4.684  1.00  0.00     0.103 A
HETATM    2  C4  UNL     1     -24.844   1.083  -4.307  1.00  0.00     0.042 A
HETATM    3  C5  UNL     1     -25.729   0.015  -4.243  1.00  0.00     0.041 A
HETATM    4  C6  UNL     1     -26.975   0.490  -4.583  1.00  0.00     0.086 A
HETATM    5  O1  UNL     1     -26.830   1.757  -4.832  1.00  0.00    -0.308 OA
ENDROOT
BRANCH   1   6
HETATM    6  C2  UNL     1     -25.104   3.547  -4.893  1.00  0.00     0.084 A
HETATM    7  N2  UNL     1     -25.930   4.590  -4.747  1.00  0.00    -0.189 N
HETATM    8  C1  UNL     1     -25.511   5.838  -4.930  1.00  0.00     0.676 A
ATOM      9  H2  UNL     1     -26.903   4.424  -4.489  1.00  0.00     0.184 HD
HETATM   10  N3  UNL     1     -24.241   6.078  -5.267  1.00  0.00    -0.202 N
HETATM   11  C14 UNL     1     -23.372   5.049  -5.425  1.00  0.00     0.108 A
ATOM     12  H3  UNL     1     -23.925   7.038  -5.406  1.00  0.00     0.183 HD
HETATM   13  C13 UNL     1     -23.804   3.757  -5.236  1.00  0.00     0.050 A
BRANCH   8  14
HETATM   14  N1  UNL     1     -26.361   6.796  -4.773  1.00  0.00    -0.234 N
ATOM     15  H12 UNL     1     -27.236   6.657  -4.268  1.00  0.00     0.174 HD
ATOM     16  H11 UNL     1     -26.137   7.709  -5.171  1.00  0.00     0.174 HD
ENDBRANCH   8  14
ENDBRANCH   1   6
BRANCH   4  17
HETATM   17  C7  UNL     1     -28.189  -0.332  -4.636  1.00  0.00     0.001 A
HETATM   18  C8  UNL     1     -28.345  -1.458  -3.856  1.00  0.00     0.014 A
HETATM   19  C9  UNL     1     -29.480  -2.241  -3.895  1.00  0.00     0.004 A
HETATM   20  C10 UNL     1     -30.527  -1.908  -4.745  1.00  0.00     0.042 A
HETATM   21  C11 UNL     1     -30.367  -0.782  -5.522  1.00  0.00     0.117 A
HETATM   22  F1  UNL     1     -31.401  -0.455  -6.359  1.00  0.00    -0.206 F
HETATM   23  C12 UNL     1     -29.225  -0.004  -5.475  1.00  0.00     0.056 A
ENDBRANCH   4  17
TORSDOF 3
ENDMDL