MODEL 3
REMARK VINA RESULT: -6.205525149      1.379      1.477
REMARK  4 active torsions:
REMARK  status: ('A' for Active; 'I' for Inactive)
REMARK    1  A    between atoms: C1_4  and  C2_5
REMARK    2  A    between atoms: C1_4  and  N2_7
REMARK    3  A    between atoms: N2_7  and  C3_9
REMARK    4  A    between atoms: C4_12  and  C5_13
ROOT
HETATM    1  C3  UNL     1     -27.419   1.244  -4.070  1.00  0.00     0.150 A
HETATM    2  N3  UNL     1     -27.193   2.544  -4.253  1.00  0.00    -0.335 N
ATOM      3  H3  UNL     1     -27.959   3.216  -4.207  1.00  0.00     0.168 HD
HETATM    4  C4  UNL     1     -25.980   2.937  -4.493  1.00  0.00     0.058 A
HETATM    5  C9  UNL     1     -24.993   1.983  -4.543  1.00  0.00     0.084 A
HETATM    6  S2  UNL     1     -25.874   0.551  -4.239  1.00  0.00    -0.063 SA
ENDROOT
BRANCH   1   7
HETATM    7  N2  UNL     1     -28.554   0.636  -3.820  1.00  0.00    -0.326 N
ATOM      8  H2  UNL     1     -29.109   0.935  -3.017  1.00  0.00     0.169 HD
BRANCH   7   9
HETATM    9  C1  UNL     1     -29.031  -0.419  -4.627  1.00  0.00     0.090 C
HETATM   10  N1  UNL     1     -28.788  -1.653  -4.429  1.00  0.00    -0.388 N
ATOM     11  H12 UNL     1     -29.133  -2.416  -5.012  1.00  0.00     0.157 HD
ATOM     12  H11 UNL     1     -28.207  -1.922  -3.635  1.00  0.00     0.157 HD
BRANCH   9  13
HETATM   13  C2  UNL     1     -29.884  -0.024  -5.794  1.00  0.00     0.190 C
HETATM   14 CL1  UNL     1     -28.933   0.790  -7.035  1.00  0.00    -0.122 Cl
ENDBRANCH   9  13
ENDBRANCH   7   9
ENDBRANCH   1   7
BRANCH   4  15
HETATM   15  C5  UNL     1     -25.632   4.373  -4.711  1.00  0.00     0.032 A
HETATM   16  C6  UNL     1     -26.378   5.485  -4.415  1.00  0.00     0.021 A
HETATM   17  C7  UNL     1     -25.838   6.678  -4.711  1.00  0.00     0.008 A
HETATM   18  C8  UNL     1     -24.594   6.682  -5.282  1.00  0.00     0.050 A
HETATM   19  S1  UNL     1     -24.218   5.021  -5.387  1.00  0.00    -0.100 SA
ENDBRANCH   4  15
TORSDOF 4
ENDMDL