MODEL 3
REMARK VINA RESULT: -6.722628575      3.873      6.583
REMARK  3 active torsions:
REMARK  status: ('A' for Active; 'I' for Inactive)
REMARK    1  A    between atoms: N1_1  and  C1_4
REMARK    2  A    between atoms: C3_8  and  C4_9
REMARK    3  A    between atoms: C10_18  and  C11_19
ROOT
HETATM    1  C1  UNL     1     -27.463   0.278  -3.680  1.00  0.00     0.129 A
HETATM    2  N2  UNL     1     -26.508   0.757  -2.870  1.00  0.00    -0.349 N
ATOM      3  H2  UNL     1     -26.211   0.224  -2.052  1.00  0.00     0.167 HD
HETATM    4  C2  UNL     1     -25.936   1.969  -3.154  1.00  0.00     0.120 A
HETATM    5  C3  UNL     1     -26.330   2.689  -4.249  1.00  0.00     0.058 A
HETATM    6  N3  UNL     1     -27.298   2.153  -5.029  1.00  0.00    -0.349 N
ATOM      7  H3  UNL     1     -27.600   2.679  -5.849  1.00  0.00     0.166 HD
HETATM    8  C10 UNL     1     -27.881   0.975  -4.789  1.00  0.00     0.111 A
ENDROOT
BRANCH   5   9
HETATM    9  C4  UNL     1     -25.756   3.991  -4.605  1.00  0.00    -0.008 A
HETATM   10  C5  UNL     1     -24.487   4.031  -5.197  1.00  0.00     0.017 A
HETATM   11  C6  UNL     1     -23.916   5.220  -5.545  1.00  0.00     0.043 A
HETATM   12  C7  UNL     1     -24.559   6.411  -5.331  1.00  0.00     0.116 A
HETATM   13  F1  UNL     1     -23.993   7.614  -5.678  1.00  0.00    -0.206 F
HETATM   14  C8  UNL     1     -25.806   6.348  -4.749  1.00  0.00     0.043 A
HETATM   15  C9  UNL     1     -26.413   5.168  -4.384  1.00  0.00     0.017 A
ENDBRANCH   5   9
BRANCH   8  16
HETATM   16  C11 UNL     1     -28.929   0.442  -5.672  1.00  0.00     0.105 A
HETATM   17  C12 UNL     1     -28.985   0.676  -7.032  1.00  0.00     0.041 A
HETATM   18  C13 UNL     1     -30.095   0.025  -7.534  1.00  0.00     0.027 A
HETATM   19  C14 UNL     1     -30.673  -0.585  -6.432  1.00  0.00     0.142 A
HETATM   20  O1  UNL     1     -29.945  -0.304  -5.373  1.00  0.00    -0.320 OA
ENDBRANCH   8  16
BRANCH   1  21
HETATM   21  N1  UNL     1     -27.983  -0.876  -3.381  1.00  0.00    -0.384 N
ATOM     22  H12 UNL     1     -28.641  -1.334  -4.012  1.00  0.00     0.157 HD
ATOM     23  H11 UNL     1     -27.708  -1.302  -2.496  1.00  0.00     0.157 HD
ENDBRANCH   1  21
TORSDOF 3
ENDMDL