MODEL 1
REMARK VINA RESULT: -4.516389345      0.000      0.000
REMARK  3 active torsions:
REMARK  status: ('A' for Active; 'I' for Inactive)
REMARK    1  A    between atoms: N1_1  and  C1_4
REMARK    2  A    between atoms: C2_7  and  C3_8
REMARK    3  A    between atoms: C7_14  and  C8_15
ROOT
HETATM    1  C3  UNL     1     -26.637   0.518  -4.345  1.00  0.00     0.019 A
HETATM    2  C4  UNL     1     -26.663  -0.868  -4.298  1.00  0.00     0.017 A
HETATM    3  C5  UNL     1     -27.846  -1.472  -3.949  1.00  0.00     0.018 A
HETATM    4  C6  UNL     1     -28.958  -0.713  -3.659  1.00  0.00     0.088 A
HETATM    5  N3  UNL     1     -28.878   0.627  -3.720  1.00  0.00    -0.364 N
ATOM      6  H3  UNL     1     -29.710   1.176  -3.503  1.00  0.00     0.165 HD
HETATM    7  C7  UNL     1     -27.747   1.278  -4.056  1.00  0.00     0.058 A
ENDROOT
BRANCH   1   8
HETATM    8  C2  UNL     1     -25.386   1.191  -4.717  1.00  0.00     0.063 A
HETATM    9  N2  UNL     1     -25.220   1.805  -5.891  1.00  0.00    -0.191 N
HETATM   10  C1  UNL     1     -24.105   2.426  -6.269  1.00  0.00     0.676 A
ATOM     11  H2  UNL     1     -26.003   1.796  -6.545  1.00  0.00     0.184 HD
HETATM   12  N4  UNL     1     -23.062   2.452  -5.430  1.00  0.00    -0.202 N
HETATM   13  C15 UNL     1     -23.173   1.849  -4.231  1.00  0.00     0.108 A
ATOM     14  H4  UNL     1     -22.196   2.922  -5.694  1.00  0.00     0.183 HD
HETATM   15  C14 UNL     1     -24.328   1.201  -3.830  1.00  0.00     0.048 A
BRANCH  10  16
HETATM   16  N1  UNL     1     -23.980   3.009  -7.413  1.00  0.00    -0.234 N
ATOM     17  H12 UNL     1     -23.775   2.430  -8.228  1.00  0.00     0.174 HD
ATOM     18  H11 UNL     1     -24.079   4.016  -7.535  1.00  0.00     0.174 HD
ENDBRANCH  10  16
ENDBRANCH   1   8
BRANCH   7  19
HETATM   19  C8  UNL     1     -27.731   2.736  -4.102  1.00  0.00     0.030 A
HETATM   20  C9  UNL     1     -27.168   3.526  -3.123  1.00  0.00     0.017 A
HETATM   21  C10 UNL     1     -27.161   4.908  -3.181  1.00  0.00     0.001 A
HETATM   22  C11 UNL     1     -27.736   5.555  -4.251  1.00  0.00     0.003 A
HETATM   23  C12 UNL     1     -28.308   4.788  -5.246  1.00  0.00     0.043 A
HETATM   24  C13 UNL     1     -28.309   3.403  -5.177  1.00  0.00     0.128 A
HETATM   25  F1  UNL     1     -28.871   2.680  -6.156  1.00  0.00    -0.205 F
ENDBRANCH   7  19
TORSDOF 3
ENDMDL