MODEL 4
REMARK VINA RESULT: -7.547443782      2.069      2.712
REMARK  3 active torsions:
REMARK  status: ('A' for Active; 'I' for Inactive)
REMARK    1  A    between atoms: N1_1  and  C1_4
REMARK    2  A    between atoms: C7_10  and  O1_11
REMARK    3  A    between atoms: O1_11  and  C8_12
ROOT
HETATM    1  C1  UNL     1     -23.144   4.041  -5.361  1.00  0.00     0.114 A
HETATM    2  C2  UNL     1     -24.161   4.860  -4.921  1.00  0.00     0.063 A
HETATM    3  C3  UNL     1     -25.470   4.382  -4.862  1.00  0.00    -0.002 A
HETATM    4  C4  UNL     1     -26.506   5.178  -4.427  1.00  0.00     0.014 A
HETATM    5  C5  UNL     1     -27.770   4.679  -4.382  1.00  0.00     0.004 A
HETATM    6  C6  UNL     1     -28.014   3.361  -4.777  1.00  0.00     0.040 A
HETATM    7  C7  UNL     1     -27.006   2.542  -5.215  1.00  0.00     0.105 A
HETATM    8  C14 UNL     1     -25.727   3.081  -5.249  1.00  0.00     0.092 A
HETATM    9  N2  UNL     1     -24.720   2.323  -5.668  1.00  0.00    -0.296 N
ATOM     10  H2  UNL     1     -24.908   1.361  -5.955  1.00  0.00     0.187 HD
HETATM   11  N3  UNL     1     -23.484   2.778  -5.723  1.00  0.00    -0.285 N
ATOM     12  H3  UNL     1     -22.749   2.152  -6.052  1.00  0.00     0.188 HD
ENDROOT
BRANCH   7  13
HETATM   13  O1  UNL     1     -27.187   1.260  -5.608  1.00  0.00    -0.305 OA
BRANCH  13  14
HETATM   14  C8  UNL     1     -27.932   0.254  -5.102  1.00  0.00     0.114 A
HETATM   15  C9  UNL     1     -27.420  -0.446  -4.004  1.00  0.00     0.040 A
HETATM   16  C10 UNL     1     -28.086  -1.485  -3.406  1.00  0.00     0.003 A
HETATM   17  C11 UNL     1     -29.315  -1.876  -3.884  1.00  0.00     0.003 A
HETATM   18  C12 UNL     1     -29.833  -1.196  -4.964  1.00  0.00     0.045 A
HETATM   19  C13 UNL     1     -29.146  -0.137  -5.570  1.00  0.00     0.150 A
HETATM   20  F1  UNL     1     -29.680   0.527  -6.620  1.00  0.00    -0.203 F
ENDBRANCH  13  14
ENDBRANCH   7  13
BRANCH   1  21
HETATM   21  N1  UNL     1     -21.909   4.440  -5.434  1.00  0.00    -0.384 N
ATOM     22  H12 UNL     1     -21.376   4.637  -4.587  1.00  0.00     0.157 HD
ATOM     23  H11 UNL     1     -21.428   4.572  -6.324  1.00  0.00     0.157 HD
ENDBRANCH   1  21
TORSDOF 3
ENDMDL