MODEL 3
REMARK VINA RESULT: -7.299992587      2.436      4.947
REMARK  6 active torsions:
REMARK  status: ('A' for Active; 'I' for Inactive)
REMARK    1  A    between atoms: C2_2  and  N1_3
REMARK    2  A    between atoms: C9_13  and  C10_14
REMARK    3  A    between atoms: C10_14  and  O1_15
REMARK    4  A    between atoms: O1_15  and  C11_16
REMARK    5  A    between atoms: C11_16  and  N3_18
REMARK       I    between atoms: N3_18  and  C12_20
REMARK    6  A    between atoms: C12_20  and  C13_22
ROOT
HETATM    1  C10 UNL     1      70.999  35.556  -1.618  1.00  0.00     0.184 C
ENDROOT
BRANCH   1   2
HETATM    2  C9  UNL     1      70.518  36.473  -2.722  1.00  0.00     0.041 C
HETATM    3  C5  UNL     1      69.483  37.394  -2.098  1.00  0.00     0.196 C
HETATM    4  C4  UNL     1      68.850  38.309  -3.136  1.00  0.00     0.064 C
HETATM    5  N2  UNL     1      68.441  36.585  -1.550  1.00  0.00    -0.039 N
HETATM    6  C3  UNL     1      67.346  38.156  -3.062  1.00  0.00     0.277 C
HETATM    7  N1  UNL     1      67.009  36.780  -3.379  1.00  0.00     0.119 N
HETATM    8  C6  UNL     1      67.734  35.842  -2.538  1.00  0.00     0.420 C
HETATM    9  C7  UNL     1      68.593  34.995  -3.412  1.00  0.00     0.066 C
HETATM   10  C8  UNL     1      69.901  35.601  -3.790  1.00  0.00     0.012 C
ATOM     11  H22 UNL     1      68.803  35.969  -0.822  1.00  0.00     0.280 HD
ATOM     12  H21 UNL     1      67.800  37.147  -0.989  1.00  0.00     0.280 HD
BRANCH   7  13
HETATM   13  C2  UNL     1      65.580  36.557  -3.280  1.00  0.00     0.270 C
HETATM   14  C1  UNL     1      65.132  36.806  -1.874  1.00  0.00     0.037 C
ENDBRANCH   7  13
ENDBRANCH   1   2
BRANCH   1  15
HETATM   15  O1  UNL     1      71.156  36.346  -0.456  1.00  0.00    -0.326 OA
BRANCH  15  16
HETATM   16  C11 UNL     1      71.082  35.750   0.789  1.00  0.00     0.216 C
HETATM   17  S1  UNL     1      72.115  34.524   1.067  1.00  0.00    -0.033 SA
BRANCH  16  18
HETATM   18  N3  UNL     1      70.149  36.218   1.732  1.00  0.00    -0.298 N
HETATM   19  C12 UNL     1      68.832  35.707   1.730  1.00  0.00     0.228 C
HETATM   20  O2  UNL     1      68.501  34.844   0.896  1.00  0.00    -0.273 OA
ATOM     21  H3  UNL     1      70.422  36.925   2.414  1.00  0.00     0.171 HD
BRANCH  19  22
HETATM   22  C13 UNL     1      67.857  36.188   2.703  1.00  0.00     0.078 C
HETATM   23  C14 UNL     1      68.401  37.322   3.560  1.00  0.00     0.014 C
HETATM   24  C15 UNL     1      67.441  37.585   4.669  1.00  0.00     0.001 C
HETATM   25  C16 UNL     1      66.038  37.851   4.188  1.00  0.00     0.000 C
HETATM   26  C17 UNL     1      65.562  36.843   3.180  1.00  0.00     0.001 C
HETATM   27  C18 UNL     1      66.587  36.710   2.067  1.00  0.00     0.014 C
ENDBRANCH  19  22
ENDBRANCH  16  18
ENDBRANCH  15  16
ENDBRANCH   1  15
TORSDOF 6
ENDMDL