MODEL 2
REMARK VINA RESULT: -7.458713780      0.099      1.473
REMARK  5 active torsions:
REMARK  status: ('A' for Active; 'I' for Inactive)
REMARK    1  A    between atoms: C2_2  and  C3_6
REMARK    2  A    between atoms: C4_7  and  C5_8
REMARK    3  A    between atoms: C7_11  and  C8_12
REMARK    4  A    between atoms: C8_12  and  N3_13
REMARK    5  A    between atoms: N3_13  and  C9_16
ROOT
HETATM    1  C5  UNL     1      69.156  36.071   1.604  1.00  0.00     0.480 C
HETATM    2  N2  UNL     1      68.622  36.394   0.323  1.00  0.00     0.130 N
HETATM    3  C6  UNL     1      68.237  37.768   0.167  1.00  0.00     0.314 C
HETATM    4  C7  UNL     1      69.671  36.123  -0.656  1.00  0.00     0.284 C
HETATM    5  C19 UNL     1      70.761  35.443   0.135  1.00  0.00     0.261 C
HETATM    6  C20 UNL     1      70.541  33.984   0.368  1.00  0.00     0.040 C
HETATM    7  C21 UNL     1      71.284  33.739   1.663  1.00  0.00     0.033 C
HETATM    8  C22 UNL     1      71.162  35.041   2.401  1.00  0.00     0.276 C
HETATM    9  N4  UNL     1      70.599  36.004   1.457  1.00  0.00     0.133 N
ENDROOT
BRANCH   4  10
HETATM   10  C8  UNL     1      69.060  35.219  -1.709  1.00  0.00     0.271 C
BRANCH  10  11
HETATM   11  N3  UNL     1      69.176  35.880  -2.977  1.00  0.00    -0.064 N
ATOM     12  H32 UNL     1      69.918  36.580  -2.947  1.00  0.00     0.278 HD
ATOM     13  H31 UNL     1      69.563  35.244  -3.674  1.00  0.00     0.278 HD
BRANCH  11  14
HETATM   14  C9  UNL     1      67.949  36.470  -3.463  1.00  0.00     0.127 C
HETATM   15  C10 UNL     1      67.998  37.988  -3.235  1.00  0.00     0.043 C
HETATM   16  C11 UNL     1      66.688  38.583  -3.647  1.00  0.00    -0.012 C
HETATM   17  C12 UNL     1      66.468  38.356  -5.131  1.00  0.00     0.009 C
HETATM   18  C16 UNL     1      65.569  37.987  -2.864  1.00  0.00     0.009 C
HETATM   19  C13 UNL     1      66.469  36.874  -5.382  1.00  0.00    -0.012 C
HETATM   20  C14 UNL     1      65.336  36.220  -4.622  1.00  0.00     0.009 C
HETATM   21  C18 UNL     1      67.780  36.305  -4.951  1.00  0.00     0.043 C
HETATM   22  C15 UNL     1      65.510  36.495  -3.159  1.00  0.00    -0.012 C
HETATM   23  C17 UNL     1      66.811  35.912  -2.678  1.00  0.00     0.043 C
ENDBRANCH  11  14
ENDBRANCH  10  11
ENDBRANCH   4  10
BRANCH   1  24
HETATM   24  C4  UNL     1      68.713  36.903   2.720  1.00  0.00     0.042 C
HETATM   25  C3  UNL     1      67.583  36.623   3.334  1.00  0.00     0.024 C
BRANCH  25  26
HETATM   26  C2  UNL     1      67.142  37.459   4.453  1.00  0.00    -0.002 C
HETATM   27  C1  UNL     1      65.811  38.106   4.378  1.00  0.00     0.067 C
HETATM   28  N1  UNL     1      67.934  37.614   5.455  1.00  0.00    -0.403 N
ATOM     29  H12 UNL     1      67.627  38.196   6.234  1.00  0.00     0.156 HD
ATOM     30  H11 UNL     1      68.850  37.168   5.507  1.00  0.00     0.156 HD
ENDBRANCH  25  26
ENDBRANCH   1  24
TORSDOF 5
ENDMDL