MODEL 2
REMARK VINA RESULT: -8.220609216      1.880      2.787
REMARK  5 active torsions:
REMARK  status: ('A' for Active; 'I' for Inactive)
REMARK    1  A    between atoms: C2_2  and  C4_4
REMARK    2  A    between atoms: C11_11  and  C13_13
REMARK    3  A    between atoms: C13_13  and  C15_15
REMARK    4  A    between atoms: C15_15  and  C17_17
REMARK       I    between atoms: C17_17  and  N1_19
REMARK    5  A    between atoms: N1_19  and  C18_21
ROOT
HETATM    1  C13 UNL     1      67.525  37.195  -2.476  1.00  0.00     0.003 C
HETATM    2  C14 UNL     1      66.375  37.112  -3.491  1.00  0.00     0.011 C
ENDROOT
BRANCH   1   3
HETATM    3  C11 UNL     1      67.202  36.341  -1.319  1.00  0.00    -0.036 C
HETATM    4  C7  UNL     1      67.040  36.896   0.013  1.00  0.00    -0.002 C
HETATM    5  C6  UNL     1      68.159  36.573   0.995  1.00  0.00     0.006 C
HETATM    6  C8  UNL     1      65.853  36.103   0.594  1.00  0.00    -0.009 C
HETATM    7  C5  UNL     1      67.793  37.039   2.386  1.00  0.00     0.009 C
HETATM    8  C4  UNL     1      66.513  36.415   2.877  1.00  0.00     0.014 C
HETATM    9  C19 UNL     1      65.425  36.729   1.872  1.00  0.00     0.014 C
HETATM   10  C9  UNL     1      64.902  36.145  -0.534  1.00  0.00     0.006 C
HETATM   11  C10 UNL     1      65.820  35.738  -1.668  1.00  0.00     0.010 C
HETATM   12  C12 UNL     1      68.153  35.139  -1.354  1.00  0.00     0.016 C
BRANCH   8  13
HETATM   13  C2  UNL     1      66.205  36.936   4.226  1.00  0.00    -0.089 C
HETATM   14  C1  UNL     1      66.453  36.152   5.270  1.00  0.00     0.014 C
HETATM   15  C3  UNL     1      65.637  38.277   4.478  1.00  0.00     0.043 C
ENDBRANCH   8  13
ENDBRANCH   1   3
BRANCH   1  16
HETATM   16  C15 UNL     1      68.789  37.048  -3.219  1.00  0.00     0.079 C
HETATM   17  C16 UNL     1      68.811  38.075  -4.409  1.00  0.00     0.020 C
BRANCH  16  18
HETATM   18  C17 UNL     1      69.920  37.608  -2.385  1.00  0.00     0.240 C
HETATM   19  O1  UNL     1      69.766  38.511  -1.547  1.00  0.00    -0.272 OA
HETATM   20  N1  UNL     1      71.207  37.054  -2.588  1.00  0.00    -0.157 N
ATOM     21  H1  UNL     1      71.639  37.128  -3.509  1.00  0.00     0.187 HD
BRANCH  20  22
HETATM   22  C18 UNL     1      71.847  36.458  -1.643  1.00  0.00     0.710 A
HETATM   23  N2  UNL     1      73.012  35.765  -1.742  1.00  0.00    -0.117 N
HETATM   24  N3  UNL     1      73.297  35.329  -0.518  1.00  0.00     0.006 NA
ATOM     25  H2  UNL     1      73.559  35.609  -2.588  1.00  0.00     0.202 HD
HETATM   26  N4  UNL     1      72.337  35.741   0.316  1.00  0.00     0.006 NA
HETATM   27  N5  UNL     1      71.440  36.436  -0.362  1.00  0.00    -0.117 N
ATOM     28  H5  UNL     1      70.598  36.872   0.015  1.00  0.00     0.202 HD
ENDBRANCH  20  22
ENDBRANCH  16  18
ENDBRANCH   1  16
TORSDOF 5
ENDMDL