MODEL 3
REMARK VINA RESULT: -8.012951056      2.487      7.515
REMARK  5 active torsions:
REMARK  status: ('A' for Active; 'I' for Inactive)
REMARK    1  A    between atoms: C2_2  and  C4_4
REMARK    2  A    between atoms: C4_4  and  C5_5
REMARK    3  A    between atoms: C9_12  and  C10_13
REMARK    4  A    between atoms: C10_13  and  C12_15
REMARK    5  A    between atoms: N2_19  and  C14_20
ROOT
HETATM    1  C10 UNL     1      72.170  34.585   0.834  1.00  0.00     0.051 C
HETATM    2  C11 UNL     1      73.216  35.309   1.646  1.00  0.00     0.015 C
ENDROOT
BRANCH   1   3
HETATM    3  C9  UNL     1      72.059  35.181  -0.519  1.00  0.00     0.193 C
HETATM    4  N1  UNL     1      72.154  36.607  -0.597  1.00  0.00    -0.067 N
HETATM    5  C7  UNL     1      71.961  37.006  -1.971  1.00  0.00     0.182 C
ATOM      6  H12 UNL     1      73.027  36.962  -0.205  1.00  0.00     0.278 HD
ATOM      7  H11 UNL     1      71.512  37.076   0.041  1.00  0.00     0.278 HD
HETATM    8  C6  UNL     1      72.948  36.411  -2.928  1.00  0.00     0.037 C
HETATM    9  C8  UNL     1      70.578  36.737  -2.486  1.00  0.00     0.040 C
HETATM   10  C5  UNL     1      73.046  34.894  -2.804  1.00  0.00    -0.010 C
HETATM   11  C20 UNL     1      73.257  34.631  -1.312  1.00  0.00     0.038 C
BRANCH  10  12
HETATM   12  C4  UNL     1      74.296  34.412  -3.500  1.00  0.00     0.008 C
BRANCH  12  13
HETATM   13  C2  UNL     1      73.991  33.743  -4.819  1.00  0.00    -0.022 C
HETATM   14  C1  UNL     1      75.220  33.042  -5.315  1.00  0.00     0.009 C
HETATM   15  C3  UNL     1      72.886  32.749  -4.642  1.00  0.00     0.009 C
ENDBRANCH  12  13
ENDBRANCH  10  12
ENDBRANCH   1   3
BRANCH   1  16
HETATM   16  C12 UNL     1      70.920  34.333   1.575  1.00  0.00     0.231 C
HETATM   17  O1  UNL     1      70.866  35.293   2.648  1.00  0.00    -0.288 OA
HETATM   18  C13 UNL     1      69.850  36.188   2.432  1.00  0.00     0.372 C
HETATM   19  O2  UNL     1      69.591  37.270   3.062  1.00  0.00    -0.238 OA
HETATM   20  N2  UNL     1      69.077  35.714   1.340  1.00  0.00    -0.240 N
HETATM   21  C19 UNL     1      69.653  34.499   0.894  1.00  0.00     0.260 C
HETATM   22  O3  UNL     1      69.124  33.736   0.060  1.00  0.00    -0.270 OA
BRANCH  20  23
HETATM   23  C14 UNL     1      67.901  36.381   0.793  1.00  0.00     0.192 C
HETATM   24  C15 UNL     1      68.080  36.663  -0.684  1.00  0.00     0.047 C
HETATM   25  C16 UNL     1      66.932  37.457  -1.247  1.00  0.00     0.005 C
HETATM   26  C17 UNL     1      65.644  36.866  -0.773  1.00  0.00     0.019 C
HETATM   27  C18 UNL     1      65.830  35.526  -0.098  1.00  0.00     0.115 C
HETATM   28  N3  UNL     1      66.714  35.643   1.010  1.00  0.00    -0.401 N
ATOM     29  H3  UNL     1      66.502  35.218   1.912  1.00  0.00     0.155 HD
ENDBRANCH  20  23
ENDBRANCH   1  16
TORSDOF 5
ENDMDL