MODEL 5
REMARK VINA RESULT: -6.759631075      2.945      6.349
REMARK  5 active torsions:
REMARK  status: ('A' for Active; 'I' for Inactive)
REMARK    1  A    between atoms: C2_2  and  O1_3
REMARK    2  A    between atoms: O1_3  and  C3_4
REMARK    3  A    between atoms: N1_10  and  C9_11
REMARK    4  A    between atoms: C9_11  and  C10_12
REMARK    5  A    between atoms: C16_19  and  N2_20
ROOT
HETATM    1  C3  UNL     1      71.467  35.029  -1.282  1.00  0.00     0.122 C
HETATM    2  C4  UNL     1      70.694  34.019  -0.532  1.00  0.00     0.033 C
HETATM    3  C5  UNL     1      69.581  34.451   0.337  1.00  0.00     0.015 C
HETATM    4  C6  UNL     1      69.093  35.845  -0.013  1.00  0.00     0.002 C
HETATM    5  C7  UNL     1      69.752  36.757   0.957  1.00  0.00     0.043 C
HETATM    6  C8  UNL     1      68.830  36.636   2.165  1.00  0.00     0.273 C
HETATM    7  N1  UNL     1      67.770  35.658   1.748  1.00  0.00     0.094 N
HETATM    8  C13 UNL     1      67.677  36.105   0.415  1.00  0.00     0.237 C
HETATM    9  C14 UNL     1      66.731  35.716  -0.594  1.00  0.00     0.085 C
HETATM   10  C15 UNL     1      67.033  36.725  -1.713  1.00  0.00     0.011 A
HETATM   11  S1  UNL     1      66.184  37.833  -2.680  1.00  0.00    -0.057 SA
HETATM   12  C16 UNL     1      67.502  38.460  -3.564  1.00  0.00     0.142 A
HETATM   13  N3  UNL     1      68.537  37.785  -3.074  1.00  0.00    -0.339 N
ATOM     14  H3  UNL     1      69.479  37.956  -3.427  1.00  0.00     0.168 HD
HETATM   15  C17 UNL     1      68.334  36.902  -2.140  1.00  0.00     0.029 A
HETATM   16  C18 UNL     1      69.294  36.003  -1.433  1.00  0.00     0.050 C
HETATM   17  C19 UNL     1      70.737  36.289  -1.668  1.00  0.00     0.043 C
ENDROOT
BRANCH   7  18
HETATM   18  C9  UNL     1      66.577  36.091   2.471  1.00  0.00     0.277 C
BRANCH  18  19
HETATM   19  C10 UNL     1      66.868  37.091   3.558  1.00  0.00     0.014 A
HETATM   20  C11 UNL     1      66.399  36.691   4.950  1.00  0.00     0.007 A
HETATM   21  C12 UNL     1      65.654  37.759   4.192  1.00  0.00     0.007 A
ENDBRANCH  18  19
ENDBRANCH   7  18
BRANCH   1  22
HETATM   22  O1  UNL     1      72.649  35.411  -0.654  1.00  0.00    -0.386 OA
BRANCH  22  23
HETATM   23  C2  UNL     1      73.058  34.492   0.311  1.00  0.00     0.163 C
HETATM   24  C1  UNL     1      73.449  35.154   1.598  1.00  0.00     0.033 C
ENDBRANCH  22  23
ENDBRANCH   1  22
BRANCH  12  25
HETATM   25  N2  UNL     1      67.495  39.386  -4.496  1.00  0.00    -0.380 N
ATOM     26  H22 UNL     1      68.250  39.666  -5.121  1.00  0.00     0.158 HD
ATOM     27  H21 UNL     1      66.732  40.007  -4.769  1.00  0.00     0.158 HD
ENDBRANCH  12  25
TORSDOF 5
ENDMDL