MODEL 4
REMARK VINA RESULT: -7.971119008      1.104      1.133
REMARK  4 active torsions:
REMARK  status: ('A' for Active; 'I' for Inactive)
REMARK    1  A    between atoms: C2_2  and  C3_4
REMARK    2  A    between atoms: C3_4  and  C4_5
REMARK    3  A    between atoms: C5_7  and  C6_8
REMARK    4  A    between atoms: C6_8  and  C8_10
ROOT
HETATM    1  C4  UNL     1      68.951  36.419   0.218  1.00  0.00     0.158 C
HETATM    2  O1  UNL     1      68.669  37.232   1.280  1.00  0.00    -0.374 OA
HETATM    3  C5  UNL     1      67.379  37.320   1.697  1.00  0.00     0.158 C
HETATM    4  C9  UNL     1      66.543  36.132   1.279  1.00  0.00     0.201 C
HETATM    5  O3  UNL     1      66.573  35.970  -0.071  1.00  0.00    -0.374 OA
HETATM    6  C10 UNL     1      67.812  36.176  -0.686  1.00  0.00     0.094 C
HETATM    7  C11 UNL     1      67.953  34.992  -1.606  1.00  0.00     0.024 C
HETATM    8  C12 UNL     1      68.926  35.133  -2.713  1.00  0.00     0.012 C
HETATM    9  C13 UNL     1      68.554  36.309  -3.605  1.00  0.00    -0.013 C
HETATM   10  C14 UNL     1      67.159  36.218  -4.147  1.00  0.00     0.009 C
HETATM   11  C15 UNL     1      66.178  36.050  -3.017  1.00  0.00    -0.013 C
HETATM   12  C16 UNL     1      66.568  34.816  -2.253  1.00  0.00     0.012 C
HETATM   13  C17 UNL     1      66.224  37.291  -2.160  1.00  0.00     0.012 C
HETATM   14  C18 UNL     1      67.615  37.401  -1.571  1.00  0.00     0.024 C
HETATM   15  C19 UNL     1      68.598  37.523  -2.680  1.00  0.00     0.012 C
ENDROOT
BRANCH   1  16
HETATM   16  C3  UNL     1      69.766  35.207   0.587  1.00  0.00     0.050 C
BRANCH  16  17
HETATM   17  C2  UNL     1      71.223  35.497   0.812  1.00  0.00     0.057 C
HETATM   18  C1  UNL     1      72.090  34.972  -0.307  1.00  0.00     0.022 C
HETATM   19  S1  UNL     1      71.845  34.765   2.343  1.00  0.00    -0.093 SA
ENDBRANCH  16  17
ENDBRANCH   1  16
BRANCH   3  20
HETATM   20  C6  UNL     1      67.239  37.562   3.185  1.00  0.00     0.102 C
HETATM   21  C7  UNL     1      66.457  36.368   3.751  1.00  0.00     0.022 C
BRANCH  20  22
HETATM   22  C8  UNL     1      68.567  37.582   3.835  1.00  0.00     0.237 C
HETATM   23  N1  UNL     1      68.896  36.755   4.936  1.00  0.00    -0.062 NA
HETATM   24  O2  UNL     1      69.441  38.362   3.394  1.00  0.00    -0.276 OA
ENDBRANCH  20  22
ENDBRANCH   3  20
TORSDOF 4
ENDMDL