MODEL 1
REMARK VINA RESULT: -7.655652017      0.000      0.000
REMARK  5 active torsions:
REMARK  status: ('A' for Active; 'I' for Inactive)
REMARK    1  A    between atoms: N2_6  and  C4_8
REMARK    2  A    between atoms: N3_11  and  C7_12
REMARK    3  A    between atoms: C7_12  and  C8_13
REMARK    4  A    between atoms: C10_15  and  N4_16
REMARK       I    between atoms: N4_16  and  C11_18
REMARK    5  A    between atoms: C11_18  and  C12_20
ROOT
HETATM    1  C8  UNL     1      71.944  35.104  -1.967  1.00  0.00     0.142 C
HETATM    2  C9  UNL     1      71.048  36.129  -1.301  1.00  0.00     0.061 C
HETATM    3  C10 UNL     1      71.025  35.577   0.130  1.00  0.00     0.110 C
HETATM    4  C18 UNL     1      71.216  34.116  -0.103  1.00  0.00     0.193 C
HETATM    5  O2  UNL     1      71.400  33.908  -1.455  1.00  0.00    -0.382 OA
ENDROOT
BRANCH   1   6
HETATM    6  C7  UNL     1      71.807  35.138  -3.471  1.00  0.00     0.179 C
BRANCH   6   7
HETATM    7  N3  UNL     1      72.924  34.432  -4.060  1.00  0.00    -0.183 N
HETATM    8  C3  UNL     1      72.930  33.149  -4.428  1.00  0.00     0.681 A
HETATM    9  N1  UNL     1      74.142  32.873  -4.926  1.00  0.00    -0.194 N
HETATM   10  N2  UNL     1      71.960  32.305  -4.333  1.00  0.00    -0.222 N
HETATM   11  C2  UNL     1      74.895  33.992  -4.868  1.00  0.00     0.045 A
ATOM     12  H1  UNL     1      74.446  31.969  -5.288  1.00  0.00     0.184 HD
HETATM   13  C1  UNL     1      76.309  34.124  -5.319  1.00  0.00     0.071 C
HETATM   14  C19 UNL     1      74.134  34.985  -4.321  1.00  0.00     0.048 A
HETATM   15  C20 UNL     1      74.558  36.386  -4.069  1.00  0.00     0.071 C
ATOM     16  H2  UNL     1      71.079  32.632  -3.935  1.00  0.00     0.178 HD
BRANCH  10  17
HETATM   17  C4  UNL     1      72.040  30.939  -4.749  1.00  0.00     0.091 C
HETATM   18  C5  UNL     1      71.563  30.702  -6.152  1.00  0.00     0.032 C
HETATM   19  C6  UNL     1      71.289  29.993  -3.827  1.00  0.00     0.032 C
ENDBRANCH  10  17
ENDBRANCH   6   7
ENDBRANCH   1   6
BRANCH   3  20
HETATM   20  N4  UNL     1      69.819  35.920   0.812  1.00  0.00    -0.354 N
HETATM   21  C11 UNL     1      69.676  35.951   2.219  1.00  0.00     0.222 C
HETATM   22  O1  UNL     1      70.678  35.655   2.920  1.00  0.00    -0.273 OA
ATOM     23  H4  UNL     1      69.005  36.160   0.247  1.00  0.00     0.162 HD
BRANCH  21  24
HETATM   24  C12 UNL     1      68.431  36.307   2.913  1.00  0.00     0.078 C
HETATM   25  C13 UNL     1      67.321  36.685   1.963  1.00  0.00     0.014 C
HETATM   26  C14 UNL     1      66.027  36.646   2.748  1.00  0.00     0.001 C
HETATM   27  C15 UNL     1      66.112  37.778   3.769  1.00  0.00     0.000 C
HETATM   28  C16 UNL     1      67.282  37.526   4.686  1.00  0.00     0.001 C
HETATM   29  C17 UNL     1      68.590  37.391   3.921  1.00  0.00     0.014 C
ENDBRANCH  21  24
ENDBRANCH   3  20
TORSDOF 5
ENDMDL