MODEL 5
REMARK VINA RESULT: -6.912608840      2.579      6.229
REMARK  6 active torsions:
REMARK  status: ('A' for Active; 'I' for Inactive)
REMARK    1  A    between atoms: C2_2  and  C3_3
REMARK    2  A    between atoms: C3_3  and  N1_6
REMARK    3  A    between atoms: N1_6  and  C6_8
REMARK    4  A    between atoms: C9_13  and  C10_14
REMARK    5  A    between atoms: C10_14  and  N3_15
REMARK    6  A    between atoms: N3_15  and  N4_17
REMARK       I    between atoms: N4_17  and  C11_19
REMARK       I    between atoms: C11_19  and  N5_21
ROOT
HETATM    1  C6  UNL     1      67.742  35.790   0.491  1.00  0.00     0.681 A
HETATM    2  N2  UNL     1      67.760  36.572   1.579  1.00  0.00    -0.194 N
ATOM      3  H2  UNL     1      66.992  37.169   1.882  1.00  0.00     0.184 HD
HETATM    4  C7  UNL     1      68.946  36.453   2.216  1.00  0.00     0.051 A
HETATM    5  C8  UNL     1      69.372  37.152   3.465  1.00  0.00     0.071 C
HETATM    6  C9  UNL     1      69.704  35.555   1.493  1.00  0.00     0.090 A
HETATM    7  N6  UNL     1      68.935  35.177   0.453  1.00  0.00    -0.184 N
HETATM    8  C18 UNL     1      69.372  34.234  -0.547  1.00  0.00     0.175 C
ENDROOT
BRANCH   6   9
HETATM    9  C10 UNL     1      71.058  35.125   1.816  1.00  0.00     0.139 C
BRANCH   9  10
HETATM   10  N3  UNL     1      72.109  35.707   1.364  1.00  0.00    -0.306 N
ATOM     11  H3  UNL     1      72.879  35.902   2.004  1.00  0.00     0.186 HD
BRANCH  10  12
HETATM   12  N4  UNL     1      72.233  36.078   0.041  1.00  0.00    -0.252 N
HETATM   13  C11 UNL     1      72.947  35.312  -0.916  1.00  0.00     0.337 C
HETATM   14  O1  UNL     1      73.500  34.232  -0.546  1.00  0.00    -0.245 OA
HETATM   15  N5  UNL     1      73.079  35.684  -2.271  1.00  0.00    -0.333 N
HETATM   16  C12 UNL     1      73.839  34.791  -3.130  1.00  0.00     0.127 C
HETATM   17  C17 UNL     1      72.451  36.921  -2.692  1.00  0.00     0.127 C
HETATM   18  C13 UNL     1      72.923  33.811  -3.836  1.00  0.00     0.020 C
HETATM   19  C14 UNL     1      71.465  34.162  -3.615  1.00  0.00     0.002 C
HETATM   20  C15 UNL     1      71.093  35.512  -4.138  1.00  0.00     0.002 C
HETATM   21  C16 UNL     1      71.012  36.566  -3.043  1.00  0.00     0.020 C
ATOM     22  H4  UNL     1      71.790  36.945  -0.264  1.00  0.00     0.191 HD
ENDBRANCH  10  12
ENDBRANCH   9  10
ENDBRANCH   6   9
BRANCH   1  23
HETATM   23  N1  UNL     1      66.823  35.606  -0.383  1.00  0.00    -0.217 N
ATOM     24  H1  UNL     1      66.184  34.832  -0.205  1.00  0.00     0.178 HD
BRANCH  23  25
HETATM   25  C3  UNL     1      66.586  36.348  -1.569  1.00  0.00     0.039 C
HETATM   26  C4  UNL     1      65.192  36.959  -1.448  1.00  0.00     0.038 C
HETATM   27  C5  UNL     1      66.656  35.578  -2.842  1.00  0.00     0.038 C
BRANCH  25  28
HETATM   28  C2  UNL     1      67.631  37.472  -1.610  1.00  0.00     0.026 C
HETATM   29  C1  UNL     1      67.642  38.173  -2.928  1.00  0.00     0.007 C
ENDBRANCH  25  28
ENDBRANCH  23  25
ENDBRANCH   1  23
TORSDOF 6
ENDMDL