MODEL 1
REMARK VINA RESULT: -8.188915716      0.000      0.000
REMARK  6 active torsions:
REMARK  status: ('A' for Active; 'I' for Inactive)
REMARK    1  A    between atoms: C3_3  and  C4_4
REMARK    2  A    between atoms: C4_4  and  O1_5
REMARK    3  A    between atoms: C8_11  and  C9_12
REMARK    4  A    between atoms: C9_12  and  C10_13
REMARK    5  A    between atoms: C10_13  and  O3_14
REMARK    6  A    between atoms: N1_18  and  C12_19
ROOT
HETATM    1  C10 UNL     1      69.866  34.779  -0.519  1.00  0.00     0.145 C
HETATM    2  C11 UNL     1      71.245  34.301  -0.705  1.00  0.00     0.255 C
HETATM    3  O4  UNL     1      71.891  33.608   0.108  1.00  0.00    -0.270 OA
HETATM    4  N1  UNL     1      71.683  34.776  -1.964  1.00  0.00    -0.344 N
HETATM    5  C18 UNL     1      70.587  35.427  -2.654  1.00  0.00     0.134 C
HETATM    6  C19 UNL     1      69.572  35.780  -1.564  1.00  0.00     0.044 C
HETATM    7  C20 UNL     1      69.680  37.207  -1.201  1.00  0.00     0.015 C
ENDROOT
BRANCH   1   8
HETATM    8  C9  UNL     1      69.721  35.246   0.910  1.00  0.00     0.085 C
BRANCH   8   9
HETATM    9  C8  UNL     1      68.436  36.027   1.104  1.00  0.00     0.154 C
HETATM   10  C2  UNL     1      68.447  36.546   2.529  1.00  0.00    -0.051 C
HETATM   11  C1  UNL     1      69.728  36.794   3.192  1.00  0.00     0.046 C
HETATM   12  C3  UNL     1      67.313  36.748   3.135  1.00  0.00    -0.050 C
HETATM   13  C5  UNL     1      66.044  36.493   2.385  1.00  0.00     0.068 C
HETATM   14  C6  UNL     1      66.175  35.539   1.256  1.00  0.00     0.122 C
HETATM   15  C7  UNL     1      65.504  36.112  -0.004  1.00  0.00     0.040 C
HETATM   16  O2  UNL     1      67.427  35.079   1.007  1.00  0.00    -0.376 OA
BRANCH  12  17
HETATM   17  C4  UNL     1      67.210  37.232   4.516  1.00  0.00     0.198 C
BRANCH  17  18
HETATM   18  O1  UNL     1      67.123  36.056   5.313  1.00  0.00    -0.397 OA
ATOM     19  H1  UNL     1      66.241  35.732   5.175  1.00  0.00     0.209 HD
ENDBRANCH  17  18
ENDBRANCH  12  17
ENDBRANCH   8   9
ENDBRANCH   1   8
BRANCH   1  20
HETATM   20  O3  UNL     1      69.034  33.643  -0.640  1.00  0.00    -0.380 OA
ATOM     21  H3  UNL     1      68.376  33.872  -1.285  1.00  0.00     0.211 HD
ENDBRANCH   1  20
BRANCH   4  22
HETATM   22  C12 UNL     1      73.032  34.621  -2.463  1.00  0.00     0.087 C
HETATM   23  C13 UNL     1      73.644  35.964  -2.826  1.00  0.00     0.025 C
HETATM   24  C14 UNL     1      73.747  36.090  -4.330  1.00  0.00     0.002 C
HETATM   25  C15 UNL     1      74.772  35.081  -4.803  1.00  0.00     0.000 C
HETATM   26  C16 UNL     1      74.346  33.711  -4.378  1.00  0.00     0.002 C
HETATM   27  C17 UNL     1      72.987  33.709  -3.695  1.00  0.00     0.025 C
ENDBRANCH   4  22
TORSDOF 6
ENDMDL