MODEL 2
REMARK VINA RESULT: -6.313953126      2.492      6.050
REMARK  12 active torsions:
REMARK  status: ('A' for Active; 'I' for Inactive)
REMARK    1  A    between atoms: N1_1  and  C1_4
REMARK    2  A    between atoms: C2_7  and  N3_8
REMARK    3  A    between atoms: N3_8  and  C3_10
REMARK    4  A    between atoms: C3_10  and  C4_11
REMARK    5  A    between atoms: C4_11  and  N4_12
REMARK    6  A    between atoms: N4_12  and  C5_15
REMARK    7  A    between atoms: C5_15  and  C6_16
REMARK    8  A    between atoms: C6_16  and  O1_17
REMARK    9  A    between atoms: C7_21  and  N6_22
REMARK   10  A    between atoms: C8_29  and  N10_30
REMARK   11  A    between atoms: C9_33  and  C10_34
REMARK   12  A    between atoms: C10_34  and  N11_35
ROOT
HETATM    1  C1  UNL     1      47.219-404.667  16.222  1.00  0.00     0.126 A
HETATM    2  N2  UNL     1      46.745-405.929  16.255  1.00  0.00    -0.176 N
ATOM      3  H2  UNL     1      47.378-406.712  16.089  1.00  0.00     0.186 HD
HETATM    4  C2  UNL     1      45.450-406.164  16.505  1.00  0.00     0.681 A
HETATM    5  N5  UNL     1      44.636-405.144  16.702  1.00  0.00    -0.173 N
ATOM      6  H5  UNL     1      43.652-405.344  16.884  1.00  0.00     0.186 HD
HETATM    7  C7  UNL     1      45.038-403.821  16.677  1.00  0.00     0.173 A
HETATM    8  C9  UNL     1      46.338-403.588  16.444  1.00  0.00     0.058 A
ENDROOT
BRANCH   4   9
HETATM    9  N3  UNL     1      44.985-407.474  16.628  1.00  0.00    -0.224 N
ATOM     10  H3  UNL     1      45.387-408.114  17.312  1.00  0.00     0.177 HD
BRANCH   9  11
HETATM   11  C3  UNL     1      43.904-407.896  15.745  1.00  0.00     0.165 C
BRANCH  11  12
HETATM   12  C4  UNL     1      42.738-408.416  16.535  1.00  0.00     0.252 C
BRANCH  12  13
HETATM   13  N4  UNL     1      41.519-408.190  15.738  1.00  0.00    -0.072 N
ATOM     14  H42 UNL     1      41.358-408.900  15.024  1.00  0.00     0.277 HD
ATOM     15  H41 UNL     1      40.655-408.345  16.257  1.00  0.00     0.277 HD
BRANCH  13  16
HETATM   16  C5  UNL     1      41.650-406.835  15.203  1.00  0.00     0.258 C
BRANCH  16  17
HETATM   17  C6  UNL     1      40.971-406.792  13.850  1.00  0.00     0.191 C
BRANCH  17  18
HETATM   18  O1  UNL     1      41.329-405.662  13.159  1.00  0.00    -0.399 OA
ATOM     19  H1  UNL     1      40.845-405.596  12.344  1.00  0.00     0.209 HD
ENDBRANCH  17  18
ENDBRANCH  16  17
ENDBRANCH  13  16
ENDBRANCH  12  13
ENDBRANCH  11  12
ENDBRANCH   9  11
ENDBRANCH   4   9
BRANCH   1  20
HETATM   20  N1  UNL     1      48.476-404.514  16.032  1.00  0.00    -0.384 N
ATOM     21  H12 UNL     1      49.098-405.283  15.783  1.00  0.00     0.157 HD
ATOM     22  H11 UNL     1      48.850-403.567  16.100  1.00  0.00     0.157 HD
ENDBRANCH   1  20
BRANCH   7  23
HETATM   23  N6  UNL     1      44.074-402.800  16.818  1.00  0.00    -0.052 N
HETATM   24  N7  UNL     1      43.891-401.864  17.707  1.00  0.00    -0.205 N
HETATM   25  N8  UNL     1      42.802-401.172  17.361  1.00  0.00    -0.213 N
ATOM     26  H7  UNL     1      44.478-401.689  18.523  1.00  0.00     0.211 HD
HETATM   27  N9  UNL     1      42.310-401.679  16.257  1.00  0.00    -0.115 N
ATOM     28  H8  UNL     1      42.416-400.379  17.874  1.00  0.00     0.210 HD
HETATM   29  C8  UNL     1      43.075-402.700  15.880  1.00  0.00     0.716 A
ATOM     30  H9  UNL     1      41.479-401.345  15.769  1.00  0.00     0.207 HD
BRANCH  29  31
HETATM   31  N10 UNL     1      42.897-403.457  14.831  1.00  0.00    -0.231 N
ATOM     32 2H10 UNL     1      43.539-404.166  14.479  1.00  0.00     0.174 HD
ATOM     33 1H10 UNL     1      42.098-403.455  14.196  1.00  0.00     0.174 HD
ENDBRANCH  29  31
ENDBRANCH   7  23
BRANCH   8  34
HETATM   34  C10 UNL     1      46.981-402.270  16.385  1.00  0.00     0.276 C
BRANCH  34  35
HETATM   35  N11 UNL     1      47.318-401.949  17.807  1.00  0.00    -0.075 N
ATOM     36 3H11 UNL     1      46.872-401.102  18.158  1.00  0.00     0.274 HD
ATOM     37 2H11 UNL     1      46.903-402.587  18.486  1.00  0.00     0.274 HD
ATOM     38 1H11 UNL     1      48.337-401.924  17.831  1.00  0.00     0.274 HD
ENDBRANCH  34  35
ENDBRANCH   8  34
TORSDOF 12
ENDMDL