MODEL 3
REMARK VINA RESULT: -6.534764881      1.945      4.484
REMARK  13 active torsions:
REMARK  status: ('A' for Active; 'I' for Inactive)
REMARK    1  A    between atoms: N1_1  and  C1_4
REMARK    2  A    between atoms: C3_8  and  N3_9
REMARK    3  A    between atoms: C4_14  and  N5_15
REMARK    4  A    between atoms: N5_15  and  C5_16
REMARK    5  A    between atoms: N5_15  and  C6_19
REMARK    6  A    between atoms: C5_16  and  O1_17
REMARK    7  A    between atoms: C6_19  and  C7_20
REMARK    8  A    between atoms: C7_20  and  O2_21
REMARK    9  A    between atoms: C9_26  and  N7_27
REMARK   10  A    between atoms: N7_27  and  N8_29
REMARK   11  A    between atoms: N8_29  and  N9_30
REMARK   12  A    between atoms: N8_29  and  C10_33
REMARK   13  A    between atoms: C10_33  and  N10_34
ROOT
HETATM    1  C1  UNL     1      42.059-405.488  16.017  1.00  0.00     0.678 A
HETATM    2  N2  UNL     1      43.024-406.408  16.158  1.00  0.00    -0.186 N
ATOM      3  H2  UNL     1      42.782-407.398  16.207  1.00  0.00     0.184 HD
HETATM    4  C2  UNL     1      44.311-406.027  16.236  1.00  0.00     0.124 A
HETATM    5  C3  UNL     1      45.349-406.916  16.381  1.00  0.00     0.144 A
HETATM    6  N4  UNL     1      46.633-406.477  16.452  1.00  0.00    -0.175 N
ATOM      7  H4  UNL     1      47.404-407.137  16.558  1.00  0.00     0.186 HD
HETATM    8  C4  UNL     1      46.866-405.165  16.382  1.00  0.00     0.684 A
HETATM    9  N6  UNL     1      45.877-404.240  16.240  1.00  0.00    -0.185 N
ATOM     10  H6  UNL     1      46.094-403.244  16.191  1.00  0.00     0.184 HD
HETATM   11  C8  UNL     1      44.606-404.673  16.167  1.00  0.00     0.125 A
HETATM   12  C9  UNL     1      43.577-403.730  16.020  1.00  0.00     0.162 A
HETATM   13  N11 UNL     1      42.328-404.173  15.949  1.00  0.00    -0.173 N
ATOM     14  H11 UNL     1      41.563-403.508  15.841  1.00  0.00     0.186 HD
ENDROOT
BRANCH  12  15
HETATM   15  N7  UNL     1      43.971-402.368  15.956  1.00  0.00    -0.283 N
ATOM     16  H7  UNL     1      43.766-401.835  15.111  1.00  0.00     0.184 HD
BRANCH  15  17
HETATM   17  N8  UNL     1      44.635-401.727  17.016  1.00  0.00    -0.119 NA
BRANCH  17  18
HETATM   18  N9  UNL     1      44.370-402.369  18.234  1.00  0.00    -0.344 NA
ATOM     19  H92 UNL     1      45.227-402.390  18.786  1.00  0.00     0.172 HD
ATOM     20  H91 UNL     1      43.664-401.860  18.768  1.00  0.00     0.172 HD
ENDBRANCH  17  18
BRANCH  17  21
HETATM   21  C10 UNL     1      44.145-400.370  17.092  1.00  0.00     0.367 C
BRANCH  21  22
HETATM   22  N10 UNL     1      43.573-399.892  15.868  1.00  0.00    -0.064 N
ATOM     23 3H10 UNL     1      43.753-400.547  15.107  1.00  0.00     0.275 HD
ATOM     24 2H10 UNL     1      42.555-399.945  15.902  1.00  0.00     0.275 HD
ATOM     25 1H10 UNL     1      43.875-398.952  15.611  1.00  0.00     0.275 HD
ENDBRANCH  21  22
ENDBRANCH  17  21
ENDBRANCH  15  17
ENDBRANCH  12  15
BRANCH   1  26
HETATM   26  N1  UNL     1      40.852-405.906  15.950  1.00  0.00    -0.234 N
ATOM     27  H12 UNL     1      40.422-406.100  15.045  1.00  0.00     0.174 HD
ATOM     28  H11 UNL     1      40.349-406.033  16.827  1.00  0.00     0.174 HD
ENDBRANCH   1  26
BRANCH   5  29
HETATM   29  N3  UNL     1      45.122-408.163  16.452  1.00  0.00    -0.383 N
ATOM     30  H32 UNL     1      44.360-408.559  15.903  1.00  0.00     0.157 HD
ATOM     31  H31 UNL     1      45.696-408.760  17.049  1.00  0.00     0.157 HD
ENDBRANCH   5  29
BRANCH   8  32
HETATM   32  N5  UNL     1      48.221-404.724  16.464  1.00  0.00    -0.195 N
BRANCH  32  33
HETATM   33  C5  UNL     1      49.265-405.693  16.623  1.00  0.00     0.308 C
BRANCH  33  34
HETATM   34  O1  UNL     1      49.510-406.395  15.447  1.00  0.00    -0.381 OA
ATOM     35  H1  UNL     1      50.399-406.272  15.136  1.00  0.00     0.211 HD
ENDBRANCH  33  34
ENDBRANCH  32  33
BRANCH  32  36
HETATM   36  C6  UNL     1      48.475-403.320  16.368  1.00  0.00     0.169 C
BRANCH  36  37
HETATM   37  C7  UNL     1      48.655-402.671  17.721  1.00  0.00     0.184 C
BRANCH  37  38
HETATM   38  O2  UNL     1      47.383-402.324  18.228  1.00  0.00    -0.399 OA
ATOM     39  H2  UNL     1      46.784-403.042  18.060  1.00  0.00     0.209 HD
ENDBRANCH  37  38
ENDBRANCH  36  37
ENDBRANCH  32  36
ENDBRANCH   8  32
TORSDOF 13
ENDMDL