MODEL 2
REMARK VINA RESULT: -5.865990815      1.265      1.352
REMARK  13 active torsions:
REMARK  status: ('A' for Active; 'I' for Inactive)
REMARK    1  A    between atoms: N1_1  and  C1_4
REMARK    2  A    between atoms: C2_7  and  N3_8
REMARK    3  A    between atoms: C3_14  and  N6_15
REMARK    4  A    between atoms: N6_15  and  C4_17
REMARK    5  A    between atoms: C4_17  and  C5_18
REMARK    6  A    between atoms: C5_18  and  O1_19
REMARK    7  A    between atoms: O1_19  and  N7_20
REMARK    8  A    between atoms: C6_23  and  C7_24
REMARK    9  A    between atoms: C7_24  and  C8_25
REMARK   10  A    between atoms: C8_25  and  N8_26
REMARK   11  A    between atoms: N8_26  and  C9_28
REMARK   12  A    between atoms: C9_28  and  C10_29
REMARK   13  A    between atoms: C10_29  and  O2_30
ROOT
HETATM    1  C1  UNL     1      44.160-407.878  16.223  1.00  0.00     0.692 A
HETATM    2  N2  UNL     1      42.867-407.873  15.802  1.00  0.00    -0.021 N
ATOM      3  H2  UNL     1      42.356-408.746  15.670  1.00  0.00     0.203 HD
HETATM    4  C2  UNL     1      42.278-406.683  15.565  1.00  0.00     0.713 A
HETATM    5  N4  UNL     1      42.957-405.537  15.742  1.00  0.00    -0.067 N
HETATM    6  N5  UNL     1      42.607-404.271  15.567  1.00  0.00    -0.262 N
ATOM      7  H5  UNL     1      41.689-403.957  15.253  1.00  0.00     0.190 HD
HETATM    8  C3  UNL     1      43.641-403.456  15.865  1.00  0.00     0.127 A
HETATM    9  C6  UNL     1      44.688-404.243  16.239  1.00  0.00     0.035 A
HETATM   10  C11 UNL     1      44.242-405.560  16.158  1.00  0.00     0.171 A
HETATM   11  N9  UNL     1      44.853-406.742  16.403  1.00  0.00    -0.173 N
ATOM     12  H9  UNL     1      45.823-406.771  16.718  1.00  0.00     0.186 HD
ENDROOT
BRANCH   8  13
HETATM   13  N6  UNL     1      43.644-402.031  15.834  1.00  0.00    -0.373 N
ATOM     14  H6  UNL     1      44.379-401.533  15.333  1.00  0.00     0.161 HD
BRANCH  13  15
HETATM   15  C4  UNL     1      42.605-401.292  16.515  1.00  0.00     0.150 C
BRANCH  15  16
HETATM   16  C5  UNL     1      42.503-399.937  15.835  1.00  0.00     0.220 C
BRANCH  16  17
HETATM   17  O1  UNL     1      43.535-399.149  16.298  1.00  0.00    -0.286 OA
BRANCH  17  18
HETATM   18  N7  UNL     1      44.123-398.506  15.257  1.00  0.00    -0.311 N
ATOM     19  H72 UNL     1      43.777-398.528  14.298  1.00  0.00     0.184 HD
ATOM     20  H71 UNL     1      44.950-398.007  15.584  1.00  0.00     0.184 HD
ENDBRANCH  17  18
ENDBRANCH  16  17
ENDBRANCH  15  16
ENDBRANCH  13  15
ENDBRANCH   8  13
BRANCH   9  21
HETATM   21  C7  UNL     1      46.074-403.898  16.599  1.00  0.00     0.065 C
BRANCH  21  22
HETATM   22  C8  UNL     1      46.928-403.794  15.321  1.00  0.00     0.118 C
BRANCH  22  23
HETATM   23  N8  UNL     1      47.109-402.417  15.071  1.00  0.00    -0.419 N
ATOM     24  H8  UNL     1      46.565-401.931  14.358  1.00  0.00     0.153 HD
BRANCH  23  25
HETATM   25  C9  UNL     1      48.079-401.730  15.854  1.00  0.00     0.139 C
BRANCH  25  26
HETATM   26  C10 UNL     1      47.519-400.408  16.379  1.00  0.00     0.183 C
BRANCH  26  27
HETATM   27  O2  UNL     1      46.138-400.418  16.275  1.00  0.00    -0.399 OA
ATOM     28  H2  UNL     1      45.756-400.232  17.125  1.00  0.00     0.209 HD
ENDBRANCH  26  27
ENDBRANCH  25  26
ENDBRANCH  23  25
ENDBRANCH  22  23
ENDBRANCH  21  22
ENDBRANCH   9  21
BRANCH   4  29
HETATM   29  N3  UNL     1      41.038-406.707  15.157  1.00  0.00    -0.232 N
ATOM     30  H32 UNL     1      40.276-406.296  15.695  1.00  0.00     0.174 HD
ATOM     31  H31 UNL     1      40.855-407.158  14.260  1.00  0.00     0.174 HD
ENDBRANCH   4  29
BRANCH   1  32
HETATM   32  N1  UNL     1      44.771-408.983  16.459  1.00  0.00    -0.234 N
ATOM     33  H12 UNL     1      44.224-409.742  16.866  1.00  0.00     0.174 HD
ATOM     34  H11 UNL     1      45.765-409.087  16.250  1.00  0.00     0.174 HD
ENDBRANCH   1  32
TORSDOF 13
ENDMDL