MODEL 5
REMARK VINA RESULT: -6.006517388      2.319      5.419
REMARK  12 active torsions:
REMARK  status: ('A' for Active; 'I' for Inactive)
REMARK    1  A    between atoms: N1_1  and  C1_4
REMARK    2  A    between atoms: C3_9  and  C4_10
REMARK    3  A    between atoms: C4_10  and  C5_11
REMARK    4  A    between atoms: C5_11  and  N4_12
REMARK    5  A    between atoms: N4_12  and  C6_15
REMARK    6  A    between atoms: C6_15  and  N5_16
REMARK    7  A    between atoms: N6_20  and  C7_21
REMARK    8  A    between atoms: C7_21  and  O1_22
REMARK    9  A    between atoms: O1_22  and  C8_23
REMARK   10  A    between atoms: C9_27  and  N8_28
REMARK   11  A    between atoms: C10_32  and  C11_33
REMARK   12  A    between atoms: C11_33  and  O2_34
ROOT
HETATM    1  C1  UNL     1      42.570-406.794  15.754  1.00  0.00     0.681 A
HETATM    2  N2  UNL     1      43.105-408.000  15.471  1.00  0.00    -0.177 N
ATOM      3  H2  UNL     1      42.609-408.795  15.068  1.00  0.00     0.185 HD
HETATM    4  C2  UNL     1      44.431-407.973  15.818  1.00  0.00     0.155 A
HETATM    5  N3  UNL     1      45.309-409.061  15.646  1.00  0.00    -0.080 NA
HETATM    6  C3  UNL     1      44.697-406.724  16.322  1.00  0.00     0.074 A
HETATM    7  N6  UNL     1      43.532-406.010  16.273  1.00  0.00    -0.162 N
ENDROOT
BRANCH   7   8
HETATM    8  C7  UNL     1      43.427-404.643  16.721  1.00  0.00     0.322 C
BRANCH   8   9
HETATM    9  O1  UNL     1      43.206-403.763  15.665  1.00  0.00    -0.318 OA
BRANCH   9  10
HETATM   10  C8  UNL     1      43.827-402.547  15.868  1.00  0.00     0.473 C
HETATM   11  N7  UNL     1      42.957-401.496  15.412  1.00  0.00     0.007 N
HETATM   12  C9  UNL     1      42.753-400.583  16.514  1.00  0.00     0.416 C
ATOM     13  H72 UNL     1      43.302-401.031  14.571  1.00  0.00     0.285 HD
ATOM     14  H71 UNL     1      42.082-401.847  15.022  1.00  0.00     0.285 HD
HETATM   15  C10 UNL     1      43.901-400.959  17.433  1.00  0.00     0.208 C
HETATM   16  O3  UNL     1      44.156-402.302  17.196  1.00  0.00    -0.327 OA
BRANCH  12  17
HETATM   17  N8  UNL     1      41.530-400.851  17.246  1.00  0.00    -0.047 N
ATOM     18  H83 UNL     1      41.639-401.661  17.856  1.00  0.00     0.276 HD
ATOM     19  H82 UNL     1      41.361-400.134  17.951  1.00  0.00     0.276 HD
ATOM     20  H81 UNL     1      40.720-400.960  16.634  1.00  0.00     0.276 HD
ENDBRANCH  12  17
BRANCH  15  21
HETATM   21  C11 UNL     1      45.056-400.070  17.103  1.00  0.00     0.200 C
BRANCH  21  22
HETATM   22  O2  UNL     1      44.664-399.066  16.239  1.00  0.00    -0.398 OA
ATOM     23  H2  UNL     1      45.414-398.554  15.960  1.00  0.00     0.209 HD
ENDBRANCH  21  22
ENDBRANCH  15  21
ENDBRANCH   9  10
ENDBRANCH   8   9
ENDBRANCH   7   8
BRANCH   1  24
HETATM   24  N1  UNL     1      41.329-406.438  15.560  1.00  0.00    -0.234 N
ATOM     25  H12 UNL     1      40.597-407.037  15.178  1.00  0.00     0.174 HD
ATOM     26  H11 UNL     1      40.927-405.523  15.763  1.00  0.00     0.174 HD
ENDBRANCH   1  24
BRANCH   6  27
HETATM   27  C4  UNL     1      45.974-406.226  16.839  1.00  0.00     0.089 C
BRANCH  27  28
HETATM   28  C5  UNL     1      46.788-405.402  15.911  1.00  0.00     0.240 C
BRANCH  28  29
HETATM   29  N4  UNL     1      46.920-404.010  16.241  1.00  0.00    -0.051 N
ATOM     30  H42 UNL     1      46.053-403.581  16.564  1.00  0.00     0.279 HD
ATOM     31  H41 UNL     1      47.461-403.837  17.087  1.00  0.00     0.279 HD
BRANCH  29  32
HETATM   32  C6  UNL     1      47.484-403.374  15.034  1.00  0.00     0.460 C
BRANCH  32  33
HETATM   33  N5  UNL     1      47.441-401.948  15.264  1.00  0.00    -0.056 N
ATOM     34  H53 UNL     1      46.798-401.458  14.642  1.00  0.00     0.276 HD
ATOM     35  H52 UNL     1      46.988-401.693  16.141  1.00  0.00     0.276 HD
ATOM     36  H51 UNL     1      48.403-401.614  15.195  1.00  0.00     0.276 HD
ENDBRANCH  32  33
ENDBRANCH  29  32
ENDBRANCH  28  29
ENDBRANCH  27  28
ENDBRANCH   6  27
TORSDOF 12
ENDMDL