MODEL 5
REMARK VINA RESULT: -5.771170823      2.057      2.812
REMARK  12 active torsions:
REMARK  status: ('A' for Active; 'I' for Inactive)
REMARK    1  A    between atoms: N1_1  and  C1_4
REMARK    2  A    between atoms: C3_9  and  C4_10
REMARK    3  A    between atoms: C4_10  and  N4_11
REMARK    4  A    between atoms: N4_11  and  C5_14
REMARK    5  A    between atoms: C5_14  and  C6_15
REMARK    6  A    between atoms: C6_15  and  N5_16
REMARK    7  A    between atoms: N5_16  and  C7_17
REMARK    8  A    between atoms: N5_16  and  C10_24
REMARK    9  A    between atoms: C7_17  and  C8_18
REMARK   10  A    between atoms: C8_18  and  C9_19
REMARK   11  A    between atoms: C9_19  and  N6_20
REMARK   12  A    between atoms: N6_20  and  O1_22
ROOT
HETATM    1  C6  UNL     1      45.327-404.425  16.589  1.00  0.00     0.094 C
ENDROOT
BRANCH   1   2
HETATM    2  C5  UNL     1      46.049-405.682  16.326  1.00  0.00     0.277 C
BRANCH   2   3
HETATM    3  N4  UNL     1      45.590-406.813  17.043  1.00  0.00    -0.065 N
ATOM      4  H42 UNL     1      44.866-406.571  17.719  1.00  0.00     0.277 HD
ATOM      5  H41 UNL     1      46.290-407.165  17.696  1.00  0.00     0.277 HD
BRANCH   3   6
HETATM    6  C4  UNL     1      45.132-407.873  16.079  1.00  0.00     0.301 C
BRANCH   6   7
HETATM    7  C3  UNL     1      43.676-407.871  15.957  1.00  0.00     0.123 A
HETATM    8  C2  UNL     1      42.800-408.114  17.025  1.00  0.00     0.151 A
HETATM    9  N2  UNL     1      41.561-408.042  16.566  1.00  0.00    -0.308 N
HETATM   10  N3  UNL     1      43.231-408.374  18.358  1.00  0.00    -0.080 NA
HETATM   11  C1  UNL     1      41.645-407.763  15.242  1.00  0.00     0.223 A
ATOM     12  H2  UNL     1      40.705-408.173  17.106  1.00  0.00     0.170 HD
HETATM   13  O2  UNL     1      42.927-407.666  14.913  1.00  0.00    -0.279 OA
BRANCH  11  14
HETATM   14  N1  UNL     1      40.637-407.623  14.463  1.00  0.00    -0.365 N
ATOM     15  H12 UNL     1      40.517-406.917  13.737  1.00  0.00     0.159 HD
ATOM     16  H11 UNL     1      39.810-408.220  14.475  1.00  0.00     0.159 HD
ENDBRANCH  11  14
ENDBRANCH   6   7
ENDBRANCH   3   6
ENDBRANCH   2   3
ENDBRANCH   1   2
BRANCH   1  17
HETATM   17  N5  UNL     1      45.971-403.193  16.775  1.00  0.00    -0.329 N
BRANCH  17  18
HETATM   18  C7  UNL     1      47.384-403.042  16.579  1.00  0.00     0.133 C
BRANCH  18  19
HETATM   19  C8  UNL     1      47.841-402.259  15.441  1.00  0.00     0.042 C
BRANCH  19  20
HETATM   20  C9  UNL     1      48.472-400.931  15.660  1.00  0.00     0.148 C
BRANCH  20  21
HETATM   21  N6  UNL     1      47.601-399.851  15.271  1.00  0.00    -0.305 N
ATOM     22  H6  UNL     1      47.661-399.426  14.345  1.00  0.00     0.187 HD
BRANCH  21  23
HETATM   23  O1  UNL     1      46.810-399.477  16.076  1.00  0.00    -0.295 OA
ATOM     24  H1  UNL     1      46.946-398.614  16.447  1.00  0.00     0.244 HD
ENDBRANCH  21  23
ENDBRANCH  20  21
ENDBRANCH  19  20
ENDBRANCH  18  19
ENDBRANCH  17  18
BRANCH  17  25
HETATM   25  C10 UNL     1      45.287-402.002  17.223  1.00  0.00     0.211 C
HETATM   26  N7  UNL     1      45.513-401.397  18.365  1.00  0.00    -0.256 N
HETATM   27  N8  UNL     1      44.676-400.291  18.469  1.00  0.00    -0.006 NA
ATOM     28  H7  UNL     1      46.194-401.692  19.065  1.00  0.00     0.187 HD
HETATM   29  N9  UNL     1      44.230-399.950  17.175  1.00  0.00    -0.006 NA
HETATM   30  N10 UNL     1      44.309-401.234  16.563  1.00  0.00    -0.256 N
ATOM     31  H10 UNL     1      43.746-401.548  15.773  1.00  0.00     0.187 HD
ENDBRANCH  17  25
ENDBRANCH   1  17
TORSDOF 12
ENDMDL