MODEL 5
REMARK VINA RESULT: -6.186161535      1.421      7.231
REMARK  12 active torsions:
REMARK  status: ('A' for Active; 'I' for Inactive)
REMARK    1  A    between atoms: C2_7  and  N3_8
REMARK    2  A    between atoms: N3_8  and  N4_10
REMARK    3  A    between atoms: N4_10  and  N5_12
REMARK    4  A    between atoms: N8_22  and  C6_23
REMARK    5  A    between atoms: C6_23  and  N9_24
REMARK    6  A    between atoms: N9_24  and  C7_26
REMARK    7  A    between atoms: C7_26  and  C8_27
REMARK    8  A    between atoms: C8_27  and  C9_28
REMARK    9  A    between atoms: C9_28  and  N10_29
REMARK   10  A    between atoms: C9_28  and  N11_33
REMARK   11  A    between atoms: N11_33  and  C10_35
REMARK   12  A    between atoms: C10_35  and  N12_36
ROOT
HETATM    1  N1  UNL     1      42.834-405.601  16.939  1.00  0.00    -0.383 N
ATOM      2  H11 UNL     1      43.370-406.464  17.041  1.00  0.00     0.157 HD
ATOM      3  H12 UNL     1      41.825-405.619  17.085  1.00  0.00     0.157 HD
HETATM    4  C1  UNL     1      43.394-404.476  16.622  1.00  0.00     0.145 A
HETATM    5  N2  UNL     1      42.694-403.349  16.490  1.00  0.00    -0.173 N
ATOM      6  H2  UNL     1      41.683-403.351  16.629  1.00  0.00     0.186 HD
HETATM    7  C2  UNL     1      43.333-402.207  16.171  1.00  0.00     0.701 A
HETATM    8  N6  UNL     1      44.648-402.173  15.979  1.00  0.00    -0.172 N
ATOM      9  H6  UNL     1      45.090-401.287  15.736  1.00  0.00     0.186 HD
HETATM   10  C3  UNL     1      45.419-403.283  16.095  1.00  0.00     0.160 A
HETATM   11  C4  UNL     1      44.769-404.453  16.423  1.00  0.00     0.123 A
HETATM   12  N7  UNL     1      45.691-405.406  16.488  1.00  0.00    -0.346 N
ATOM     13  H7  UNL     1      45.508-406.384  16.710  1.00  0.00     0.167 HD
HETATM   14  C5  UNL     1      46.875-404.902  16.223  1.00  0.00     0.191 A
HETATM   15  N8  UNL     1      46.716-403.556  15.971  1.00  0.00    -0.288 N
ENDROOT
BRANCH  15  16
HETATM   16  C6  UNL     1      47.790-402.671  15.700  1.00  0.00     0.186 C
BRANCH  16  17
HETATM   17  N9  UNL     1      47.932-402.129  14.391  1.00  0.00    -0.386 N
ATOM     18  H9  UNL     1      47.617-402.608  13.547  1.00  0.00     0.160 HD
BRANCH  17  19
HETATM   19  C7  UNL     1      48.568-400.832  14.378  1.00  0.00     0.124 C
BRANCH  19  20
HETATM   20  C8  UNL     1      49.252-400.428  13.123  1.00  0.00     0.073 C
BRANCH  20  21
HETATM   21  C9  UNL     1      48.468-400.319  11.872  1.00  0.00     0.280 C
BRANCH  21  22
HETATM   22  N10 UNL     1      48.527-398.924  11.400  1.00  0.00    -0.059 N
ATOM     23 3H10 UNL     1      47.789-398.707  10.730  1.00  0.00     0.276 HD
ATOM     24 2H10 UNL     1      48.263-398.256  12.123  1.00  0.00     0.276 HD
ATOM     25 1H10 UNL     1      49.459-398.747  11.024  1.00  0.00     0.276 HD
ENDBRANCH  21  22
BRANCH  21  26
HETATM   26  N11 UNL     1      48.708-401.204  10.832  1.00  0.00    -0.374 N
ATOM     27  H11 UNL     1      49.314-400.906  10.067  1.00  0.00     0.156 HD
BRANCH  26  28
HETATM   28  C10 UNL     1      48.153-402.492  10.787  1.00  0.00     0.348 C
BRANCH  28  29
HETATM   29  N12 UNL     1      47.472-402.607   9.479  1.00  0.00    -0.064 N
ATOM     30 3H12 UNL     1      46.465-402.462   9.534  1.00  0.00     0.276 HD
ATOM     31 2H12 UNL     1      47.677-401.833   8.847  1.00  0.00     0.276 HD
ATOM     32 1H12 UNL     1      47.731-403.518   9.101  1.00  0.00     0.276 HD
ENDBRANCH  28  29
ENDBRANCH  26  28
ENDBRANCH  21  26
ENDBRANCH  20  21
ENDBRANCH  19  20
ENDBRANCH  17  19
ENDBRANCH  16  17
ENDBRANCH  15  16
BRANCH   7  33
HETATM   33  N3  UNL     1      42.468-401.040  16.069  1.00  0.00    -0.118 N
ATOM     34  H3  UNL     1      41.632-400.935  16.643  1.00  0.00     0.207 HD
BRANCH  33  35
HETATM   35  N4  UNL     1      42.827-400.144  15.206  1.00  0.00    -0.235 N
ATOM     36  H4  UNL     1      42.564-400.280  14.230  1.00  0.00     0.208 HD
BRANCH  35  37
HETATM   37  N5  UNL     1      43.543-399.018  15.539  1.00  0.00    -0.330 N
ATOM     38  H52 UNL     1      44.220-398.676  14.857  1.00  0.00     0.178 HD
ATOM     39  H51 UNL     1      43.427-398.520  16.422  1.00  0.00     0.178 HD
ENDBRANCH  35  37
ENDBRANCH  33  35
ENDBRANCH   7  33
TORSDOF 12
ENDMDL