MODEL 2
REMARK VINA RESULT: -6.671545520      0.080      1.684
REMARK  12 active torsions:
REMARK  status: ('A' for Active; 'I' for Inactive)
REMARK    1  A    between atoms: N1_1  and  C1_4
REMARK    2  A    between atoms: C2_7  and  N3_8
REMARK    3  A    between atoms: C4_10  and  C5_11
REMARK    4  A    between atoms: C5_11  and  O1_12
REMARK    5  A    between atoms: C5_11  and  C6_14
REMARK    6  A    between atoms: C5_11  and  N4_18
REMARK    7  A    between atoms: C6_14  and  C7_15
REMARK    8  A    between atoms: C7_15  and  O2_16
REMARK    9  A    between atoms: N4_18  and  C8_20
REMARK   10  A    between atoms: C8_20  and  C9_21
REMARK   11  A    between atoms: C9_21  and  N5_22
REMARK   12  A    between atoms: C10_32  and  N9_33
ROOT
HETATM    1  N3  UNL     1      43.581-404.118  15.942  1.00  0.00    -0.106 N
HETATM    2  C3  UNL     1      44.841-403.875  16.694  1.00  0.00     0.201 C
HETATM    3  C4  UNL     1      44.421-402.541  17.244  1.00  0.00     0.176 C
HETATM    4  N6  UNL     1      43.865-401.949  16.022  1.00  0.00    -0.310 N
ATOM      5  H6  UNL     1      43.856-400.957  15.782  1.00  0.00     0.182 HD
HETATM    6  N7  UNL     1      43.399-402.888  15.324  1.00  0.00    -0.230 N
ATOM      7  H7  UNL     1      42.945-402.761  14.419  1.00  0.00     0.208 HD
ENDROOT
BRANCH   1   8
HETATM    8  C2  UNL     1      42.852-405.298  15.894  1.00  0.00     0.729 A
HETATM    9  N2  UNL     1      42.145-405.642  14.769  1.00  0.00    -0.020 N
HETATM   10  C1  UNL     1      41.413-406.773  14.699  1.00  0.00     0.705 A
ATOM     11  H2  UNL     1      42.173-405.022  13.960  1.00  0.00     0.203 HD
HETATM   12  N10 UNL     1      41.362-407.609  15.755  1.00  0.00    -0.022 N
HETATM   13  C10 UNL     1      42.039-407.300  16.854  1.00  0.00     0.705 A
ATOM     14  H10 UNL     1      40.811-408.467  15.710  1.00  0.00     0.203 HD
HETATM   15  N8  UNL     1      42.760-406.174  16.910  1.00  0.00    -0.020 N
ATOM     16  H8  UNL     1      43.268-405.969  17.771  1.00  0.00     0.203 HD
BRANCH  10  17
HETATM   17  N1  UNL     1      40.743-407.072  13.631  1.00  0.00    -0.234 N
ATOM     18  H12 UNL     1      39.730-407.167  13.696  1.00  0.00     0.174 HD
ATOM     19  H11 UNL     1      41.211-407.204  12.734  1.00  0.00     0.174 HD
ENDBRANCH  10  17
BRANCH  13  20
HETATM   20  N9  UNL     1      41.971-408.118  17.872  1.00  0.00    -0.234 N
ATOM     21  H92 UNL     1      42.175-407.749  18.800  1.00  0.00     0.174 HD
ATOM     22  H91 UNL     1      41.728-409.101  17.749  1.00  0.00     0.174 HD
ENDBRANCH  13  20
ENDBRANCH   1   8
BRANCH   3  23
HETATM   23  C5  UNL     1      45.410-401.689  17.908  1.00  0.00     0.153 C
BRANCH  23  24
HETATM   24  O1  UNL     1      45.122-401.962  19.337  1.00  0.00    -0.369 OA
ATOM     25  H1  UNL     1      44.479-401.289  19.531  1.00  0.00     0.212 HD
ENDBRANCH  23  24
BRANCH  23  26
HETATM   26  C6  UNL     1      45.057-400.240  17.807  1.00  0.00     0.088 C
BRANCH  26  27
HETATM   27  C7  UNL     1      45.805-399.284  18.650  1.00  0.00     0.169 C
BRANCH  27  28
HETATM   28  O2  UNL     1      45.011-399.101  19.824  1.00  0.00    -0.401 OA
ATOM     29  H2  UNL     1      45.004-399.944  20.263  1.00  0.00     0.209 HD
ENDBRANCH  27  28
ENDBRANCH  26  27
ENDBRANCH  23  26
BRANCH  23  30
HETATM   30  N4  UNL     1      46.771-401.987  17.838  1.00  0.00    -0.388 N
ATOM     31  H4  UNL     1      47.169-402.595  18.553  1.00  0.00     0.156 HD
BRANCH  30  32
HETATM   32  C8  UNL     1      47.615-401.497  16.840  1.00  0.00     0.144 C
BRANCH  32  33
HETATM   33  C9  UNL     1      48.146-402.642  15.971  1.00  0.00     0.248 C
BRANCH  33  34
HETATM   34  N5  UNL     1      47.451-402.538  14.706  1.00  0.00    -0.078 N
ATOM     35  H53 UNL     1      46.448-402.711  14.777  1.00  0.00     0.274 HD
ATOM     36  H52 UNL     1      47.386-401.582  14.356  1.00  0.00     0.274 HD
ATOM     37  H51 UNL     1      47.930-403.175  14.069  1.00  0.00     0.274 HD
ENDBRANCH  33  34
ENDBRANCH  32  33
ENDBRANCH  30  32
ENDBRANCH  23  30
ENDBRANCH   3  23
TORSDOF 12
ENDMDL