MODEL 4
REMARK VINA RESULT: -6.261922096      3.385      5.544
REMARK  11 active torsions:
REMARK  status: ('A' for Active; 'I' for Inactive)
REMARK    1  A    between atoms: N1_1  and  C1_4
REMARK    2  A    between atoms: C3_9  and  N4_10
REMARK    3  A    between atoms: N4_10  and  C4_12
REMARK    4  A    between atoms: C6_21  and  C7_22
REMARK    5  A    between atoms: C7_22  and  C8_23
REMARK    6  A    between atoms: C8_23  and  C9_24
REMARK    7  A    between atoms: C9_24  and  C10_25
REMARK    8  A    between atoms: C10_25  and  N9_26
REMARK    9  A    between atoms: N9_26  and  C11_28
REMARK   10  A    between atoms: C11_28  and  C12_29
REMARK   11  A    between atoms: C12_29  and  N10_30
ROOT
HETATM    1  C1  UNL     1      47.407-401.949  17.637  1.00  0.00     0.123 A
HETATM    2  N2  UNL     1      46.424-401.252  18.258  1.00  0.00    -0.327 N
ATOM      3  H2  UNL     1      46.615-400.767  19.135  1.00  0.00     0.168 HD
HETATM    4  C2  UNL     1      45.201-401.203  17.715  1.00  0.00     0.162 A
HETATM    5  N3  UNL     1      44.157-400.465  18.372  1.00  0.00    -0.079 NA
HETATM    6  C3  UNL     1      44.962-401.868  16.523  1.00  0.00     0.150 A
HETATM    7  N8  UNL     1      45.949-402.547  15.929  1.00  0.00    -0.340 N
ATOM      8  H8  UNL     1      45.761-403.032  15.051  1.00  0.00     0.167 HD
HETATM    9  C6  UNL     1      47.183-402.607  16.461  1.00  0.00     0.054 A
ENDROOT
BRANCH   9  10
HETATM   10  C7  UNL     1      48.231-403.343  15.753  1.00  0.00     0.061 C
BRANCH  10  11
HETATM   11  C8  UNL     1      47.869-404.776  15.457  1.00  0.00     0.008 C
BRANCH  11  12
HETATM   12  C9  UNL     1      49.013-405.670  15.873  1.00  0.00     0.020 C
BRANCH  12  13
HETATM   13  C10 UNL     1      49.421-405.458  17.300  1.00  0.00     0.113 C
BRANCH  13  14
HETATM   14  N9  UNL     1      50.828-405.611  17.461  1.00  0.00    -0.420 N
ATOM     15  H9  UNL     1      51.407-404.873  17.862  1.00  0.00     0.153 HD
BRANCH  14  16
HETATM   16  C11 UNL     1      51.381-406.851  17.031  1.00  0.00     0.141 C
BRANCH  16  17
HETATM   17  C12 UNL     1      51.454-407.753  18.271  1.00  0.00     0.248 C
BRANCH  17  18
HETATM   18  N10 UNL     1      52.413-408.792  18.030  1.00  0.00    -0.078 N
ATOM     19 3H10 UNL     1      51.973-409.699  17.875  1.00  0.00     0.274 HD
ATOM     20 2H10 UNL     1      52.869-408.698  17.124  1.00  0.00     0.274 HD
ATOM     21 1H10 UNL     1      53.079-408.809  18.803  1.00  0.00     0.274 HD
ENDBRANCH  17  18
ENDBRANCH  16  17
ENDBRANCH  14  16
ENDBRANCH  13  14
ENDBRANCH  12  13
ENDBRANCH  11  12
ENDBRANCH  10  11
ENDBRANCH   9  10
BRANCH   1  22
HETATM   22  N1  UNL     1      48.553-401.986  18.189  1.00  0.00    -0.384 N
ATOM     23  H12 UNL     1      49.138-401.151  18.221  1.00  0.00     0.157 HD
ATOM     24  H11 UNL     1      48.866-402.873  18.583  1.00  0.00     0.157 HD
ENDBRANCH   1  22
BRANCH   6  25
HETATM   25  N4  UNL     1      43.683-401.826  15.942  1.00  0.00    -0.311 N
ATOM     26  H4  UNL     1      43.286-400.937  15.637  1.00  0.00     0.170 HD
BRANCH  25  27
HETATM   27  C4  UNL     1      42.942-403.042  15.781  1.00  0.00     0.194 C
HETATM   28  N5  UNL     1      42.410-403.753  16.721  1.00  0.00    -0.346 N
HETATM   29  C5  UNL     1      41.766-404.881  16.102  1.00  0.00     0.259 C
ATOM     30  H5  UNL     1      42.441-403.551  17.720  1.00  0.00     0.163 HD
HETATM   31  N6  UNL     1      42.440-404.991  14.825  1.00  0.00    -0.119 NA
HETATM   32  N7  UNL     1      42.689-403.649  14.522  1.00  0.00    -0.274 N
ATOM     33  H7  UNL     1      42.688-403.206  13.603  1.00  0.00     0.185 HD
ENDBRANCH  25  27
ENDBRANCH   6  25
TORSDOF 11
ENDMDL