MODEL 4
REMARK VINA RESULT: -6.671552603      1.593      2.417
REMARK  11 active torsions:
REMARK  status: ('A' for Active; 'I' for Inactive)
REMARK    1  A    between atoms: N1_1  and  C1_4
REMARK    2  A    between atoms: C3_9  and  C4_10
REMARK    3  A    between atoms: N4_11  and  N5_13
REMARK    4  A    between atoms: C6_15  and  C7_16
REMARK    5  A    between atoms: C7_16  and  C8_17
REMARK    6  A    between atoms: C8_17  and  N6_18
REMARK    7  A    between atoms: N6_18  and  C9_21
REMARK    8  A    between atoms: C9_21  and  C10_22
REMARK    9  A    between atoms: C10_22  and  N7_23
REMARK   10  A    between atoms: C10_22  and  N8_27
REMARK   11  A    between atoms: C11_35  and  N11_36
ROOT
HETATM    1  N5  UNL     1      42.962-403.357  16.059  1.00  0.00    -0.192 N
HETATM    2  C5  UNL     1      44.098-403.354  16.797  1.00  0.00     0.164 A
HETATM    3  C6  UNL     1      44.709-402.107  16.677  1.00  0.00     0.048 A
HETATM    4  N9  UNL     1      43.921-401.400  15.871  1.00  0.00    -0.287 N
ATOM      5  H9  UNL     1      44.082-400.437  15.575  1.00  0.00     0.188 HD
HETATM    6  N10 UNL     1      42.879-402.167  15.512  1.00  0.00    -0.222 N
ATOM      7  H10 UNL     1      42.125-401.864  14.896  1.00  0.00     0.210 HD
ENDROOT
BRANCH   1   8
HETATM    8  N4  UNL     1      42.068-404.459  15.937  1.00  0.00    -0.289 N
HETATM    9  C4  UNL     1      42.609-405.574  15.533  1.00  0.00     0.128 C
ATOM     10  H4  UNL     1      41.074-404.381  16.151  1.00  0.00     0.188 HD
BRANCH   9  11
HETATM   11  C3  UNL     1      41.834-406.795  15.358  1.00  0.00     0.067 A
HETATM   12  C2  UNL     1      41.067-407.030  14.236  1.00  0.00     0.147 A
HETATM   13  N2  UNL     1      40.348-408.158  14.099  1.00  0.00    -0.178 N
HETATM   14  N3  UNL     1      41.081-406.024  13.224  1.00  0.00    -0.081 NA
HETATM   15  C1  UNL     1      40.329-409.121  15.039  1.00  0.00     0.678 A
ATOM     16  H2  UNL     1      39.795-408.288  13.252  1.00  0.00     0.185 HD
HETATM   17  N12 UNL     1      41.073-408.909  16.145  1.00  0.00    -0.176 N
HETATM   18  C11 UNL     1      41.811-407.795  16.327  1.00  0.00     0.129 A
ATOM     19  H12 UNL     1      41.078-409.622  16.874  1.00  0.00     0.186 HD
BRANCH  15  20
HETATM   20  N1  UNL     1      39.644-410.202  14.904  1.00  0.00    -0.234 N
ATOM     21  H12 UNL     1      39.219-410.655  15.714  1.00  0.00     0.174 HD
ATOM     22  H11 UNL     1      39.502-410.650  13.998  1.00  0.00     0.174 HD
ENDBRANCH  15  20
BRANCH  18  23
HETATM   23  N11 UNL     1      42.522-407.587  17.372  1.00  0.00    -0.384 N
ATOM     24 2H11 UNL     1      42.210-407.012  18.154  1.00  0.00     0.157 HD
ATOM     25 1H11 UNL     1      43.438-408.034  17.390  1.00  0.00     0.157 HD
ENDBRANCH  18  23
ENDBRANCH   9  11
ENDBRANCH   1   8
BRANCH   3  26
HETATM   26  C7  UNL     1      45.962-401.736  17.348  1.00  0.00     0.087 C
BRANCH  26  27
HETATM   27  C8  UNL     1      47.113-401.470  16.464  1.00  0.00     0.238 C
BRANCH  27  28
HETATM   28  N6  UNL     1      47.393-402.419  15.439  1.00  0.00    -0.071 N
ATOM     29  H62 UNL     1      46.554-402.795  14.997  1.00  0.00     0.277 HD
ATOM     30  H61 UNL     1      47.801-402.000  14.603  1.00  0.00     0.277 HD
BRANCH  28  31
HETATM   31  C9  UNL     1      48.237-403.447  16.038  1.00  0.00     0.294 C
BRANCH  31  32
HETATM   32  C10 UNL     1      47.850-404.839  15.670  1.00  0.00     0.403 C
BRANCH  32  33
HETATM   33  N7  UNL     1      48.972-405.714  15.446  1.00  0.00    -0.049 N
ATOM     34  H73 UNL     1      49.814-405.337  15.880  1.00  0.00     0.276 HD
ATOM     35  H72 UNL     1      48.871-406.574  15.987  1.00  0.00     0.276 HD
ATOM     36  H71 UNL     1      49.138-405.926  14.463  1.00  0.00     0.276 HD
ENDBRANCH  32  33
BRANCH  32  37
HETATM   37  N8  UNL     1      46.926-405.389  16.651  1.00  0.00    -0.049 N
ATOM     38  H83 UNL     1      46.185-404.728  16.885  1.00  0.00     0.276 HD
ATOM     39  H82 UNL     1      46.349-406.131  16.254  1.00  0.00     0.276 HD
ATOM     40  H81 UNL     1      47.429-405.704  17.480  1.00  0.00     0.276 HD
ENDBRANCH  32  37
ENDBRANCH  31  32
ENDBRANCH  28  31
ENDBRANCH  27  28
ENDBRANCH  26  27
ENDBRANCH   3  26
TORSDOF 11
ENDMDL