MODEL 1
REMARK VINA RESULT: -5.881358255      0.000      0.000
REMARK  11 active torsions:
REMARK  status: ('A' for Active; 'I' for Inactive)
REMARK    1  A    between atoms: C2_2  and  N1_3
REMARK    2  A    between atoms: C2_2  and  C3_7
REMARK    3  A    between atoms: C3_7  and  C4_8
REMARK    4  A    between atoms: C4_8  and  O1_9
REMARK    5  A    between atoms: O1_9  and  C5_10
REMARK    6  A    between atoms: C5_10  and  C6_11
REMARK    7  A    between atoms: C6_11  and  N2_12
REMARK    8  A    between atoms: N2_12  and  C7_15
REMARK    9  A    between atoms: C7_15  and  C8_16
REMARK   10  A    between atoms: C11_22  and  N6_23
REMARK   11  A    between atoms: C11_22  and  O2_27
ROOT
HETATM    1  N2  UNL     1      44.364-403.808  15.639  1.00  0.00    -0.073 N
ATOM      2  H21 UNL     1      43.828-403.015  15.288  1.00  0.00     0.277 HD
ATOM      3  H22 UNL     1      44.791-404.116  14.766  1.00  0.00     0.277 HD
ENDROOT
BRANCH   1   4
HETATM    4  C6  UNL     1      43.505-404.811  16.171  1.00  0.00     0.258 C
BRANCH   4   5
HETATM    5  C5  UNL     1      42.048-404.499  16.143  1.00  0.00     0.195 C
BRANCH   5   6
HETATM    6  O1  UNL     1      41.317-405.557  15.653  1.00  0.00    -0.389 OA
BRANCH   6   7
HETATM    7  C4  UNL     1      42.004-406.472  14.902  1.00  0.00     0.169 C
BRANCH   7   8
HETATM    8  C3  UNL     1      41.432-407.855  15.178  1.00  0.00     0.058 C
BRANCH   8   9
HETATM    9  C2  UNL     1      42.054-408.511  16.383  1.00  0.00     0.181 C
HETATM   10  C1  UNL     1      43.546-408.448  16.415  1.00  0.00     0.039 C
BRANCH   9  11
HETATM   11  N1  UNL     1      41.535-407.834  17.553  1.00  0.00    -0.075 N
ATOM     12  H13 UNL     1      41.955-406.915  17.691  1.00  0.00     0.274 HD
ATOM     13  H12 UNL     1      40.568-407.531  17.431  1.00  0.00     0.274 HD
ATOM     14  H11 UNL     1      41.654-408.442  18.364  1.00  0.00     0.274 HD
ENDBRANCH   9  11
ENDBRANCH   8   9
ENDBRANCH   7   8
ENDBRANCH   6   7
ENDBRANCH   5   6
ENDBRANCH   4   5
ENDBRANCH   1   4
BRANCH   1  15
HETATM   15  C7  UNL     1      45.348-403.388  16.567  1.00  0.00     0.243 C
BRANCH  15  16
HETATM   16  C8  UNL     1      45.656-401.927  16.616  1.00  0.00     0.100 C
HETATM   17  C9  UNL     1      46.265-401.658  18.028  1.00  0.00     0.132 C
HETATM   18  N3  UNL     1      47.030-400.463  18.120  1.00  0.00    -0.123 NA
HETATM   19  C10 UNL     1      44.869-401.249  18.463  1.00  0.00     0.182 C
HETATM   20  N4  UNL     1      46.377-399.577  18.938  1.00  0.00    -0.039 NA
HETATM   21  N5  UNL     1      45.144-400.110  19.285  1.00  0.00    -0.118 NA
HETATM   22  C11 UNL     1      44.594-400.962  17.008  1.00  0.00     0.264 C
BRANCH  22  23
HETATM   23  N6  UNL     1      44.891-399.570  16.638  1.00  0.00    -0.043 N
ATOM     24  H63 UNL     1      45.175-399.510  15.660  1.00  0.00     0.278 HD
ATOM     25  H62 UNL     1      44.035-399.017  16.603  1.00  0.00     0.278 HD
ATOM     26  H61 UNL     1      45.583-399.123  17.240  1.00  0.00     0.278 HD
ENDBRANCH  22  23
BRANCH  22  27
HETATM   27  O2  UNL     1      43.338-401.263  16.624  1.00  0.00    -0.265 OA
HETATM   28  S1  UNL     1      42.414-400.041  15.915  1.00  0.00     0.095 SA
ENDBRANCH  22  27
ENDBRANCH  15  16
ENDBRANCH   1  15
TORSDOF 11
ENDMDL