MODEL 1
REMARK VINA RESULT: -9.233866453      0.000      0.000
REMARK  4 active torsions:
REMARK  status: ('A' for Active; 'I' for Inactive)
REMARK    1  A    between atoms: C1_2  and  C2_4
REMARK       I    between atoms: N1_8  and  C6_9
REMARK    2  A    between atoms: C6_9  and  C7_11
REMARK    3  A    between atoms: C7_11  and  C8_12
REMARK    4  A    between atoms: C8_12  and  C9_13
ROOT
HETATM    1  C9  UNL     1     -12.319   7.415  -3.367  1.00  0.00     0.031 A
HETATM    2  N2  UNL     1     -11.056   7.122  -3.033  1.00  0.00    -0.361 N
ATOM      3  H2  UNL     1     -10.828   7.070  -2.040  1.00  0.00     0.165 HD
HETATM    4  C10 UNL     1     -10.072   6.894  -3.911  1.00  0.00     0.015 A
HETATM    5  C11 UNL     1     -10.392   6.967  -5.268  1.00  0.00    -0.034 A
HETATM    6  C12 UNL     1     -11.688   7.269  -5.641  1.00  0.00     0.035 A
HETATM    7  C13 UNL     1     -12.664   7.495  -4.692  1.00  0.00     0.057 A
HETATM    8 CL1  UNL     1     -14.303   7.876  -5.215  1.00  0.00    -0.082 Cl
HETATM    9  C14 UNL     1      -9.492   6.758  -6.445  1.00  0.00     0.040 C
HETATM   10  C15 UNL     1      -8.734   5.454  -6.322  1.00  0.00     0.005 C
HETATM   11  C16 UNL     1      -7.604   5.689  -5.349  1.00  0.00     0.001 C
HETATM   12  C17 UNL     1      -8.079   5.399  -3.938  1.00  0.00     0.006 C
HETATM   13  C18 UNL     1      -8.761   6.589  -3.328  1.00  0.00     0.057 C
ENDROOT
BRANCH   1  14
HETATM   14  C8  UNL     1     -13.298   7.651  -2.308  1.00  0.00     0.068 C
BRANCH  14  15
HETATM   15  C7  UNL     1     -12.917   7.264  -0.936  1.00  0.00     0.109 C
BRANCH  15  16
HETATM   16  C6  UNL     1     -13.808   6.372  -0.210  1.00  0.00     0.220 C
HETATM   17  N1  UNL     1     -13.276   5.598   0.856  1.00  0.00    -0.351 N
HETATM   18  C5  UNL     1     -11.868   5.674   1.240  1.00  0.00     0.126 C
HETATM   19  C19 UNL     1     -14.101   4.688   1.628  1.00  0.00     0.141 C
HETATM   20  C4  UNL     1     -11.261   4.287   1.238  1.00  0.00     0.021 C
HETATM   21  C3  UNL     1     -12.043   3.326   2.101  1.00  0.00     0.019 C
HETATM   22  C2  UNL     1     -13.514   3.306   1.725  1.00  0.00     0.105 C
HETATM   23  O3  UNL     1     -15.019   6.257  -0.481  1.00  0.00    -0.273 OA
BRANCH  22  24
HETATM   24  C1  UNL     1     -14.227   2.596   2.827  1.00  0.00     0.178 C
HETATM   25  O1  UNL     1     -15.462   2.655   2.976  1.00  0.00    -0.648 OA
HETATM   26  O2  UNL     1     -13.504   1.832   3.734  1.00  0.00    -0.648 OA
ENDBRANCH  22  24
ENDBRANCH  15  16
ENDBRANCH  14  15
ENDBRANCH   1  14
TORSDOF 4
ENDMDL