MODEL 3
REMARK VINA RESULT: -6.976199130      1.028      1.886
REMARK  4 active torsions:
REMARK  status: ('A' for Active; 'I' for Inactive)
REMARK    1  A    between atoms: C1_2  and  C2_3
REMARK       I    between atoms: C1_2  and  N1_11
REMARK    2  A    between atoms: C2_3  and  O2_4
REMARK    3  A    between atoms: O2_4  and  C3_5
REMARK    4  A    between atoms: N1_11  and  C7_13
ROOT
HETATM    1  O1  UNL     1     -13.737   6.715  -2.295  1.00  0.00    -0.271 OA
HETATM    2  C1  UNL     1     -13.314   6.671  -1.122  1.00  0.00     0.242 C
HETATM    3  N1  UNL     1     -11.945   6.852  -0.867  1.00  0.00    -0.354 N
ATOM      4  H1  UNL     1     -11.632   6.810   0.103  1.00  0.00     0.162 HD
ENDROOT
BRANCH   3   5
HETATM    5  C7  UNL     1     -10.950   7.094  -1.884  1.00  0.00     0.089 C
HETATM    6  C8  UNL     1      -9.549   6.929  -1.348  1.00  0.00     0.030 C
HETATM    7  C9  UNL     1      -8.623   7.720  -2.222  1.00  0.00    -0.012 C
HETATM    8  C10 UNL     1      -8.327   9.089  -1.686  1.00  0.00     0.009 C
HETATM    9  C14 UNL     1      -9.133   7.832  -3.636  1.00  0.00     0.010 C
HETATM   10  C11 UNL     1      -9.450  10.066  -1.913  1.00  0.00    -0.013 C
HETATM   11  C12 UNL     1      -9.797  10.164  -3.393  1.00  0.00     0.010 C
HETATM   12  C16 UNL     1     -10.728   9.466  -1.356  1.00  0.00     0.011 C
HETATM   13  C13 UNL     1     -10.345   8.760  -3.645  1.00  0.00    -0.008 C
HETATM   14  C15 UNL     1     -11.162   8.496  -2.413  1.00  0.00     0.013 C
ENDBRANCH   3   5
BRANCH   2  15
HETATM   15  C2  UNL     1     -14.258   6.429  -0.016  1.00  0.00     0.279 C
BRANCH  15  16
HETATM   16  O2  UNL     1     -14.495   5.066   0.121  1.00  0.00    -0.335 OA
BRANCH  16  17
HETATM   17  C3  UNL     1     -14.116   4.306   1.220  1.00  0.00     0.111 A
HETATM   18  C4  UNL     1     -14.780   3.361   1.947  1.00  0.00     0.046 A
HETATM   19  C5  UNL     1     -14.125   2.797   2.975  1.00  0.00     0.030 A
HETATM   20  C6  UNL     1     -12.844   3.217   3.209  1.00  0.00     0.054 A
HETATM   21 BR1  UNL     1     -11.632   2.623   4.584  1.00  0.00    -0.043 Br
HETATM   22  S1  UNL     1     -12.598   4.384   1.987  1.00  0.00    -0.058 SA
ENDBRANCH  16  17
ENDBRANCH  15  16
ENDBRANCH   2  15
TORSDOF 4
ENDMDL