MODEL 1
REMARK VINA RESULT: -6.226122638      0.000      0.000
REMARK  5 active torsions:
REMARK  status: ('A' for Active; 'I' for Inactive)
REMARK    1  A    between atoms: O1_2  and  C2_3
REMARK    2  A    between atoms: C2_3  and  C3_5
REMARK    3  A    between atoms: C7_11  and  C8_12
REMARK    4  A    between atoms: N2_14  and  C9_15
REMARK    5  A    between atoms: C9_15  and  C10_16
ROOT
HETATM    1  C3  UNL     1      -9.550   9.830  -2.158  1.00  0.00     0.068 A
HETATM    2  C4  UNL     1      -9.965  11.159  -2.319  1.00  0.00     0.106 A
HETATM    3  N1  UNL     1     -11.252  11.155  -2.669  1.00  0.00    -0.367 N
ATOM      4  H1  UNL     1     -11.825  11.979  -2.855  1.00  0.00     0.165 HD
HETATM    5  C5  UNL     1     -11.658   9.888  -2.735  1.00  0.00     0.023 A
HETATM    6  C6  UNL     1     -10.597   9.007  -2.415  1.00  0.00     0.022 A
HETATM    7  C7  UNL     1     -10.970   7.594  -2.496  1.00  0.00     0.011 C
HETATM    8  N2  UNL     1     -12.142   7.181  -1.768  1.00  0.00    -0.285 NA
HETATM    9  C16 UNL     1     -13.157   8.209  -1.884  1.00  0.00     0.101 C
HETATM   10  C17 UNL     1     -12.917   9.150  -3.060  1.00  0.00     0.073 C
ENDROOT
BRANCH   8  11
HETATM   11  C9  UNL     1     -11.918   6.898  -0.395  1.00  0.00     0.100 C
BRANCH  11  12
HETATM   12  C10 UNL     1     -12.541   5.685   0.178  1.00  0.00    -0.001 C
HETATM   13  C11 UNL     1     -11.573   5.160   1.261  1.00  0.00     0.006 C
HETATM   14  C12 UNL     1     -11.702   3.652   1.338  1.00  0.00     0.000 C
HETATM   15  C13 UNL     1     -13.202   3.365   1.206  1.00  0.00     0.000 C
HETATM   16  C14 UNL     1     -13.997   4.550   1.748  1.00  0.00     0.000 C
HETATM   17  C15 UNL     1     -13.870   5.762   0.800  1.00  0.00     0.006 C
ENDBRANCH  11  12
ENDBRANCH   8  11
BRANCH   7  18
HETATM   18  C8  UNL     1      -9.815   6.662  -2.382  1.00  0.00     0.137 C
HETATM   19 BR1  UNL     1      -8.967   6.460  -4.143  1.00  0.00    -0.090 Br
ENDBRANCH   7  18
BRANCH   1  20
HETATM   20  C2  UNL     1      -8.217   9.406  -1.782  1.00  0.00     0.295 C
HETATM   21  O2  UNL     1      -8.045   8.821  -0.693  1.00  0.00    -0.259 OA
BRANCH  20  22
HETATM   22  O1  UNL     1      -7.118   9.633  -2.596  1.00  0.00    -0.322 OA
HETATM   23  C1  UNL     1      -6.024  10.409  -2.230  1.00  0.00     0.213 C
ENDBRANCH  20  22
ENDBRANCH   1  20
TORSDOF 5
ENDMDL