MODEL 2
REMARK VINA RESULT: -7.538311748      1.113      1.729
REMARK  4 active torsions:
REMARK  status: ('A' for Active; 'I' for Inactive)
REMARK    1  A    between atoms: C6_7  and  N1_8
REMARK    2  A    between atoms: N2_11  and  C9_12
REMARK    3  A    between atoms: C9_12  and  C10_13
REMARK       I    between atoms: C10_13  and  N3_15
REMARK    4  A    between atoms: N3_15  and  C11_17
ROOT
HETATM    1  N1  UNL     1     -11.783   7.557  -4.561  1.00  0.00    -0.377 N
HETATM    2  C7  UNL     1     -10.624   6.717  -4.715  1.00  0.00     0.153 C
HETATM    3  C8  UNL     1      -9.600   7.121  -3.678  1.00  0.00     0.292 C
HETATM    4  N2  UNL     1     -10.284   7.070  -2.380  1.00  0.00     0.100 N
HETATM    5  C19 UNL     1     -11.033   8.323  -2.335  1.00  0.00     0.292 C
HETATM    6  C20 UNL     1     -12.065   8.349  -3.404  1.00  0.00     0.153 C
ENDROOT
BRANCH   4   7
HETATM    7  C9  UNL     1      -9.301   7.017  -1.311  1.00  0.00     0.374 C
BRANCH   7   8
HETATM    8  C10 UNL     1      -9.926   6.728  -0.026  1.00  0.00     0.246 C
HETATM    9  O1  UNL     1      -9.362   7.021   1.047  1.00  0.00    -0.272 OA
HETATM   10  N3  UNL     1     -11.197   6.107   0.025  1.00  0.00    -0.355 N
ATOM     11  H3  UNL     1     -11.658   5.868  -0.852  1.00  0.00     0.162 HD
BRANCH  10  12
HETATM   12  C11 UNL     1     -11.871   5.798   1.264  1.00  0.00     0.084 C
HETATM   13  C12 UNL     1     -13.253   6.381   1.280  1.00  0.00     0.025 C
HETATM   14  C13 UNL     1     -14.201   5.721   0.330  1.00  0.00     0.002 C
HETATM   15  C14 UNL     1     -14.350   4.260   0.480  1.00  0.00     0.000 C
HETATM   16  C15 UNL     1     -14.235   3.726   1.861  1.00  0.00     0.004 C
HETATM   17  C16 UNL     1     -12.943   3.975   2.549  1.00  0.00    -0.017 C
HETATM   18  C17 UNL     1     -12.528   2.735   3.329  1.00  0.00     0.010 C
HETATM   19  C18 UNL     1     -11.854   4.320   1.575  1.00  0.00     0.029 C
ENDBRANCH  10  12
ENDBRANCH   7   8
ENDBRANCH   4   7
BRANCH   1  20
HETATM   20  C6  UNL     1     -12.728   7.604  -5.653  1.00  0.00     0.032 A
HETATM   21  C5  UNL     1     -12.330   7.255  -6.922  1.00  0.00     0.053 A
HETATM   22  C4  UNL     1     -13.194   7.286  -7.989  1.00  0.00     0.036 A
HETATM   23  C3  UNL     1     -14.500   7.685  -7.742  1.00  0.00     0.030 A
HETATM   24 CL1  UNL     1     -12.698   6.840  -9.624  1.00  0.00    -0.084 Cl
HETATM   25  C2  UNL     1     -14.917   8.038  -6.479  1.00  0.00    -0.058 A
HETATM   26  C1  UNL     1     -16.308   8.467  -6.200  1.00  0.00     0.048 C
HETATM   27  C21 UNL     1     -14.022   7.994  -5.438  1.00  0.00     0.036 A
ENDBRANCH   1  20
TORSDOF 4
ENDMDL