MODEL 1
REMARK VINA RESULT: -7.593794386      0.000      0.000
REMARK  4 active torsions:
REMARK  status: ('A' for Active; 'I' for Inactive)
REMARK    1  A    between atoms: O1_2  and  C2_3
REMARK    2  A    between atoms: C8_10  and  C9_11
REMARK    3  A    between atoms: C9_11  and  C10_12
REMARK    4  A    between atoms: C10_12  and  C11_13
ROOT
HETATM    1  C2  UNL     1     -13.228   6.473   0.053  1.00  0.00     0.090 A
HETATM    2  C3  UNL     1     -13.736   7.037  -1.079  1.00  0.00     0.046 A
HETATM    3  C4  UNL     1     -12.944   7.414  -2.182  1.00  0.00    -0.048 A
HETATM    4  C5  UNL     1     -11.581   7.198  -2.113  1.00  0.00    -0.039 A
HETATM    5  C6  UNL     1     -11.061   6.631  -0.979  1.00  0.00     0.035 A
HETATM    6  C7  UNL     1     -11.864   6.274   0.088  1.00  0.00     0.068 A
HETATM    7 CL1  UNL     1     -11.162   5.547   1.530  1.00  0.00    -0.081 Cl
HETATM    8  C8  UNL     1     -10.721   7.594  -3.314  1.00  0.00     0.023 C
HETATM    9  C12 UNL     1     -10.410   9.024  -3.108  1.00  0.00     0.005 A
HETATM   10  C13 UNL     1     -10.843   9.721  -1.857  1.00  0.00     0.006 A
HETATM   11  C14 UNL     1     -11.632  10.746  -2.658  1.00  0.00     0.006 A
HETATM   12  C15 UNL     1     -11.202  10.019  -3.888  1.00  0.00    -0.003 A
HETATM   13  C16 UNL     1     -12.229   9.483  -4.803  1.00  0.00     0.025 C
HETATM   14  C17 UNL     1     -11.489   9.085  -6.064  1.00  0.00     0.278 C
HETATM   15  N1  UNL     1     -10.971   7.763  -5.727  1.00  0.00     0.090 N
HETATM   16  C18 UNL     1     -11.402   6.896  -6.851  1.00  0.00     0.310 C
HETATM   17  C19 UNL     1     -11.603   7.318  -4.516  1.00  0.00     0.240 C
HETATM   18  C20 UNL     1     -12.839   8.185  -4.466  1.00  0.00     0.030 C
HETATM   19  C21 UNL     1     -13.681   8.025  -3.306  1.00  0.00     0.046 C
ENDROOT
BRANCH   8  20
HETATM   20  C9  UNL     1      -9.623   6.612  -3.341  1.00  0.00     0.027 C
BRANCH  20  21
HETATM   21  C10 UNL     1      -8.409   6.742  -4.142  1.00  0.00     0.114 C
BRANCH  21  22
HETATM   22  C11 UNL     1      -8.160   5.712  -5.154  1.00  0.00     0.172 C
HETATM   23  O2  UNL     1      -7.041   5.780  -5.781  1.00  0.00    -0.648 OA
HETATM   24  O3  UNL     1      -8.985   4.676  -5.509  1.00  0.00    -0.648 OA
ENDBRANCH  21  22
ENDBRANCH  20  21
ENDBRANCH   8  20
BRANCH   1  25
HETATM   25  O1  UNL     1     -13.986   6.099   1.143  1.00  0.00    -0.354 OA
HETATM   26  C1  UNL     1     -14.585   4.801   1.232  1.00  0.00     0.210 C
ENDBRANCH   1  25
TORSDOF 4
ENDMDL