MODEL 5
REMARK VINA RESULT: -5.009394419      1.096      3.019
REMARK  9 active torsions:
REMARK  status: ('A' for Active; 'I' for Inactive)
REMARK    1  A    between atoms: C4_5  and  O1_6
REMARK    2  A    between atoms: C4_5  and  N2_8
REMARK    3  A    between atoms: N2_8  and  C5_9
REMARK    4  A    between atoms: N2_8  and  C10_16
REMARK    5  A    between atoms: C5_9  and  C6_10
REMARK    6  A    between atoms: C5_9  and  C7_13
REMARK    7  A    between atoms: C6_10  and  O2_11
REMARK    8  A    between atoms: C14_20  and  C15_21
REMARK    9  A    between atoms: C15_21  and  C17_23
ROOT
HETATM    1  C1  UNL     1      -8.798   7.668  -1.317  1.00  0.00     0.041 C
HETATM    2  C2  UNL     1     -10.119   8.282  -1.584  1.00  0.00     0.136 C
HETATM    3  C3  UNL     1     -10.780   7.492  -2.732  1.00  0.00     0.164 C
HETATM    4  N1  UNL     1     -12.213   7.557  -2.526  1.00  0.00    -0.315 N
HETATM    5  C4  UNL     1     -13.090   8.225  -3.333  1.00  0.00     0.226 C
HETATM    6  C14 UNL     1     -12.505   6.796  -1.293  1.00  0.00     0.026 C
HETATM    7  C18 UNL     1     -11.764   7.422  -0.136  1.00  0.00     0.164 C
HETATM    8  C19 UNL     1     -10.907   6.408   0.624  1.00  0.00     0.046 C
HETATM    9  O3  UNL     1     -10.960   8.493  -0.548  1.00  0.00    -0.374 OA
ENDROOT
BRANCH   5  10
HETATM   10  O1  UNL     1     -14.300   8.129  -2.754  1.00  0.00    -0.332 OA
ATOM     11  H1  UNL     1     -14.594   9.016  -2.583  1.00  0.00     0.221 HD
ENDBRANCH   5  10
BRANCH   5  12
HETATM   12  N2  UNL     1     -13.131   8.958  -4.538  1.00  0.00    -0.309 N
BRANCH  12  13
HETATM   13  C5  UNL     1     -13.077  10.335  -4.836  1.00  0.00     0.020 C
BRANCH  13  14
HETATM   14  C6  UNL     1     -11.797  11.067  -4.494  1.00  0.00     0.217 C
BRANCH  14  15
HETATM   15  O2  UNL     1     -11.806  11.472  -3.165  1.00  0.00    -0.395 OA
ATOM     16  H2  UNL     1     -12.695  11.500  -2.831  1.00  0.00     0.209 HD
ENDBRANCH  14  15
ENDBRANCH  13  14
BRANCH  13  17
HETATM   17  C7  UNL     1     -14.275  11.186  -4.554  1.00  0.00     0.026 C
HETATM   18  C8  UNL     1     -14.276  12.447  -5.426  1.00  0.00     0.016 C
HETATM   19  C9  UNL     1     -15.609  10.518  -4.888  1.00  0.00     0.016 C
ENDBRANCH  13  17
ENDBRANCH  12  13
BRANCH  12  20
HETATM   20  C10 UNL     1     -13.251   8.027  -5.724  1.00  0.00     0.029 C
HETATM   21  C11 UNL     1     -13.169   8.861  -7.013  1.00  0.00     0.038 C
HETATM   22  C12 UNL     1     -12.101   7.051  -5.751  1.00  0.00     0.038 C
HETATM   23  C13 UNL     1     -14.514   7.275  -5.809  1.00  0.00     0.038 C
ENDBRANCH  12  20
ENDBRANCH   5  12
BRANCH   6  24
HETATM   24  C15 UNL     1     -13.826   6.348  -0.975  1.00  0.00     0.044 C
HETATM   25  C16 UNL     1     -14.282   7.177   0.282  1.00  0.00     0.017 C
BRANCH  24  26
HETATM   26  C17 UNL     1     -13.955   4.937  -0.418  1.00  0.00     0.124 C
HETATM   27 CL1  UNL     1     -14.229   5.053   1.365  1.00  0.00    -0.130 Cl
ENDBRANCH  24  26
ENDBRANCH   6  24
TORSDOF 9
ENDMDL