MODEL 2
REMARK VINA RESULT: -7.935126869      0.078      1.452
REMARK  5 active torsions:
REMARK  status: ('A' for Active; 'I' for Inactive)
REMARK    1  A    between atoms: C1_2  and  O2_3
REMARK    2  A    between atoms: C1_2  and  C12_18
REMARK    3  A    between atoms: O2_3  and  C2_4
REMARK    4  A    between atoms: C2_4  and  C3_5
REMARK    5  A    between atoms: C3_5  and  N1_6
ROOT
HETATM    1  C2  UNL     1     -13.722   7.241  -2.352  1.00  0.00     0.200 C
ENDROOT
BRANCH   1   2
HETATM    2  O2  UNL     1     -13.122   8.510  -2.473  1.00  0.00    -0.319 OA
BRANCH   2   3
HETATM    3  C1  UNL     1     -12.107   8.862  -3.330  1.00  0.00     0.267 C
HETATM    4  O1  UNL     1     -12.390   9.405  -4.427  1.00  0.00    -0.264 OA
BRANCH   3   5
HETATM    5  C12 UNL     1     -10.673   8.619  -2.996  1.00  0.00     0.049 C
HETATM    6  C13 UNL     1     -10.397   7.165  -3.279  1.00  0.00     0.024 C
HETATM    7  C14 UNL     1      -8.963   6.795  -2.891  1.00  0.00    -0.013 C
HETATM    8  C15 UNL     1      -8.841   7.092  -1.411  1.00  0.00     0.009 C
HETATM    9  C19 UNL     1      -8.062   7.627  -3.746  1.00  0.00     0.009 C
HETATM   10  C16 UNL     1      -9.018   8.561  -1.168  1.00  0.00    -0.013 C
HETATM   11  C17 UNL     1      -8.112   9.425  -2.020  1.00  0.00     0.009 C
HETATM   12  C21 UNL     1     -10.457   8.899  -1.534  1.00  0.00     0.024 C
HETATM   13  C18 UNL     1      -8.342   9.089  -3.462  1.00  0.00    -0.013 C
HETATM   14  C20 UNL     1      -9.757   9.478  -3.830  1.00  0.00     0.024 C
ENDBRANCH   3   5
ENDBRANCH   2   3
ENDBRANCH   1   2
BRANCH   1  15
HETATM   15  C3  UNL     1     -14.293   7.035  -0.982  1.00  0.00     0.169 C
BRANCH  15  16
HETATM   16  N1  UNL     1     -13.725   5.836  -0.401  1.00  0.00    -0.325 N
HETATM   17  C4  UNL     1     -12.316   5.962  -0.167  1.00  0.00     0.147 C
HETATM   18  C5  UNL     1     -11.858   5.917   1.242  1.00  0.00     0.062 C
HETATM   19  C6  UNL     1     -12.499   4.755   1.907  1.00  0.00    -0.027 A
HETATM   20  C7  UNL     1     -11.852   3.983   2.846  1.00  0.00     0.033 A
HETATM   21  C11 UNL     1     -13.816   4.421   1.580  1.00  0.00     0.054 A
HETATM   22  C8  UNL     1     -12.515   2.911   3.433  1.00  0.00     0.034 A
HETATM   23 CL1  UNL     1     -11.688   1.921   4.631  1.00  0.00    -0.084 Cl
HETATM   24  C9  UNL     1     -13.824   2.585   3.102  1.00  0.00     0.026 A
HETATM   25  C10 UNL     1     -14.465   3.357   2.166  1.00  0.00     0.033 A
HETATM   26  N2  UNL     1     -14.448   5.244   0.593  1.00  0.00    -0.302 N
ATOM     27  H2  UNL     1     -15.457   5.390   0.633  1.00  0.00     0.186 HD
ENDBRANCH  15  16
ENDBRANCH   1  15
TORSDOF 5
ENDMDL