MODEL 3
REMARK VINA RESULT: -7.308713306      6.732      9.016
REMARK  4 active torsions:
REMARK  status: ('A' for Active; 'I' for Inactive)
REMARK    1  A    between atoms: O1_2  and  C2_3
REMARK    2  A    between atoms: C4_5  and  C5_6
REMARK    3  A    between atoms: C9_10  and  C10_11
REMARK    4  A    between atoms: C15_17  and  N1_18
REMARK       I    between atoms: C16_20  and  N3_22
ROOT
HETATM    1  C2  UNL     1      -7.137   7.890   1.962  1.00  0.00     0.095 A
HETATM    2  C3  UNL     1      -7.962   7.682   0.841  1.00  0.00     0.048 A
HETATM    3  C4  UNL     1      -7.726   8.276  -0.359  1.00  0.00    -0.029 A
HETATM    4  C13 UNL     1      -6.609   9.120  -0.440  1.00  0.00     0.043 A
HETATM    5 CL1  UNL     1      -6.192   9.921  -1.984  1.00  0.00    -0.084 Cl
HETATM    6  C14 UNL     1      -5.818   9.306   0.653  1.00  0.00     0.056 A
HETATM    7  C15 UNL     1      -6.028   8.710   1.903  1.00  0.00     0.069 A
ENDROOT
BRANCH   7   8
HETATM    8  N1  UNL     1      -5.155   8.910   2.994  1.00  0.00    -0.328 N
HETATM    9  C16 UNL     1      -5.318   9.821   3.875  1.00  0.00     0.191 C
HETATM   10  N2  UNL     1      -6.383  10.763   3.880  1.00  0.00    -0.063 NA
HETATM   11  N3  UNL     1      -4.404   9.911   4.989  1.00  0.00    -0.351 N
HETATM   12  C17 UNL     1      -3.261   9.010   5.120  1.00  0.00     0.151 C
HETATM   13  C20 UNL     1      -4.617  10.897   5.987  1.00  0.00     0.151 C
HETATM   14  C18 UNL     1      -2.706   9.211   6.522  1.00  0.00     0.187 C
HETATM   15  O2  UNL     1      -3.694   9.239   7.498  1.00  0.00    -0.388 OA
HETATM   16  C19 UNL     1      -4.599  10.252   7.352  1.00  0.00     0.187 C
ATOM     17  H1  UNL     1      -4.349   8.292   3.084  1.00  0.00     0.168 HD
ENDBRANCH   7   8
BRANCH   1  18
HETATM   18  O1  UNL     1      -7.438   7.254   3.162  1.00  0.00    -0.354 OA
HETATM   19  C1  UNL     1      -8.438   7.511   4.069  1.00  0.00     0.210 C
ENDBRANCH   1  18
BRANCH   3  20
HETATM   20  C5  UNL     1      -8.616   8.147  -1.496  1.00  0.00     0.025 C
HETATM   21  C6  UNL     1      -8.623   6.735  -2.108  1.00  0.00     0.010 C
HETATM   22  C7  UNL     1      -9.937   6.833  -2.912  1.00  0.00     0.001 C
HETATM   23  C8  UNL     1     -10.854   7.205  -1.792  1.00  0.00     0.005 C
HETATM   24  C9  UNL     1     -10.089   8.269  -1.027  1.00  0.00    -0.002 C
BRANCH  24  25
HETATM   25  C10 UNL     1     -10.612   9.647  -1.240  1.00  0.00    -0.010 A
HETATM   26  C11 UNL     1     -11.320   9.934  -2.521  1.00  0.00     0.005 A
HETATM   27  C12 UNL     1     -10.004  10.611  -2.151  1.00  0.00     0.005 A
ENDBRANCH  24  25
ENDBRANCH   3  20
TORSDOF 4
ENDMDL