MODEL 2
REMARK VINA RESULT: -7.811539961      1.132      1.210
REMARK  4 active torsions:
REMARK  status: ('A' for Active; 'I' for Inactive)
REMARK    1  A    between atoms: C8_8  and  N1_9
REMARK       I    between atoms: N1_9  and  C10_11
REMARK    2  A    between atoms: C10_11  and  C11_13
REMARK    3  A    between atoms: N2_15  and  C13_16
REMARK    4  A    between atoms: C15_18  and  C16_19
ROOT
HETATM    1  C11 UNL     1     -10.972   7.724  -1.026  1.00  0.00     0.131 C
HETATM    2  C12 UNL     1     -12.226   6.979  -0.542  1.00  0.00     0.141 C
HETATM    3  N2  UNL     1     -11.851   6.256   0.638  1.00  0.00    -0.363 N
HETATM    4  C19 UNL     1     -10.538   6.714   1.043  1.00  0.00     0.162 C
HETATM    5  C20 UNL     1      -9.903   6.900  -0.346  1.00  0.00     0.202 C
HETATM    6  F1  UNL     1      -8.704   7.546  -0.233  1.00  0.00    -0.247 F
ENDROOT
BRANCH   1   7
HETATM    7  C10 UNL     1     -10.941   7.652  -2.478  1.00  0.00     0.228 C
HETATM    8  N1  UNL     1     -11.515   8.552  -3.406  1.00  0.00    -0.351 N
HETATM    9  C9  UNL     1     -12.262   9.675  -2.884  1.00  0.00     0.153 C
HETATM   10  O1  UNL     1     -10.323   6.664  -3.015  1.00  0.00    -0.273 OA
BRANCH   8  11
HETATM   11  C8  UNL     1     -11.407   8.400  -4.840  1.00  0.00     0.090 C
HETATM   12  C7  UNL     1     -12.552   7.570  -5.394  1.00  0.00     0.026 C
HETATM   13  C6  UNL     1     -12.019   6.617  -6.424  1.00  0.00     0.002 C
HETATM   14  C5  UNL     1     -13.001   6.600  -7.574  1.00  0.00     0.000 C
HETATM   15  C4  UNL     1     -13.293   7.983  -8.093  1.00  0.00     0.004 C
HETATM   16  C3  UNL     1     -12.098   8.886  -8.056  1.00  0.00     0.033 C
HETATM   17  C2  UNL     1     -12.017   9.741  -6.866  1.00  0.00    -0.087 C
HETATM   18  C1  UNL     1     -12.775  10.819  -6.963  1.00  0.00     0.014 C
HETATM   19  C21 UNL     1     -11.303   9.720  -5.564  1.00  0.00     0.058 C
ENDBRANCH   8  11
ENDBRANCH   1   7
BRANCH   3  20
HETATM   20  C13 UNL     1     -12.627   5.272   1.286  1.00  0.00     0.119 A
HETATM   21  C14 UNL     1     -12.130   4.235   2.053  1.00  0.00     0.076 A
HETATM   22  C15 UNL     1     -13.184   3.485   2.520  1.00  0.00     0.033 A
HETATM   23  N3  UNL     1     -14.291   4.070   2.034  1.00  0.00    -0.303 N
HETATM   24  N4  UNL     1     -13.966   5.123   1.308  1.00  0.00    -0.285 N
ATOM     25  H3  UNL     1     -15.244   3.748   2.203  1.00  0.00     0.186 HD
ATOM     26  H4  UNL     1     -14.631   5.734   0.833  1.00  0.00     0.188 HD
BRANCH  22  27
HETATM   27  C16 UNL     1     -13.106   2.261   3.392  1.00  0.00     0.029 C
HETATM   28  C17 UNL     1     -14.401   2.193   4.162  1.00  0.00     0.016 C
HETATM   29  C18 UNL     1     -12.001   2.551   4.413  1.00  0.00     0.016 C
ENDBRANCH  22  27
ENDBRANCH   3  20
TORSDOF 4
ENDMDL