MODEL 4
REMARK VINA RESULT: -4.010970645      1.263      1.709
REMARK  4 active torsions:
REMARK  status: ('A' for Active; 'I' for Inactive)
REMARK    1  A    between atoms: C2_2  and  C4_4
REMARK    2  A    between atoms: C4_4  and  S1_5
REMARK    3  A    between atoms: S1_5  and  C5_6
REMARK    4  A    between atoms: C7_8  and  N1_9
ROOT
HETATM    1  C5  UNL     1      -0.998  25.557  -9.686  1.00  0.00     0.079 A
HETATM    2  C6  UNL     1       0.236  26.227  -9.237  1.00  0.00     0.051 A
HETATM    3  C7  UNL     1       0.287  25.142 -10.307  1.00  0.00     0.198 A
ENDROOT
BRANCH   1   4
HETATM    4  S1  UNL     1      -2.182  26.358 -10.775  1.00  0.00    -0.162 SA
BRANCH   4   5
HETATM    5  C4  UNL     1      -2.539  28.066 -10.307  1.00  0.00     0.078 C
BRANCH   5   6
HETATM    6  C2  UNL     1      -3.707  28.528 -11.151  1.00  0.00    -0.013 C
HETATM    7  C1  UNL     1      -4.969  27.944 -10.568  1.00  0.00     0.010 C
HETATM    8  C3  UNL     1      -3.766  30.022 -11.302  1.00  0.00     0.010 C
ENDBRANCH   5   6
ENDBRANCH   4   5
ENDBRANCH   1   4
BRANCH   3   9
HETATM    9  N1  UNL     1       0.976  23.947  -9.896  1.00  0.00    -0.074 N
ATOM     10  H13 UNL     1       0.613  23.171 -10.449  1.00  0.00     0.274 HD
ATOM     11  H12 UNL     1       1.938  24.011 -10.227  1.00  0.00     0.274 HD
ATOM     12  H11 UNL     1       1.001  23.650  -8.920  1.00  0.00     0.274 HD
ENDBRANCH   3   9
TORSDOF 4
ENDMDL