MODEL 2
REMARK VINA RESULT: -4.478195411      2.341      5.012
REMARK  3 active torsions:
REMARK  status: ('A' for Active; 'I' for Inactive)
REMARK    1  A    between atoms: C2_2  and  C3_3
REMARK    2  A    between atoms: C3_3  and  N1_4
REMARK    3  A    between atoms: N1_4  and  C4_7
ROOT
HETATM    1  N1  UNL     1      -2.086  25.825  -9.162  1.00  0.00    -0.059 N
ATOM      2  H11 UNL     1      -2.976  25.377  -9.381  1.00  0.00     0.278 HD
ATOM      3  H12 UNL     1      -2.256  25.970  -8.167  1.00  0.00     0.278 HD
ENDROOT
BRANCH   1   4
HETATM    4  C3  UNL     1      -1.874  27.059  -9.890  1.00  0.00     0.260 C
BRANCH   4   5
HETATM    5  C2  UNL     1      -3.112  27.586 -10.520  1.00  0.00    -0.010 C
HETATM    6  C1  UNL     1      -3.234  28.861 -10.855  1.00  0.00     0.008 C
ENDBRANCH   4   5
ENDBRANCH   1   4
BRANCH   1   7
HETATM    7  C4  UNL     1      -0.941  24.978  -9.428  1.00  0.00     0.247 C
HETATM    8  C5  UNL     1       0.313  25.823  -9.503  1.00  0.00     0.044 C
HETATM    9  C6  UNL     1       1.335  24.948 -10.225  1.00  0.00     0.013 C
HETATM   10  C7  UNL     1       0.740  24.760 -11.626  1.00  0.00     0.076 C
HETATM   11  S1  UNL     1      -0.991  24.359 -11.157  1.00  0.00    -0.136 SA
ENDBRANCH   1   7
TORSDOF 3
ENDMDL