MODEL 1
REMARK VINA RESULT: -4.625272586      0.000      0.000
REMARK  3 active torsions:
REMARK  status: ('A' for Active; 'I' for Inactive)
REMARK    1  A    between atoms: C2_2  and  C3_3
REMARK    2  A    between atoms: C3_3  and  N1_4
REMARK    3  A    between atoms: N1_4  and  N3_8
ROOT
HETATM    1  N1  UNL     1      -2.505  26.546 -10.956  1.00  0.00    -0.239 N
HETATM    2  N2  UNL     1      -3.405  26.157 -11.764  1.00  0.00    -0.329 N
ATOM      3  H21 UNL     1      -3.294  25.243 -12.202  1.00  0.00     0.178 HD
ATOM      4  H22 UNL     1      -4.228  26.714 -11.993  1.00  0.00     0.178 HD
ENDROOT
BRANCH   1   5
HETATM    5  C3  UNL     1      -2.663  27.842 -10.334  1.00  0.00     0.195 C
BRANCH   5   6
HETATM    6  C2  UNL     1      -3.894  28.525 -10.808  1.00  0.00    -0.014 C
HETATM    7  C1  UNL     1      -3.822  29.758 -11.273  1.00  0.00     0.008 C
ENDBRANCH   5   6
ENDBRANCH   1   5
BRANCH   1   8
HETATM    8  N3  UNL     1      -1.383  25.785 -10.644  1.00  0.00    -0.298 N
HETATM    9  C4  UNL     1      -0.371  24.829 -10.976  1.00  0.00     0.177 A
HETATM   10  C5  UNL     1      -0.408  25.447  -9.628  1.00  0.00     0.060 A
HETATM   11  C6  UNL     1       0.691  26.390  -9.282  1.00  0.00     0.041 C
HETATM   12  C7  UNL     1      -0.984  24.682  -8.455  1.00  0.00     0.041 C
ENDBRANCH   1   8
TORSDOF 3
ENDMDL