MODEL 2
REMARK VINA RESULT: -4.701207689      1.153      1.153
REMARK  3 active torsions:
REMARK  status: ('A' for Active; 'I' for Inactive)
REMARK    1  A    between atoms: O1_2  and  N1_3
REMARK    2  A    between atoms: C2_5  and  N2_6
REMARK    3  A    between atoms: N2_6  and  C3_8
ROOT
HETATM    1  N2  UNL     1      -2.537  26.191 -10.638  1.00  0.00    -0.380 N
ATOM      2  H2  UNL     1      -2.474  25.354 -11.218  1.00  0.00     0.160 HD
ENDROOT
BRANCH   1   3
HETATM    3  C2  UNL     1      -1.729  26.336  -9.481  1.00  0.00     0.200 C
HETATM    4  N1  UNL     1      -1.059  25.324  -9.069  1.00  0.00    -0.263 N
ATOM      5  H1  UNL     1      -0.483  25.441  -8.236  1.00  0.00     0.195 HD
BRANCH   4   6
HETATM    6  O1  UNL     1      -1.066  24.104  -9.670  1.00  0.00    -0.284 OA
HETATM    7  C1  UNL     1       0.119  23.442 -10.029  1.00  0.00     0.237 C
ENDBRANCH   4   6
ENDBRANCH   1   3
BRANCH   1   8
HETATM    8  C3  UNL     1      -3.441  27.246 -10.973  1.00  0.00     0.082 C
HETATM    9  C4  UNL     1      -3.597  27.396 -12.484  1.00  0.00     0.025 C
HETATM   10  C5  UNL     1      -4.326  28.715 -12.572  1.00  0.00     0.002 C
HETATM   11  C6  UNL     1      -3.975  29.488 -11.316  1.00  0.00     0.002 C
HETATM   12  C7  UNL     1      -2.938  28.620 -10.610  1.00  0.00     0.025 C
ENDBRANCH   1   8
TORSDOF 3
ENDMDL