MODEL 5
REMARK VINA RESULT: -4.044742281      2.848      5.173
REMARK  3 active torsions:
REMARK  status: ('A' for Active; 'I' for Inactive)
REMARK    1  A    between atoms: C3_3  and  C4_4
REMARK    2  A    between atoms: C4_4  and  N1_5
REMARK    3  A    between atoms: N1_5  and  C5_7
ROOT
HETATM    1  C4  UNL     1      -3.660  27.573 -10.547  1.00  0.00     0.129 C
ENDROOT
BRANCH   1   2
HETATM    2  C3  UNL     1      -3.867  28.560 -11.684  1.00  0.00     0.065 C
HETATM    3  C2  UNL     1      -3.935  30.004 -11.306  1.00  0.00     0.027 C
HETATM    4  C1  UNL     1      -4.839  30.235 -12.497  1.00  0.00     0.075 C
HETATM    5  S1  UNL     1      -5.665  28.675 -12.107  1.00  0.00    -0.163 SA
ENDBRANCH   1   2
BRANCH   1   6
HETATM    6  N1  UNL     1      -2.312  27.595 -10.113  1.00  0.00    -0.416 N
ATOM      7  H1  UNL     1      -1.722  28.420 -10.222  1.00  0.00     0.153 HD
BRANCH   6   8
HETATM    8  C5  UNL     1      -1.832  26.403  -9.520  1.00  0.00     0.076 A
HETATM    9  C6  UNL     1      -0.330  26.152  -9.356  1.00  0.00     0.027 A
HETATM   10  C7  UNL     1      -1.135  25.352 -10.305  1.00  0.00     0.027 A
ENDBRANCH   6   8
ENDBRANCH   1   6
TORSDOF 3
ENDMDL