MODEL 5
REMARK VINA RESULT: -4.213974086      1.257      1.329
REMARK  3 active torsions:
REMARK  status: ('A' for Active; 'I' for Inactive)
REMARK    1  A    between atoms: N1_2  and  C2_5
REMARK    2  A    between atoms: C2_5  and  C3_6
REMARK    3  A    between atoms: C6_9  and  O1_10
ROOT
HETATM    1  C3  UNL     1      -4.491  29.320 -11.323  1.00  0.00     0.014 C
HETATM    2  C4  UNL     1      -5.790  28.634 -11.620  1.00  0.00     0.009 C
HETATM    3  C5  UNL     1      -6.074  29.056 -13.058  1.00  0.00     0.032 C
HETATM    4  C6  UNL     1      -5.696  30.538 -12.957  1.00  0.00     0.121 C
HETATM    5  C8  UNL     1      -4.327  30.431 -12.334  1.00  0.00     0.038 C
ENDROOT
BRANCH   1   6
HETATM    6  C2  UNL     1      -3.387  28.272 -11.462  1.00  0.00     0.236 C
BRANCH   6   7
HETATM    7  N1  UNL     1      -2.548  28.266 -10.271  1.00  0.00    -0.079 N
HETATM    8  C1  UNL     1      -2.205  26.895  -9.980  1.00  0.00     0.267 C
ATOM      9  H12 UNL     1      -2.982  28.742  -9.480  1.00  0.00     0.276 HD
ATOM     10  H11 UNL     1      -1.730  28.869 -10.360  1.00  0.00     0.276 HD
ENDBRANCH   6   7
ENDBRANCH   1   6
BRANCH   4  11
HETATM   11  O1  UNL     1      -5.708  31.168 -14.170  1.00  0.00    -0.391 OA
HETATM   12  C7  UNL     1      -5.064  30.327 -15.088  1.00  0.00     0.202 C
ENDBRANCH   4  11
TORSDOF 3
ENDMDL