MODEL 1
REMARK VINA RESULT: -3.692074665      0.000      0.000
REMARK  3 active torsions:
REMARK  status: ('A' for Active; 'I' for Inactive)
REMARK    1  A    between atoms: N1_2  and  C2_5
REMARK    2  A    between atoms: C5_8  and  C6_9
REMARK    3  A    between atoms: C6_9  and  S1_10
ROOT
HETATM    1  C2  UNL     1      -4.064  28.403 -12.650  1.00  0.00     0.190 C
HETATM    2  C3  UNL     1      -4.370  29.883 -12.651  1.00  0.00     0.034 C
HETATM    3  C4  UNL     1      -4.387  29.784 -11.116  1.00  0.00     0.009 C
HETATM    4  C5  UNL     1      -3.466  28.599 -11.303  1.00  0.00     0.025 C
ENDROOT
BRANCH   1   5
HETATM    5  N1  UNL     1      -5.221  27.601 -12.782  1.00  0.00    -0.074 N
HETATM    6  C1  UNL     1      -4.900  26.436 -13.580  1.00  0.00     0.267 C
ATOM      7  H12 UNL     1      -6.014  28.122 -13.157  1.00  0.00     0.277 HD
ATOM      8  H11 UNL     1      -5.627  27.353 -11.880  1.00  0.00     0.277 HD
ENDBRANCH   1   5
BRANCH   4   9
HETATM    9  C6  UNL     1      -3.608  27.583 -10.258  1.00  0.00     0.080 C
BRANCH   9  10
HETATM   10  S1  UNL     1      -1.978  26.868  -9.893  1.00  0.00    -0.173 SA
HETATM   11  C7  UNL     1      -1.522  25.537 -10.993  1.00  0.00     0.089 C
ENDBRANCH   9  10
ENDBRANCH   4   9
TORSDOF 3
ENDMDL