MODEL 5
REMARK VINA RESULT: -5.131304068      1.365      5.696
REMARK  3 active torsions:
REMARK  status: ('A' for Active; 'I' for Inactive)
REMARK    1  A    between atoms: C2_2  and  C3_3
REMARK    2  A    between atoms: N1_4  and  N2_6
REMARK    3  A    between atoms: N2_6  and  C4_8
ROOT
HETATM    1  N2  UNL     1      -2.131  26.168  -9.329  1.00  0.00    -0.332 N
ATOM      2  H2  UNL     1      -2.230  26.053  -8.320  1.00  0.00     0.180 HD
ENDROOT
BRANCH   1   3
HETATM    3  N1  UNL     1      -3.095  26.837 -10.044  1.00  0.00    -0.316 N
HETATM    4  C3  UNL     1      -2.887  28.017 -10.510  1.00  0.00     0.106 C
ATOM      5  H1  UNL     1      -3.995  26.387 -10.209  1.00  0.00     0.185 HD
BRANCH   4   6
HETATM    6  C2  UNL     1      -3.923  28.731 -11.277  1.00  0.00     0.008 C
HETATM    7  C1  UNL     1      -3.959  30.034 -11.313  1.00  0.00     0.013 C
ENDBRANCH   4   6
ENDBRANCH   1   3
BRANCH   1   8
HETATM    8  C4  UNL     1      -0.978  25.628 -10.010  1.00  0.00     0.099 C
HETATM    9  C5  UNL     1      -0.870  24.123  -9.817  1.00  0.00     0.026 C
HETATM   10  C6  UNL     1       0.559  23.879 -10.318  1.00  0.00     0.002 C
HETATM   11  C7  UNL     1       1.316  25.146 -10.035  1.00  0.00     0.002 C
HETATM   12  C8  UNL     1       0.328  26.072  -9.340  1.00  0.00     0.026 C
ENDBRANCH   1   8
TORSDOF 3
ENDMDL