MODEL 5
REMARK VINA RESULT: -4.716647260      1.627      2.165
REMARK  4 active torsions:
REMARK  status: ('A' for Active; 'I' for Inactive)
REMARK    1  A    between atoms: C2_2  and  C4_5
REMARK    2  A    between atoms: C4_5  and  N2_6
REMARK    3  A    between atoms: C4_5  and  C5_10
REMARK    4  A    between atoms: C5_10  and  C6_11
ROOT
HETATM    1  C1  UNL     1       0.267  24.694 -11.350  1.00  0.00     0.027 C
HETATM    2  C2  UNL     1       0.271  24.014 -10.012  1.00  0.00     0.119 C
HETATM    3  C3  UNL     1      -0.117  22.627 -10.079  1.00  0.00     0.065 C
HETATM    4  N1  UNL     1      -0.431  21.520 -10.116  1.00  0.00    -0.197 NA
ENDROOT
BRANCH   2   5
HETATM    5  C4  UNL     1      -0.548  24.800  -9.011  1.00  0.00     0.201 C
BRANCH   5   6
HETATM    6  N2  UNL     1       0.102  24.806  -7.724  1.00  0.00    -0.074 N
ATOM      7  H23 UNL     1      -0.499  24.427  -6.992  1.00  0.00     0.274 HD
ATOM      8  H22 UNL     1       0.854  24.118  -7.675  1.00  0.00     0.274 HD
ATOM      9  H21 UNL     1       0.431  25.744  -7.496  1.00  0.00     0.274 HD
ENDBRANCH   5   6
BRANCH   5  10
HETATM   10  C5  UNL     1      -0.733  26.220  -9.479  1.00  0.00     0.038 C
BRANCH  10  11
HETATM   11  C6  UNL     1      -2.153  26.612  -9.667  1.00  0.00    -0.013 A
HETATM   12  C7  UNL     1      -2.812  26.752 -10.961  1.00  0.00     0.005 A
HETATM   13  C8  UNL     1      -2.375  28.005 -10.228  1.00  0.00     0.005 A
ENDBRANCH  10  11
ENDBRANCH   5  10
ENDBRANCH   2   5
TORSDOF 4
ENDMDL