MODEL 5
REMARK VINA RESULT: -9.042941967      1.012      1.383
REMARK  5 active torsions:
REMARK  status: ('A' for Active; 'I' for Inactive)
REMARK    1  A    between atoms: C2_2  and  C3_3
REMARK    2  A    between atoms: C3_3  and  C4_4
REMARK    3  A    between atoms: C5_5  and  C6_6
REMARK    4  A    between atoms: C7_7  and  C8_8
REMARK    5  A    between atoms: C14_16  and  C15_17
ROOT
HETATM    1  C6  UNL     1      -3.429 -15.895  26.114  1.00  0.00     0.075 A
HETATM    2  C7  UNL     1      -3.452 -15.481  27.405  1.00  0.00     0.041 A
HETATM    3  S1  UNL     1      -3.108 -16.999  28.240  1.00  0.00    -0.081 SA
HETATM    4  C14 UNL     1      -2.958 -18.024  26.917  1.00  0.00     0.091 A
HETATM    5  C17 UNL     1      -3.174 -17.194  25.858  1.00  0.00     0.157 A
HETATM    6  F2  UNL     1      -3.111 -17.760  24.579  1.00  0.00    -0.203 F
ENDROOT
BRANCH   4   7
HETATM    7  C15 UNL     1      -2.664 -19.454  26.958  1.00  0.00     0.148 A
HETATM    8  N1  UNL     1      -3.440 -20.476  26.555  1.00  0.00    -0.309 N
HETATM    9  C16 UNL     1      -2.751 -21.604  26.789  1.00  0.00     0.241 A
ATOM     10  H1  UNL     1      -4.374 -20.407  26.149  1.00  0.00     0.170 HD
HETATM   11  S2  UNL     1      -3.225 -23.124  26.486  1.00  0.00    -0.031 SA
HETATM   12  O1  UNL     1      -1.578 -21.299  27.322  1.00  0.00    -0.206 OA
HETATM   13  N2  UNL     1      -1.536 -20.028  27.418  1.00  0.00    -0.240 N
ATOM     14  H2  UNL     1      -0.743 -19.509  27.796  1.00  0.00     0.196 HD
ENDBRANCH   4   7
BRANCH   2  15
HETATM   15  C8  UNL     1      -3.746 -14.242  28.104  1.00  0.00     0.021 A
HETATM   16  C9  UNL     1      -5.105 -13.871  28.143  1.00  0.00     0.016 A
HETATM   17  C10 UNL     1      -5.555 -12.768  28.828  1.00  0.00     0.001 A
HETATM   18  C11 UNL     1      -4.658 -11.981  29.512  1.00  0.00     0.003 A
HETATM   19  C12 UNL     1      -3.336 -12.314  29.496  1.00  0.00     0.043 A
HETATM   20  C13 UNL     1      -2.910 -13.440  28.792  1.00  0.00     0.128 A
HETATM   21  F1  UNL     1      -1.601 -13.739  28.916  1.00  0.00    -0.205 F
ENDBRANCH   2  15
BRANCH   1  22
HETATM   22  C5  UNL     1      -3.783 -14.994  24.987  1.00  0.00    -0.062 C
HETATM   23  C4  UNL     1      -4.111 -14.227  24.079  1.00  0.00    -0.101 C
BRANCH  23  24
HETATM   24  C3  UNL     1      -4.477 -13.309  23.010  1.00  0.00     0.094 C
BRANCH  24  25
HETATM   25  C2  UNL     1      -3.687 -13.738  21.787  1.00  0.00     0.007 C
HETATM   26  C1  UNL     1      -3.868 -15.225  21.626  1.00  0.00     0.006 C
ENDBRANCH  24  25
ENDBRANCH  23  24
ENDBRANCH   1  22
TORSDOF 5
ENDMDL