MODEL 2
REMARK VINA RESULT: -9.186457010      1.707      1.979
REMARK  4 active torsions:
REMARK  status: ('A' for Active; 'I' for Inactive)
REMARK    1  A    between atoms: C4_5  and  C5_6
REMARK    2  A    between atoms: C8_9  and  C9_10
REMARK    3  A    between atoms: C9_10  and  C10_15
REMARK    4  A    between atoms: N2_11  and  O1_13
ROOT
HETATM    1  C1  UNL     1      -1.191 -21.288  26.305  1.00  0.00     0.060 C
HETATM    2  C2  UNL     1      -1.481 -19.822  26.394  1.00  0.00     0.019 C
HETATM    3  C3  UNL     1      -0.495 -18.936  26.944  1.00  0.00     0.094 C
HETATM    4  N1  UNL     1       0.328 -18.228  27.378  1.00  0.00    -0.192 NA
HETATM    5  C4  UNL     1      -2.610 -19.328  25.952  1.00  0.00     0.029 C
ENDROOT
BRANCH   5   6
HETATM    6  C5  UNL     1      -3.023 -17.939  25.976  1.00  0.00    -0.032 A
HETATM    7  C6  UNL     1      -3.314 -17.338  27.182  1.00  0.00     0.012 A
HETATM    8  C7  UNL     1      -3.695 -15.988  27.200  1.00  0.00     0.018 A
HETATM    9  C8  UNL     1      -3.799 -15.215  26.090  1.00  0.00     0.032 A
HETATM   10  C14 UNL     1      -3.498 -15.850  24.886  1.00  0.00     0.129 A
HETATM   11  F1  UNL     1      -3.573 -15.161  23.724  1.00  0.00    -0.205 F
HETATM   12  C15 UNL     1      -3.119 -17.186  24.842  1.00  0.00     0.054 A
BRANCH   9  13
HETATM   13  C9  UNL     1      -4.206 -13.815  26.061  1.00  0.00     0.084 C
HETATM   14  N2  UNL     1      -4.564 -13.385  24.885  1.00  0.00    -0.267 N
ATOM     15  H2  UNL     1      -4.513 -14.085  24.145  1.00  0.00     0.194 HD
BRANCH  14  16
HETATM   16  O1  UNL     1      -4.978 -12.215  24.494  1.00  0.00    -0.289 OA
ATOM     17  H1  UNL     1      -4.501 -11.414  24.313  1.00  0.00     0.244 HD
ENDBRANCH  14  16
BRANCH  13  18
HETATM   18  C10 UNL     1      -4.234 -12.939  27.225  1.00  0.00     0.035 A
HETATM   19  C11 UNL     1      -3.228 -12.675  28.112  1.00  0.00     0.023 A
HETATM   20  C12 UNL     1      -3.503 -11.846  29.128  1.00  0.00     0.028 A
HETATM   21  C13 UNL     1      -4.759 -11.322  29.215  1.00  0.00     0.052 A
HETATM   22 BR1  UNL     1      -5.449 -10.118  30.546  1.00  0.00    -0.043 Br
HETATM   23  S1  UNL     1      -5.513 -12.013  27.860  1.00  0.00    -0.081 SA
ENDBRANCH  13  18
ENDBRANCH   9  13
ENDBRANCH   5   6
TORSDOF 4
ENDMDL