MODEL 4
REMARK VINA RESULT: -7.973200299      2.368      3.559
REMARK  6 active torsions:
REMARK  status: ('A' for Active; 'I' for Inactive)
REMARK    1  A    between atoms: C2_2  and  O1_5
REMARK    2  A    between atoms: O1_5  and  C5_6
REMARK    3  A    between atoms: C5_6  and  C6_8
REMARK    4  A    between atoms: C9_12  and  N1_13
REMARK       I    between atoms: N1_13  and  C10_15
REMARK    5  A    between atoms: C10_15  and  C11_17
REMARK    6  A    between atoms: C16_22  and  C17_23
ROOT
HETATM    1  N1  UNL     1      -3.961 -17.957  27.919  1.00  0.00    -0.321 N
ATOM      2  H1  UNL     1      -4.873 -17.862  27.474  1.00  0.00     0.169 HD
HETATM    3  C10 UNL     1      -2.897 -17.307  27.284  1.00  0.00     0.257 C
HETATM    4  O3  UNL     1      -1.731 -17.321  27.684  1.00  0.00    -0.267 OA
ENDROOT
BRANCH   1   5
HETATM    5  C9  UNL     1      -3.923 -18.746  29.129  1.00  0.00     0.058 A
HETATM    6  C6  UNL     1      -4.325 -20.051  29.129  1.00  0.00     0.106 A
HETATM    7  S1  UNL     1      -4.132 -20.507  30.780  1.00  0.00    -0.094 SA
HETATM    8  C7  UNL     1      -3.553 -19.049  31.408  1.00  0.00     0.053 A
HETATM    9  C8  UNL     1      -3.524 -18.230  30.308  1.00  0.00     0.038 A
BRANCH   6  10
HETATM   10  C5  UNL     1      -4.795 -20.932  28.045  1.00  0.00     0.303 C
HETATM   11  O2  UNL     1      -4.522 -20.805  26.861  1.00  0.00    -0.259 OA
BRANCH  10  12
HETATM   12  O1  UNL     1      -5.621 -22.012  28.360  1.00  0.00    -0.307 OA
BRANCH  12  13
HETATM   13  C2  UNL     1      -7.038 -21.867  28.377  1.00  0.00     0.060 C
HETATM   14  C1  UNL     1      -7.494 -20.775  27.456  1.00  0.00     0.046 C
HETATM   15  C3  UNL     1      -7.571 -23.179  27.831  1.00  0.00     0.046 C
HETATM   16  C4  UNL     1      -7.596 -21.657  29.738  1.00  0.00     0.046 C
ENDBRANCH  12  13
ENDBRANCH  10  12
ENDBRANCH   6  10
ENDBRANCH   1   5
BRANCH   3  17
HETATM   17  C11 UNL     1      -3.181 -16.567  26.063  1.00  0.00     0.047 A
HETATM   18  C12 UNL     1      -2.949 -17.271  24.884  1.00  0.00     0.018 A
HETATM   19  C13 UNL     1      -3.232 -16.689  23.691  1.00  0.00     0.001 A
HETATM   20  C14 UNL     1      -3.747 -15.395  23.711  1.00  0.00     0.001 A
HETATM   21  C15 UNL     1      -3.971 -14.711  24.875  1.00  0.00     0.017 A
HETATM   22  C16 UNL     1      -3.684 -15.299  26.110  1.00  0.00     0.063 A
BRANCH  22  23
HETATM   23  C17 UNL     1      -3.908 -14.535  27.325  1.00  0.00     0.418 C
HETATM   24  F1  UNL     1      -5.051 -14.937  28.002  1.00  0.00    -0.166 F
HETATM   25  F2  UNL     1      -4.188 -13.203  26.964  1.00  0.00    -0.166 F
HETATM   26  F3  UNL     1      -2.815 -14.436  28.167  1.00  0.00    -0.166 F
ENDBRANCH  22  23
ENDBRANCH   3  17
TORSDOF 6
ENDMDL