MODEL 2
REMARK VINA RESULT: -8.053172826      1.030      1.185
REMARK  5 active torsions:
REMARK  status: ('A' for Active; 'I' for Inactive)
REMARK    1  A    between atoms: C2_2  and  O1_3
REMARK    2  A    between atoms: O1_3  and  C3_4
REMARK    3  A    between atoms: C3_4  and  C4_6
REMARK    4  A    between atoms: C6_11  and  C7_12
REMARK    5  A    between atoms: C14_23  and  C15_24
ROOT
HETATM    1  C4  UNL     1      -4.261 -13.988  26.278  1.00  0.00     0.091 A
HETATM    2  S1  UNL     1      -4.016 -14.545  24.644  1.00  0.00    -0.063 SA
HETATM    3  C5  UNL     1      -3.421 -16.092  24.963  1.00  0.00     0.104 A
HETATM    4  N1  UNL     1      -2.966 -17.245  24.394  1.00  0.00    -0.334 N
ATOM      5  H1  UNL     1      -2.877 -17.432  23.395  1.00  0.00     0.168 HD
HETATM    6  C6  UNL     1      -2.663 -18.075  25.376  1.00  0.00     0.120 A
HETATM    7  N2  UNL     1      -2.931 -17.434  26.542  1.00  0.00    -0.339 N
ATOM      8  H2  UNL     1      -2.790 -17.842  27.466  1.00  0.00     0.167 HD
HETATM    9  C13 UNL     1      -3.415 -16.170  26.325  1.00  0.00     0.076 A
HETATM   10  C14 UNL     1      -3.853 -15.074  27.018  1.00  0.00     0.002 A
ENDROOT
BRANCH   6  11
HETATM   11  C7  UNL     1      -2.128 -19.453  25.258  1.00  0.00     0.047 A
HETATM   12  C8  UNL     1      -2.723 -20.420  24.486  1.00  0.00     0.021 A
HETATM   13  C9  UNL     1      -2.168 -21.700  24.417  1.00  0.00     0.043 A
HETATM   14  C10 UNL     1      -1.022 -22.002  25.121  1.00  0.00     0.119 A
HETATM   15  F1  UNL     1      -0.466 -23.232  25.072  1.00  0.00    -0.206 F
HETATM   16  C11 UNL     1      -0.417 -21.040  25.899  1.00  0.00     0.085 A
HETATM   17  C12 UNL     1      -0.986 -19.786  25.949  1.00  0.00     0.133 A
HETATM   18  F2  UNL     1      -0.385 -18.848  26.715  1.00  0.00    -0.205 F
ENDBRANCH   6  11
BRANCH  10  19
HETATM   19  C15 UNL     1      -3.919 -15.026  28.536  1.00  0.00    -0.020 C
HETATM   20  C16 UNL     1      -2.866 -14.100  29.115  1.00  0.00     0.019 C
HETATM   21  C17 UNL     1      -5.289 -14.570  29.052  1.00  0.00     0.019 C
HETATM   22  C18 UNL     1      -3.730 -16.393  29.150  1.00  0.00     0.019 C
ENDBRANCH  10  19
BRANCH   1  23
HETATM   23  C3  UNL     1      -4.774 -12.662  26.614  1.00  0.00     0.301 C
HETATM   24  O2  UNL     1      -4.231 -11.679  27.100  1.00  0.00    -0.259 OA
BRANCH  23  25
HETATM   25  O1  UNL     1      -6.162 -12.462  26.328  1.00  0.00    -0.317 OA
BRANCH  25  26
HETATM   26  C2  UNL     1      -6.538 -11.511  25.339  1.00  0.00     0.174 C
HETATM   27  C1  UNL     1      -6.878 -10.172  25.941  1.00  0.00     0.034 C
ENDBRANCH  25  26
ENDBRANCH  23  25
ENDBRANCH   1  23
TORSDOF 5
ENDMDL