MODEL 4
REMARK VINA RESULT: -8.011013133      1.681      2.264
REMARK  5 active torsions:
REMARK  status: ('A' for Active; 'I' for Inactive)
REMARK    1  A    between atoms: C2_2  and  C3_3
REMARK    2  A    between atoms: C3_3  and  C4_4
REMARK    3  A    between atoms: N2_14  and  C11_15
REMARK    4  A    between atoms: C12_17  and  C13_18
REMARK    5  A    between atoms: C18_25  and  O1_26
ROOT
HETATM    1  C11 UNL     1      -3.544 -16.880  28.146  1.00  0.00     0.118 A
HETATM    2  S1  UNL     1      -4.615 -18.063  28.752  1.00  0.00    -0.069 SA
HETATM    3  C12 UNL     1      -3.487 -19.117  29.477  1.00  0.00     0.047 A
HETATM    4  C16 UNL     1      -2.290 -18.510  29.223  1.00  0.00     0.097 A
HETATM    5  C17 UNL     1      -1.060 -19.155  29.713  1.00  0.00     0.103 C
HETATM    6  N3  UNL     1      -0.077 -19.665  30.083  1.00  0.00    -0.191 NA
HETATM    7  C18 UNL     1      -2.313 -17.357  28.537  1.00  0.00     0.122 A
ENDROOT
BRANCH   3   8
HETATM    8  C13 UNL     1      -3.801 -20.375  30.194  1.00  0.00     0.131 C
HETATM    9  C14 UNL     1      -5.244 -20.754  29.933  1.00  0.00     0.057 C
HETATM   10  C15 UNL     1      -3.565 -20.332  31.651  1.00  0.00     0.057 C
HETATM   11  F2  UNL     1      -3.009 -21.380  29.644  1.00  0.00    -0.238 F
ENDBRANCH   3   8
BRANCH   7  12
HETATM   12  O1  UNL     1      -1.152 -16.611  28.198  1.00  0.00    -0.357 OA
ATOM     13  H1  UNL     1      -1.146 -16.118  27.385  1.00  0.00     0.218 HD
ENDBRANCH   7  12
BRANCH   1  14
HETATM   14  N2  UNL     1      -3.831 -15.671  27.404  1.00  0.00    -0.290 N
HETATM   15  C4  UNL     1      -4.202 -14.484  27.884  1.00  0.00     0.089 A
HETATM   16  N1  UNL     1      -4.368 -13.628  26.858  1.00  0.00    -0.344 N
HETATM   17  C5  UNL     1      -4.102 -14.261  25.691  1.00  0.00     0.064 A
ATOM     18  H1  UNL     1      -4.650 -12.651  26.946  1.00  0.00     0.167 HD
HETATM   19  C6  UNL     1      -4.098 -13.930  24.362  1.00  0.00     0.074 A
HETATM   20  C10 UNL     1      -3.766 -15.548  26.063  1.00  0.00     0.068 A
HETATM   21  C7  UNL     1      -3.772 -14.823  23.367  1.00  0.00     0.118 A
HETATM   22  F1  UNL     1      -3.771 -14.477  22.043  1.00  0.00    -0.206 F
HETATM   23  C8  UNL     1      -3.434 -16.114  23.731  1.00  0.00     0.044 A
HETATM   24  C9  UNL     1      -3.437 -16.454  25.070  1.00  0.00     0.035 A
BRANCH  15  25
HETATM   25  C3  UNL     1      -4.410 -14.120  29.300  1.00  0.00     0.076 C
BRANCH  25  26
HETATM   26  C2  UNL     1      -5.107 -12.769  29.426  1.00  0.00     0.003 C
HETATM   27  C1  UNL     1      -4.113 -11.681  29.758  1.00  0.00     0.005 C
ENDBRANCH  25  26
ENDBRANCH  15  25
ENDBRANCH   1  14
TORSDOF 5
ENDMDL