MODEL 5
REMARK VINA RESULT: -9.216779526      2.342      5.969
REMARK  5 active torsions:
REMARK  status: ('A' for Active; 'I' for Inactive)
REMARK    1  A    between atoms: C5_5  and  N1_6
REMARK    2  A    between atoms: N1_6  and  C6_8
REMARK    3  A    between atoms: C7_11  and  C8_12
REMARK    4  A    between atoms: C11_20  and  S1_21
REMARK    5  A    between atoms: S1_21  and  C12_22
ROOT
HETATM    1  C6  UNL     1      -3.360 -16.247  25.941  1.00  0.00     0.127 A
HETATM    2  N2  UNL     1      -3.665 -15.586  24.805  1.00  0.00    -0.326 N
ATOM      3  H2  UNL     1      -4.032 -14.638  24.880  1.00  0.00     0.169 HD
HETATM    4  C7  UNL     1      -3.508 -16.123  23.565  1.00  0.00     0.150 A
HETATM    5  N3  UNL     1      -3.024 -17.372  23.466  1.00  0.00    -0.332 N
ATOM      6  H3  UNL     1      -2.897 -17.797  22.547  1.00  0.00     0.168 HD
HETATM    7  C9  UNL     1      -2.703 -18.075  24.588  1.00  0.00     0.136 A
HETATM    8  C10 UNL     1      -2.206 -19.406  24.402  1.00  0.00     0.119 C
HETATM    9  N4  UNL     1      -1.830 -20.478  24.247  1.00  0.00    -0.190 NA
HETATM   10  C11 UNL     1      -2.858 -17.542  25.844  1.00  0.00     0.083 A
ENDROOT
BRANCH  10  11
HETATM   11  S1  UNL     1      -2.456 -18.443  27.319  1.00  0.00    -0.114 SA
BRANCH  11  12
HETATM   12  C12 UNL     1      -3.810 -19.355  28.029  1.00  0.00     0.002 C
HETATM   13  C13 UNL     1      -4.840 -18.409  28.587  1.00  0.00     0.026 C
HETATM   14  C14 UNL     1      -4.456 -20.326  27.072  1.00  0.00     0.026 C
HETATM   15  C15 UNL     1      -3.288 -20.177  29.201  1.00  0.00     0.026 C
ENDBRANCH  11  12
ENDBRANCH  10  11
BRANCH   4  16
HETATM   16  C8  UNL     1      -3.847 -15.392  22.342  1.00  0.00     0.420 C
HETATM   17  F1  UNL     1      -3.436 -14.077  22.366  1.00  0.00    -0.206 F
HETATM   18  F2  UNL     1      -3.156 -15.985  21.277  1.00  0.00    -0.206 F
ENDBRANCH   4  16
BRANCH   1  19
HETATM   19  N1  UNL     1      -3.538 -15.675  27.083  1.00  0.00    -0.341 N
ATOM     20  H1  UNL     1      -3.174 -16.101  27.935  1.00  0.00     0.167 HD
BRANCH  19  21
HETATM   21  C5  UNL     1      -4.240 -14.461  27.141  1.00  0.00     0.039 A
HETATM   22  C4  UNL     1      -4.318 -13.676  25.999  1.00  0.00     0.030 A
HETATM   23  C3  UNL     1      -4.981 -12.486  25.978  1.00  0.00     0.009 A
HETATM   24  C2  UNL     1      -5.612 -11.996  27.096  1.00  0.00    -0.061 A
HETATM   25  C1  UNL     1      -6.321 -10.696  27.025  1.00  0.00     0.048 C
HETATM   26  C18 UNL     1      -5.550 -12.754  28.241  1.00  0.00     0.015 A
HETATM   27  C16 UNL     1      -4.870 -13.973  28.259  1.00  0.00    -0.035 A
HETATM   28  C17 UNL     1      -4.833 -14.742  29.503  1.00  0.00     0.050 C
ENDBRANCH  19  21
ENDBRANCH   1  19
TORSDOF 5
ENDMDL