MODEL 3
REMARK VINA RESULT: -7.496972901      1.612      2.153
REMARK  5 active torsions:
REMARK  status: ('A' for Active; 'I' for Inactive)
REMARK    1  A    between atoms: O1_2  and  N1_3
REMARK    2  A    between atoms: C2_5  and  C4_7
REMARK    3  A    between atoms: C5_9  and  N2_10
REMARK    4  A    between atoms: N2_10  and  C6_12
REMARK    5  A    between atoms: C12_22  and  C13_23
ROOT
HETATM    1  C4  UNL     1      -4.127 -17.474  28.457  1.00  0.00     0.056 A
HETATM    2  S1  UNL     1      -4.628 -15.796  28.738  1.00  0.00    -0.050 SA
HETATM    3  C5  UNL     1      -3.950 -15.095  27.369  1.00  0.00     0.150 A
HETATM    4  N3  UNL     1      -3.380 -16.118  26.756  1.00  0.00    -0.338 N
ATOM      5  H3  UNL     1      -2.882 -15.975  25.878  1.00  0.00     0.168 HD
HETATM    6  C12 UNL     1      -3.455 -17.329  27.285  1.00  0.00     0.038 A
ENDROOT
BRANCH   3   7
HETATM    7  N2  UNL     1      -3.962 -13.827  26.966  1.00  0.00    -0.333 N
ATOM      8  H2  UNL     1      -3.727 -13.610  25.997  1.00  0.00     0.168 HD
BRANCH   7   9
HETATM    9  C6  UNL     1      -4.288 -12.789  27.832  1.00  0.00     0.095 A
HETATM   10  C7  UNL     1      -3.537 -12.502  28.948  1.00  0.00     0.144 A
HETATM   11  F1  UNL     1      -2.455 -13.253  29.203  1.00  0.00    -0.204 F
HETATM   12  C8  UNL     1      -3.851 -11.473  29.815  1.00  0.00     0.045 A
HETATM   13  C9  UNL     1      -4.949 -10.701  29.569  1.00  0.00     0.005 A
HETATM   14  C10 UNL     1      -5.733 -10.959  28.452  1.00  0.00     0.026 A
HETATM   15  C11 UNL     1      -5.394 -12.008  27.587  1.00  0.00     0.063 A
HETATM   16 CL1  UNL     1      -6.362 -12.358  26.173  1.00  0.00    -0.082 Cl
ENDBRANCH   7   9
ENDBRANCH   3   7
BRANCH   1  17
HETATM   17  C2  UNL     1      -4.488 -18.534  29.359  1.00  0.00     0.047 C
HETATM   18  N1  UNL     1      -5.787 -18.894  29.311  1.00  0.00    -0.270 N
ATOM     19  H1  UNL     1      -6.420 -18.401  28.680  1.00  0.00     0.194 HD
HETATM   20  C3  UNL     1      -3.719 -19.307  30.282  1.00  0.00     0.072 C
BRANCH  18  21
HETATM   21  O1  UNL     1      -6.265 -19.888  30.079  1.00  0.00    -0.285 OA
HETATM   22  C1  UNL     1      -6.797 -21.108  29.597  1.00  0.00     0.237 C
ENDBRANCH  18  21
ENDBRANCH   1  17
BRANCH   6  23
HETATM   23  C13 UNL     1      -2.760 -18.503  26.578  1.00  0.00    -0.007 C
HETATM   24  C14 UNL     1      -2.622 -18.147  25.065  1.00  0.00     0.021 C
HETATM   25  C15 UNL     1      -1.330 -18.585  27.028  1.00  0.00     0.021 C
HETATM   26  C16 UNL     1      -3.568 -19.726  26.600  1.00  0.00     0.021 C
ENDBRANCH   6  23
TORSDOF 5
ENDMDL