MODEL 4
REMARK VINA RESULT: -7.548494875      1.570      2.081
REMARK  5 active torsions:
REMARK  status: ('A' for Active; 'I' for Inactive)
REMARK    1  A    between atoms: C2_2  and  O1_3
REMARK    2  A    between atoms: O1_3  and  C3_4
REMARK    3  A    between atoms: C3_4  and  C4_6
REMARK    4  A    between atoms: C7_10  and  O3_11
REMARK    5  A    between atoms: C12_17  and  C13_18
ROOT
HETATM    1  C4  UNL     1      -1.244 -19.784  27.353  1.00  0.00     0.092 A
HETATM    2  S1  UNL     1      -1.429 -21.123  28.388  1.00  0.00    -0.083 SA
HETATM    3  C5  UNL     1      -3.112 -21.332  28.277  1.00  0.00     0.019 A
HETATM    4  C6  UNL     1      -4.010 -22.244  28.855  1.00  0.00     0.056 A
HETATM    5  C7  UNL     1      -5.354 -22.167  28.572  1.00  0.00     0.072 A
HETATM    6  C8  UNL     1      -5.766 -21.176  27.717  1.00  0.00    -0.028 A
HETATM    7  C9  UNL     1      -7.237 -21.094  27.410  1.00  0.00     0.051 C
HETATM    8  C10 UNL     1      -4.880 -20.304  27.168  1.00  0.00     0.023 A
HETATM    9  C11 UNL     1      -3.498 -20.341  27.425  1.00  0.00    -0.006 A
HETATM   10  C12 UNL     1      -2.531 -19.525  26.936  1.00  0.00     0.013 A
ENDROOT
BRANCH  10  11
HETATM   11  C13 UNL     1      -2.803 -18.393  25.990  1.00  0.00     0.021 A
HETATM   12  C14 UNL     1      -3.168 -17.196  26.535  1.00  0.00    -0.045 A
HETATM   13  C15 UNL     1      -3.291 -17.016  27.986  1.00  0.00     0.049 C
HETATM   14  C16 UNL     1      -3.429 -16.127  25.672  1.00  0.00     0.050 A
HETATM   15  C17 UNL     1      -3.317 -16.283  24.300  1.00  0.00     0.119 A
HETATM   16  F1  UNL     1      -3.570 -15.239  23.446  1.00  0.00    -0.206 F
HETATM   17  C18 UNL     1      -2.948 -17.495  23.759  1.00  0.00     0.085 A
HETATM   18  C19 UNL     1      -2.696 -18.538  24.630  1.00  0.00     0.131 A
HETATM   19  F2  UNL     1      -2.334 -19.729  24.112  1.00  0.00    -0.205 F
ENDBRANCH  10  11
BRANCH   1  20
HETATM   20  C3  UNL     1      -0.025 -19.065  26.981  1.00  0.00     0.301 C
HETATM   21  O2  UNL     1       0.227 -17.960  27.491  1.00  0.00    -0.259 OA
BRANCH  20  22
HETATM   22  O1  UNL     1       0.829 -19.619  26.070  1.00  0.00    -0.317 OA
BRANCH  22  23
HETATM   23  C2  UNL     1       0.592 -20.803  25.371  1.00  0.00     0.174 C
HETATM   24  C1  UNL     1       0.844 -20.590  23.906  1.00  0.00     0.034 C
ENDBRANCH  22  23
ENDBRANCH  20  22
ENDBRANCH   1  20
BRANCH   5  25
HETATM   25  O3  UNL     1      -6.235 -23.066  29.144  1.00  0.00    -0.360 OA
ATOM     26  H3  UNL     1      -6.754 -22.810  29.897  1.00  0.00     0.217 HD
ENDBRANCH   5  25
TORSDOF 5
ENDMDL