MODEL 3
REMARK VINA RESULT: -9.337674672      1.449      2.425
REMARK  6 active torsions:
REMARK  status: ('A' for Active; 'I' for Inactive)
REMARK    1  A    between atoms: C2_2  and  C3_3
REMARK    2  A    between atoms: C3_3  and  O1_4
REMARK    3  A    between atoms: O1_4  and  C4_5
REMARK    4  A    between atoms: C7_8  and  O2_9
REMARK    5  A    between atoms: C14_19  and  C15_20
REMARK    6  A    between atoms: C15_20  and  C18_23
ROOT
HETATM    1  C4  UNL     1      -2.575 -18.351  26.436  1.00  0.00     0.084 A
HETATM    2  C5  UNL     1      -2.339 -19.064  25.291  1.00  0.00     0.040 A
HETATM    3  C6  UNL     1      -2.579 -18.487  24.073  1.00  0.00     0.040 A
HETATM    4  C7  UNL     1      -3.065 -17.177  23.989  1.00  0.00     0.077 A
HETATM    5  C8  UNL     1      -3.317 -16.432  25.121  1.00  0.00     0.026 A
HETATM    6  C9  UNL     1      -3.067 -17.034  26.323  1.00  0.00     0.062 A
HETATM    7  C10 UNL     1      -3.409 -16.047  27.338  1.00  0.00     0.198 A
HETATM    8  O3  UNL     1      -3.301 -16.276  28.560  1.00  0.00    -0.286 OA
HETATM    9  C11 UNL     1      -3.880 -14.814  26.665  1.00  0.00     0.041 A
HETATM   10  C12 UNL     1      -3.828 -15.038  25.347  1.00  0.00    -0.000 A
HETATM   11  C13 UNL     1      -4.246 -14.012  24.525  1.00  0.00     0.063 A
HETATM   12  S1  UNL     1      -4.689 -12.790  25.633  1.00  0.00    -0.103 SA
HETATM   13  C14 UNL     1      -4.338 -13.592  27.091  1.00  0.00     0.014 A
ENDROOT
BRANCH  13  14
HETATM   14  C15 UNL     1      -4.458 -13.020  28.472  1.00  0.00     0.085 C
HETATM   15  C16 UNL     1      -5.273 -13.849  29.401  1.00  0.00     0.030 C
HETATM   16  C17 UNL     1      -5.369 -11.743  28.257  1.00  0.00     0.030 C
BRANCH  14  17
HETATM   17  C18 UNL     1      -3.216 -12.439  29.026  1.00  0.00     0.399 C
HETATM   18  F1  UNL     1      -3.598 -11.271  29.725  1.00  0.00    -0.170 F
HETATM   19  F2  UNL     1      -2.779 -13.290  30.049  1.00  0.00    -0.170 F
HETATM   20  F3  UNL     1      -2.210 -12.128  28.187  1.00  0.00    -0.170 F
ENDBRANCH  14  17
ENDBRANCH  13  14
BRANCH   1  21
HETATM   21  O1  UNL     1      -2.369 -18.846  27.674  1.00  0.00    -0.350 OA
BRANCH  21  22
HETATM   22  C3  UNL     1      -3.116 -19.810  28.321  1.00  0.00     0.175 C
BRANCH  22  23
HETATM   23  C2  UNL     1      -4.562 -19.807  27.914  1.00  0.00     0.022 C
HETATM   24  C1  UNL     1      -5.411 -19.011  28.903  1.00  0.00     0.007 C
ENDBRANCH  22  23
ENDBRANCH  21  22
ENDBRANCH   1  21
BRANCH   4  25
HETATM   25  O2  UNL     1      -3.283 -16.662  22.734  1.00  0.00    -0.360 OA
ATOM     26  H2  UNL     1      -4.162 -16.364  22.530  1.00  0.00     0.217 HD
ENDBRANCH   4  25
TORSDOF 6
ENDMDL