MODEL 2
REMARK VINA RESULT: -9.700860273      1.204      1.704
REMARK  3 active torsions:
REMARK  status: ('A' for Active; 'I' for Inactive)
REMARK    1  A    between atoms: C5_6  and  O2_7
REMARK    2  A    between atoms: O2_7  and  C6_8
REMARK    3  A    between atoms: C14_17  and  C15_18
ROOT
HETATM    1  C6  UNL     1      -3.548 -15.704  26.340  1.00  0.00     0.095 A
HETATM    2  C7  UNL     1      -3.295 -16.443  25.212  1.00  0.00    -0.021 A
HETATM    3  C8  UNL     1      -2.769 -17.855  25.273  1.00  0.00     0.052 C
HETATM    4  C9  UNL     1      -3.545 -15.870  23.982  1.00  0.00    -0.046 A
HETATM    5  C10 UNL     1      -3.279 -16.639  22.738  1.00  0.00     0.049 C
HETATM    6  C11 UNL     1      -4.035 -14.598  23.840  1.00  0.00    -0.033 A
HETATM    7  C12 UNL     1      -4.258 -13.999  22.492  1.00  0.00     0.050 C
HETATM    8  C13 UNL     1      -4.283 -13.872  25.007  1.00  0.00     0.053 A
HETATM    9 CL1  UNL     1      -4.910 -12.248  24.733  1.00  0.00    -0.083 Cl
HETATM   10  C14 UNL     1      -4.056 -14.379  26.278  1.00  0.00     0.022 A
ENDROOT
BRANCH   1  11
HETATM   11  O2  UNL     1      -3.348 -16.185  27.561  1.00  0.00    -0.301 OA
BRANCH  11  12
HETATM   12  C5  UNL     1      -3.072 -17.228  28.295  1.00  0.00     0.174 A
HETATM   13  C4  UNL     1      -1.833 -17.738  28.549  1.00  0.00     0.211 A
HETATM   14  C3  UNL     1      -1.686 -18.857  29.362  1.00  0.00     0.090 A
HETATM   15  O1  UNL     1      -0.791 -17.251  28.083  1.00  0.00    -0.285 OA
HETATM   16  C2  UNL     1      -2.789 -19.458  29.915  1.00  0.00     0.055 A
HETATM   17  C1  UNL     1      -2.688 -20.634  30.781  1.00  0.00     0.077 C
HETATM   18  O3  UNL     1      -3.962 -18.965  29.662  1.00  0.00    -0.298 OA
HETATM   19  C18 UNL     1      -4.127 -17.922  28.909  1.00  0.00     0.195 A
HETATM   20  N1  UNL     1      -5.477 -17.462  28.708  1.00  0.00    -0.071 NA
ENDBRANCH  11  12
ENDBRANCH   1  11
BRANCH  10  21
HETATM   21  C15 UNL     1      -4.192 -13.519  27.424  1.00  0.00    -0.073 C
HETATM   22  C16 UNL     1      -3.192 -12.444  27.678  1.00  0.00     0.044 C
HETATM   23  C17 UNL     1      -5.548 -13.211  27.953  1.00  0.00     0.044 C
ENDBRANCH  10  21
TORSDOF 3
ENDMDL