MODEL 4
REMARK VINA RESULT: -8.044102115      1.734      3.105
REMARK  4 active torsions:
REMARK  status: ('A' for Active; 'I' for Inactive)
REMARK    1  A    between atoms: C2_2  and  C4_5
REMARK    2  A    between atoms: N2_8  and  C7_9
REMARK    3  A    between atoms: C7_9  and  C8_10
REMARK       I    between atoms: C8_10  and  N3_12
REMARK    4  A    between atoms: N3_12  and  C9_14
ROOT
HETATM    1  C1  UNL     1       6.163   4.802   9.608  1.00  0.00     0.026 C
HETATM    2  C2  UNL     1       6.461   5.797   8.512  1.00  0.00     0.093 C
HETATM    3  C3  UNL     1       7.928   5.827   8.359  1.00  0.00     0.064 C
HETATM    4  N1  UNL     1       9.067   5.865   8.247  1.00  0.00    -0.197 NA
ENDROOT
BRANCH   2   5
HETATM    5  C4  UNL     1       5.816   5.412   7.199  1.00  0.00     0.006 C
HETATM    6  C5  UNL     1       4.349   5.733   7.187  1.00  0.00     0.036 C
HETATM    7  C6  UNL     1       4.252   7.198   6.822  1.00  0.00     0.273 C
HETATM    8  N2  UNL     1       4.453   7.286   5.380  1.00  0.00     0.097 N
HETATM    9  C21 UNL     1       5.620   6.556   4.958  1.00  0.00     0.273 C
HETATM   10  C22 UNL     1       6.507   6.014   6.018  1.00  0.00     0.036 C
BRANCH   8  11
HETATM   11  C7  UNL     1       4.666   8.698   5.119  1.00  0.00     0.374 C
BRANCH  11  12
HETATM   12  C8  UNL     1       4.186   9.191   3.830  1.00  0.00     0.246 C
HETATM   13  O1  UNL     1       5.049   9.828   3.135  1.00  0.00    -0.272 OA
HETATM   14  N3  UNL     1       2.903   9.030   3.318  1.00  0.00    -0.350 N
ATOM     15  H3  UNL     1       2.227   8.522   3.888  1.00  0.00     0.163 HD
BRANCH  14  16
HETATM   16  C9  UNL     1       2.457   9.531   2.032  1.00  0.00     0.034 C
HETATM   17  C10 UNL     1       3.293   9.058   0.886  1.00  0.00     0.035 C
HETATM   18  C11 UNL     1       2.685   9.621  -0.385  1.00  0.00    -0.011 C
HETATM   19  C12 UNL     1       2.692  11.125  -0.364  1.00  0.00     0.014 C
HETATM   20  C18 UNL     1       1.272   9.164  -0.607  1.00  0.00     0.014 C
HETATM   21  C13 UNL     1       1.828  11.593   0.775  1.00  0.00    -0.041 C
HETATM   22  C14 UNL     1       1.921  13.116   0.892  1.00  0.00     0.015 C
HETATM   23  C15 UNL     1       0.411  11.126   0.677  1.00  0.00     0.018 C
HETATM   24  C20 UNL     1       2.404  11.023   2.067  1.00  0.00     0.040 C
HETATM   25  C16 UNL     1       0.443   9.616   0.570  1.00  0.00    -0.041 C
HETATM   26  C17 UNL     1      -0.975   9.152   0.416  1.00  0.00     0.015 C
HETATM   27  C19 UNL     1       1.037   9.017   1.804  1.00  0.00     0.040 C
ENDBRANCH  14  16
ENDBRANCH  11  12
ENDBRANCH   8  11
ENDBRANCH   2   5
TORSDOF 4
ENDMDL