MODEL 3
REMARK VINA RESULT: -6.731815469      1.169      1.395
REMARK  4 active torsions:
REMARK  status: ('A' for Active; 'I' for Inactive)
REMARK    1  A    between atoms: N1_2  and  C2_5
REMARK    2  A    between atoms: C2_5  and  C3_6
REMARK    3  A    between atoms: N2_19  and  C16_20
REMARK    4  A    between atoms: C16_20  and  C17_21
ROOT
HETATM    1  C3  UNL     1       1.835   9.421  -0.112  1.00  0.00     0.024 C
HETATM    2  C4  UNL     1       3.114   8.727   0.063  1.00  0.00    -0.001 C
HETATM    3  C5  UNL     1       2.893   8.124  -1.339  1.00  0.00     0.015 C
HETATM    4  C6  UNL     1       1.876   9.177  -1.582  1.00  0.00    -0.038 C
HETATM    5  C7  UNL     1       0.632   8.566  -2.207  1.00  0.00     0.015 C
HETATM    6  C8  UNL     1       2.298  10.361  -2.369  1.00  0.00     0.010 C
HETATM    7  C9  UNL     1       3.681  10.871  -2.191  1.00  0.00     0.002 C
HETATM    8  C10 UNL     1       3.963  11.638  -0.942  1.00  0.00     0.010 C
HETATM    9  C11 UNL     1       4.478  10.861   0.216  1.00  0.00    -0.033 C
HETATM   10  C12 UNL     1       6.021  11.000   0.194  1.00  0.00     0.012 C
HETATM   11  C13 UNL     1       6.556   9.741   0.811  1.00  0.00     0.037 C
HETATM   12  C14 UNL     1       5.340   8.961   1.238  1.00  0.00     0.228 C
HETATM   13  C15 UNL     1       4.384   9.384   0.107  1.00  0.00     0.032 C
HETATM   14  N2  UNL     1       4.866   9.327   2.523  1.00  0.00     0.093 N
HETATM   15  C22 UNL     1       4.905  10.785   2.680  1.00  0.00     0.273 C
HETATM   16  C23 UNL     1       4.107  11.400   1.568  1.00  0.00     0.040 C
ENDROOT
BRANCH  14  17
HETATM   17  C16 UNL     1       5.888   8.860   3.481  1.00  0.00     0.277 C
BRANCH  17  18
HETATM   18  C17 UNL     1       5.320   8.670   4.868  1.00  0.00     0.018 C
HETATM   19  C18 UNL     1       6.198   7.664   5.578  1.00  0.00     0.032 C
HETATM   20  C19 UNL     1       5.953   6.291   5.061  1.00  0.00     0.168 C
HETATM   21  O1  UNL     1       4.712   5.872   5.555  1.00  0.00    -0.391 OA
HETATM   22  C20 UNL     1       3.849   6.923   5.782  1.00  0.00     0.168 C
HETATM   23  C21 UNL     1       3.948   8.020   4.753  1.00  0.00     0.032 C
ENDBRANCH  17  18
ENDBRANCH  14  17
BRANCH   1  24
HETATM   24  C2  UNL     1       0.662   8.732   0.564  1.00  0.00     0.237 C
BRANCH  24  25
HETATM   25  N1  UNL     1       0.579   9.085   1.953  1.00  0.00    -0.079 N
HETATM   26  C1  UNL     1       0.479  10.499   2.169  1.00  0.00     0.267 C
ATOM     27  H12 UNL     1       1.362   8.692   2.476  1.00  0.00     0.276 HD
ATOM     28  H11 UNL     1      -0.190   8.593   2.409  1.00  0.00     0.276 HD
ENDBRANCH  24  25
ENDBRANCH   1  24
TORSDOF 4
ENDMDL