MODEL 2
REMARK VINA RESULT: -6.699423826      0.138      1.461
REMARK  5 active torsions:
REMARK  status: ('A' for Active; 'I' for Inactive)
REMARK       I    between atoms: N1_4  and  C4_5
REMARK    1  A    between atoms: C4_5  and  C5_7
REMARK    2  A    between atoms: C15_17  and  C16_18
REMARK    3  A    between atoms: C16_18  and  O2_19
REMARK    4  A    between atoms: C17_21  and  C18_22
REMARK    5  A    between atoms: C18_22  and  C19_23
ROOT
HETATM    1  C1  UNL     1       8.087   9.954   2.607  1.00  0.00     0.012 C
HETATM    2  C2  UNL     1       7.057   8.947   2.140  1.00  0.00     0.006 C
HETATM    3  C3  UNL     1       6.619   9.455   0.749  1.00  0.00     0.131 C
HETATM    4  N1  UNL     1       5.179   9.762   0.915  1.00  0.00    -0.344 N
HETATM    5  C4  UNL     1       4.148   9.617   0.004  1.00  0.00     0.229 C
HETATM    6  O1  UNL     1       2.965   9.934   0.374  1.00  0.00    -0.272 OA
HETATM    7  C15 UNL     1       5.166  10.230   2.285  1.00  0.00     0.115 C
HETATM    8  C17 UNL     1       5.781   9.012   2.927  1.00  0.00     0.020 C
ENDROOT
BRANCH   5   9
HETATM    9  C5  UNL     1       4.244   9.123  -1.392  1.00  0.00     0.042 C
HETATM   10  C6  UNL     1       4.865  10.228  -2.277  1.00  0.00     0.024 C
HETATM   11  C7  UNL     1       4.969   9.748  -3.696  1.00  0.00    -0.013 C
HETATM   12  C8  UNL     1       3.660   9.326  -4.285  1.00  0.00     0.009 C
HETATM   13  C12 UNL     1       5.911   8.563  -3.790  1.00  0.00     0.009 C
HETATM   14  C9  UNL     1       3.109   8.221  -3.373  1.00  0.00    -0.013 C
HETATM   15  C10 UNL     1       4.018   7.040  -3.370  1.00  0.00     0.009 C
HETATM   16  C14 UNL     1       2.904   8.853  -2.026  1.00  0.00     0.024 C
HETATM   17  C11 UNL     1       5.373   7.487  -2.903  1.00  0.00    -0.013 C
HETATM   18  C13 UNL     1       5.216   7.982  -1.480  1.00  0.00     0.024 C
ENDBRANCH   5   9
BRANCH   7  19
HETATM   19  C16 UNL     1       3.936  10.759   2.853  1.00  0.00     0.189 C
BRANCH  19  20
HETATM   20  O2  UNL     1       3.732  12.071   2.434  1.00  0.00    -0.399 OA
ATOM     21  H2  UNL     1       3.594  12.640   3.182  1.00  0.00     0.209 HD
ENDBRANCH  19  20
ENDBRANCH   7  19
BRANCH   8  22
HETATM   22  C18 UNL     1       5.881   9.008   4.389  1.00  0.00     0.047 C
BRANCH  22  23
HETATM   23  C19 UNL     1       5.102   7.882   4.953  1.00  0.00    -0.034 A
HETATM   24  C20 UNL     1       5.662   6.664   5.323  1.00  0.00     0.033 A
HETATM   25  C21 UNL     1       4.655   5.858   5.793  1.00  0.00     0.142 A
HETATM   26  O3  UNL     1       3.530   6.523   5.726  1.00  0.00    -0.334 OA
HETATM   27  C22 UNL     1       3.767   7.736   5.227  1.00  0.00     0.148 A
ENDBRANCH  22  23
ENDBRANCH   8  22
TORSDOF 5
ENDMDL