MODEL 4
REMARK VINA RESULT: -7.441605372      4.823      5.581
REMARK  6 active torsions:
REMARK  status: ('A' for Active; 'I' for Inactive)
REMARK    1  A    between atoms: C2_2  and  N3_21
REMARK    2  A    between atoms: N1_3  and  C3_5
REMARK    3  A    between atoms: C3_5  and  C4_6
REMARK    4  A    between atoms: C7_9  and  C8_10
REMARK    5  A    between atoms: C9_11  and  C10_12
REMARK    6  A    between atoms: C17_23  and  C18_25
ROOT
HETATM    1  C3  UNL     1       5.586  11.635   0.243  1.00  0.00     0.160 C
ENDROOT
BRANCH   1   2
HETATM    2  N1  UNL     1       4.530  12.590   0.488  1.00  0.00    -0.376 N
HETATM    3  C2  UNL     1       4.726  13.818   0.208  1.00  0.00     0.074 C
HETATM    4  C1  UNL     1       6.014  14.254  -0.359  1.00  0.00     0.089 C
ATOM      5  H1  UNL     1       3.639  12.286   0.881  1.00  0.00     0.161 HD
BRANCH   3   6
HETATM    6  N3  UNL     1       3.700  14.756   0.446  1.00  0.00    -0.333 N
HETATM    7  C17 UNL     1       2.672  14.786  -0.322  1.00  0.00     0.144 C
HETATM    8  N4  UNL     1       2.581  13.875  -1.399  1.00  0.00    -0.080 NA
ATOM      9  H3  UNL     1       3.774  15.409   1.226  1.00  0.00     0.168 HD
BRANCH   7  10
HETATM   10  C18 UNL     1       1.610  15.740  -0.094  1.00  0.00     0.073 A
HETATM   11  C19 UNL     1       1.558  16.926  -0.797  1.00  0.00     0.033 A
HETATM   12  C20 UNL     1       0.523  17.819  -0.551  1.00  0.00     0.004 A
HETATM   13  C21 UNL     1      -0.430  17.496   0.393  1.00  0.00     0.017 A
HETATM   14  C22 UNL     1      -0.359  16.309   1.082  1.00  0.00     0.088 A
HETATM   15  N5  UNL     1       0.644  15.478   0.823  1.00  0.00    -0.363 N
ATOM     16  H5  UNL     1       0.691  14.599   1.338  1.00  0.00     0.165 HD
ENDBRANCH   7  10
ENDBRANCH   3   6
ENDBRANCH   1   2
BRANCH   1  17
HETATM   17  C4  UNL     1       5.692  10.666   1.363  1.00  0.00    -0.025 A
HETATM   18  C5  UNL     1       6.909  10.142   1.740  1.00  0.00     0.013 A
HETATM   19  C6  UNL     1       6.997   9.229   2.798  1.00  0.00     0.039 A
HETATM   20  C7  UNL     1       5.849   8.857   3.463  1.00  0.00     0.086 A
HETATM   21  N2  UNL     1       4.679   9.376   3.081  1.00  0.00    -0.358 N
HETATM   22  C16 UNL     1       4.568  10.268   2.053  1.00  0.00     0.097 A
ATOM     23  H2  UNL     1       3.834   9.096   3.579  1.00  0.00     0.166 HD
BRANCH  20  24
HETATM   24  C8  UNL     1       5.961   7.914   4.552  1.00  0.00    -0.043 C
HETATM   25  C9  UNL     1       6.058   7.138   5.479  1.00  0.00    -0.060 C
BRANCH  25  26
HETATM   26  C10 UNL     1       6.173   6.234   6.596  1.00  0.00     0.018 A
HETATM   27  C11 UNL     1       7.398   5.934   7.157  1.00  0.00     0.020 A
HETATM   28  C12 UNL     1       7.531   5.071   8.226  1.00  0.00     0.001 A
HETATM   29  C13 UNL     1       6.408   4.476   8.768  1.00  0.00     0.000 A
HETATM   30  C14 UNL     1       5.170   4.763   8.221  1.00  0.00     0.001 A
HETATM   31  C15 UNL     1       5.055   5.631   7.148  1.00  0.00     0.020 A
ENDBRANCH  25  26
ENDBRANCH  20  24
ENDBRANCH   1  17
TORSDOF 6
ENDMDL