MODEL 1
REMARK VINA RESULT: -7.535893478      0.000      0.000
REMARK  6 active torsions:
REMARK  status: ('A' for Active; 'I' for Inactive)
REMARK    1  A    between atoms: C5_6  and  N2_7
REMARK       I    between atoms: N2_7  and  C6_9
REMARK    2  A    between atoms: C6_9  and  C7_11
REMARK    3  A    between atoms: N3_13  and  C9_14
REMARK    4  A    between atoms: C9_14  and  C10_15
REMARK    5  A    between atoms: C10_15  and  N4_16
REMARK    6  A    between atoms: C13_19  and  C14_20
ROOT
HETATM    1  C1  UNL     1       5.893   4.391  10.540  1.00  0.00     0.229 C
HETATM    2  N1  UNL     1       5.954   4.858   9.472  1.00  0.00    -0.428 NA
HETATM    3  C2  UNL     1       6.046   5.405   8.202  1.00  0.00     0.120 A
HETATM    4  C3  UNL     1       4.919   5.503   7.414  1.00  0.00     0.050 A
HETATM    5  C4  UNL     1       5.043   6.049   6.166  1.00  0.00     0.052 A
HETATM    6  C5  UNL     1       6.231   6.507   5.650  1.00  0.00     0.107 A
HETATM    7  N5  UNL     1       7.310   6.399   6.438  1.00  0.00    -0.349 N
ATOM      8  H5  UNL     1       8.215   6.726   6.097  1.00  0.00     0.167 HD
HETATM    9  C20 UNL     1       7.220   5.862   7.685  1.00  0.00     0.134 A
ENDROOT
BRANCH   6  10
HETATM   10  N2  UNL     1       6.292   6.996   4.502  1.00  0.00    -0.309 N
HETATM   11  C6  UNL     1       6.277   8.319   4.066  1.00  0.00     0.259 C
HETATM   12  O1  UNL     1       7.073   9.125   4.612  1.00  0.00    -0.267 OA
ATOM     13  H2  UNL     1       6.365   6.307   3.753  1.00  0.00     0.170 HD
BRANCH  11  14
HETATM   14  C7  UNL     1       5.370   8.808   3.000  1.00  0.00     0.055 A
HETATM   15  C8  UNL     1       5.739   9.133   1.739  1.00  0.00     0.108 A
HETATM   16  N3  UNL     1       4.629   9.557   1.017  1.00  0.00    -0.356 N
HETATM   17  C13 UNL     1       3.564   9.501   1.820  1.00  0.00     0.026 A
HETATM   18  C18 UNL     1       4.030   9.025   3.077  1.00  0.00    -0.021 A
HETATM   19  C19 UNL     1       3.220   8.786   4.257  1.00  0.00     0.051 C
BRANCH  16  20
HETATM   20  C9  UNL     1       4.877   9.888  -0.352  1.00  0.00     0.158 C
BRANCH  20  21
HETATM   21  C10 UNL     1       5.553   8.668  -1.009  1.00  0.00     0.291 C
BRANCH  21  22
HETATM   22  N4  UNL     1       4.796   8.132  -2.090  1.00  0.00     0.081 N
HETATM   23  C11 UNL     1       5.533   7.819  -3.272  1.00  0.00     0.309 C
HETATM   24  C12 UNL     1       3.864   7.105  -1.698  1.00  0.00     0.309 C
ENDBRANCH  21  22
ENDBRANCH  20  21
ENDBRANCH  16  20
BRANCH  17  25
HETATM   25  C14 UNL     1       2.197   9.851   1.536  1.00  0.00    -0.008 C
HETATM   26  C15 UNL     1       1.269   9.846   2.723  1.00  0.00     0.021 C
HETATM   27  C16 UNL     1       2.191  11.343   1.067  1.00  0.00     0.021 C
HETATM   28  C17 UNL     1       1.534   9.044   0.466  1.00  0.00     0.021 C
ENDBRANCH  17  25
ENDBRANCH  11  14
ENDBRANCH   6  10
TORSDOF 6
ENDMDL