MODEL 2
REMARK VINA RESULT: -6.902702608      1.277      1.401
REMARK  4 active torsions:
REMARK  status: ('A' for Active; 'I' for Inactive)
REMARK    1  A    between atoms: C2_2  and  C3_3
REMARK    2  A    between atoms: C2_2  and  N2_6
REMARK       I    between atoms: N2_6  and  C5_8
REMARK    3  A    between atoms: C5_8  and  C6_10
REMARK       I    between atoms: N3_13  and  C9_14
REMARK    4  A    between atoms: C9_14  and  C10_16
ROOT
HETATM    1  C3  UNL     1       4.357   6.638   6.885  1.00  0.00     0.148 C
HETATM    2  C4  UNL     1       3.323   7.572   6.431  1.00  0.00     0.061 C
HETATM    3  N1  UNL     1       2.486   8.300   6.065  1.00  0.00    -0.197 NA
ENDROOT
BRANCH   1   4
HETATM    4  C2  UNL     1       5.652   6.984   6.179  1.00  0.00     0.093 C
HETATM    5  C1  UNL     1       6.563   5.777   6.304  1.00  0.00     0.033 C
BRANCH   4   6
HETATM    6  N2  UNL     1       5.457   7.390   4.826  1.00  0.00    -0.356 N
HETATM    7  C5  UNL     1       6.180   8.485   4.276  1.00  0.00     0.222 C
HETATM    8  O1  UNL     1       7.001   9.096   5.002  1.00  0.00    -0.273 OA
ATOM      9  H2  UNL     1       4.787   6.888   4.243  1.00  0.00     0.162 HD
BRANCH   7  10
HETATM   10  C6  UNL     1       6.010   8.938   2.882  1.00  0.00     0.081 C
HETATM   11  C7  UNL     1       7.230   9.665   2.362  1.00  0.00     0.034 C
HETATM   12  C8  UNL     1       6.970   9.914   0.869  1.00  0.00     0.126 C
HETATM   13  N3  UNL     1       5.632  10.402   0.686  1.00  0.00    -0.352 N
HETATM   14  C9  UNL     1       4.872  10.380  -0.502  1.00  0.00     0.225 C
HETATM   15  C20 UNL     1       5.035  10.977   1.908  1.00  0.00     0.126 C
HETATM   16  O2  UNL     1       3.699  10.905  -0.443  1.00  0.00    -0.273 OA
HETATM   17  C21 UNL     1       4.778   9.825   2.839  1.00  0.00     0.034 C
BRANCH  14  18
HETATM   18  C10 UNL     1       5.314   9.801  -1.800  1.00  0.00     0.093 C
HETATM   19  C11 UNL     1       4.627   8.539  -2.184  1.00  0.00    -0.035 C
HETATM   20  C12 UNL     1       5.629   7.450  -2.542  1.00  0.00     0.015 C
HETATM   21  C13 UNL     1       3.809   7.990  -1.021  1.00  0.00     0.015 C
HETATM   22  C14 UNL     1       3.666   8.678  -3.339  1.00  0.00     0.010 C
HETATM   23  C15 UNL     1       3.082  10.051  -3.501  1.00  0.00     0.002 C
HETATM   24  C16 UNL     1       4.103  11.139  -3.574  1.00  0.00     0.010 C
HETATM   25  C17 UNL     1       5.395  10.825  -2.886  1.00  0.00    -0.035 C
HETATM   26  C18 UNL     1       5.958  12.110  -2.263  1.00  0.00     0.015 C
HETATM   27  C19 UNL     1       6.392  10.393  -3.941  1.00  0.00     0.015 C
ENDBRANCH  14  18
ENDBRANCH   7  10
ENDBRANCH   4   6
ENDBRANCH   1   4
TORSDOF 4
ENDMDL