MODEL 4
REMARK VINA RESULT: -6.089051529      2.807      5.102
REMARK  5 active torsions:
REMARK  status: ('A' for Active; 'I' for Inactive)
REMARK    1  A    between atoms: C4_4  and  N1_5
REMARK    2  A    between atoms: N1_5  and  N2_7
REMARK    3  A    between atoms: C6_9  and  C7_11
REMARK    4  A    between atoms: C7_11  and  C8_12
REMARK       I    between atoms: C8_12  and  N4_14
REMARK    5  A    between atoms: N4_14  and  C10_16
ROOT
HETATM    1  C8  UNL     1       2.044   9.409   2.762  1.00  0.00     0.226 C
HETATM    2  O1  UNL     1       1.429   9.965   3.713  1.00  0.00    -0.273 OA
HETATM    3  N4  UNL     1       1.483   9.576   1.442  1.00  0.00    -0.351 N
HETATM    4  C9  UNL     1       2.213   8.890   0.392  1.00  0.00     0.153 C
ENDROOT
BRANCH   3   5
HETATM    5  C10 UNL     1       0.279  10.356   1.222  1.00  0.00     0.096 C
HETATM    6  C11 UNL     1      -0.894   9.512   0.886  1.00  0.00     0.035 C
HETATM    7  C12 UNL     1      -1.923  10.054  -0.002  1.00  0.00    -0.045 C
HETATM    8  C13 UNL     1      -3.308  10.047   0.678  1.00  0.00     0.015 C
HETATM    9  C14 UNL     1      -2.138   9.147  -1.232  1.00  0.00     0.015 C
HETATM   10  C15 UNL     1      -1.739  11.428  -0.542  1.00  0.00     0.018 C
HETATM   11  C16 UNL     1      -0.797  12.312   0.233  1.00  0.00    -0.038 C
HETATM   12  C17 UNL     1      -0.639  13.570  -0.631  1.00  0.00     0.015 C
HETATM   13  C18 UNL     1      -1.406  12.764   1.508  1.00  0.00     0.015 C
HETATM   14  C19 UNL     1       0.498  11.550   0.370  1.00  0.00    -0.020 C
HETATM   15  C20 UNL     1       1.458  12.480   1.126  1.00  0.00     0.018 C
HETATM   16  C21 UNL     1       1.100  11.328  -0.970  1.00  0.00     0.018 C
ENDBRANCH   3   5
BRANCH   1  17
HETATM   17  C7  UNL     1       3.255   8.643   3.018  1.00  0.00     0.177 C
BRANCH  17  18
HETATM   18  C6  UNL     1       4.360   9.591   3.367  1.00  0.00     0.116 C
HETATM   19  N2  UNL     1       5.077   9.433   4.412  1.00  0.00    -0.293 N
ATOM     20  H2  UNL     1       5.810  10.124   4.575  1.00  0.00     0.187 HD
HETATM   21  N3  UNL     1       4.650  10.711   2.530  1.00  0.00    -0.086 NA
BRANCH  19  22
HETATM   22  N1  UNL     1       4.957   8.417   5.345  1.00  0.00    -0.326 N
HETATM   23  C5  UNL     1       3.767   8.214   6.144  1.00  0.00     0.171 C
BRANCH  22  24
HETATM   24  C4  UNL     1       6.084   7.497   5.540  1.00  0.00     0.106 A
HETATM   25  C2  UNL     1       5.810   6.269   6.339  1.00  0.00     0.008 A
HETATM   26  C1  UNL     1       6.948   5.839   7.263  1.00  0.00     0.012 C
HETATM   27  C3  UNL     1       5.979   6.132   4.868  1.00  0.00     0.033 A
ENDBRANCH  22  24
ENDBRANCH  19  22
ENDBRANCH  17  18
ENDBRANCH   1  17
TORSDOF 5
ENDMDL