MODEL 3
REMARK VINA RESULT: -5.403450480      1.972      5.287
REMARK  5 active torsions:
REMARK  status: ('A' for Active; 'I' for Inactive)
REMARK    1  A    between atoms: C2_2  and  C3_3
REMARK    2  A    between atoms: C3_3  and  C4_4
REMARK    3  A    between atoms: C4_4  and  C5_5
REMARK    4  A    between atoms: C8_8  and  O1_9
REMARK    5  A    between atoms: C18_22  and  O3_23
ROOT
HETATM    1  C5  UNL     1       1.472  10.284   1.132  1.00  0.00    -0.020 C
HETATM    2  C6  UNL     1       1.902  11.645   1.583  1.00  0.00     0.014 C
HETATM    3  C7  UNL     1       3.365  11.787   1.810  1.00  0.00     0.033 C
HETATM    4  C8  UNL     1       4.282  11.195   0.830  1.00  0.00     0.126 C
HETATM    5  C9  UNL     1       3.732  10.162  -0.089  1.00  0.00    -0.017 C
HETATM    6  C10 UNL     1       4.238  10.593  -1.495  1.00  0.00     0.018 C
HETATM    7  C11 UNL     1       4.359   8.789   0.052  1.00  0.00     0.018 C
HETATM    8  C12 UNL     1       2.254  10.078  -0.184  1.00  0.00     0.009 C
HETATM    9  C13 UNL     1       1.782  11.026  -1.238  1.00  0.00     0.035 C
HETATM   10  C14 UNL     1       0.331  11.011  -1.449  1.00  0.00    -0.000 C
HETATM   11  C15 UNL     1      -0.431  10.609  -0.508  1.00  0.00     0.022 C
HETATM   12  N1  UNL     1      -1.859  10.498  -0.452  1.00  0.00    -0.323 N
HETATM   13  C16 UNL     1      -2.806  10.489  -1.548  1.00  0.00     0.159 C
HETATM   14  C17 UNL     1      -2.223  10.389   0.938  1.00  0.00     0.254 C
HETATM   15  O2  UNL     1      -3.277   9.982   1.435  1.00  0.00    -0.270 OA
HETATM   16  C18 UNL     1      -0.960  10.912   1.635  1.00  0.00     0.228 C
HETATM   17  C20 UNL     1       0.049  10.149   0.816  1.00  0.00     0.041 C
HETATM   18  C21 UNL     1      -0.440   8.695   0.877  1.00  0.00     0.026 C
ENDROOT
BRANCH   1  19
HETATM   19  C4  UNL     1       1.902   9.248   2.115  1.00  0.00     0.011 C
BRANCH  19  20
HETATM   20  C3  UNL     1       1.866   9.567   3.557  1.00  0.00     0.000 C
BRANCH  20  21
HETATM   21  C2  UNL     1       2.752   8.545   4.316  1.00  0.00    -0.005 C
HETATM   22  C1  UNL     1       4.181   8.672   3.910  1.00  0.00     0.005 C
ENDBRANCH  20  21
ENDBRANCH  19  20
ENDBRANCH   1  19
BRANCH  16  23
HETATM   23  O3  UNL     1      -1.048  12.265   1.336  1.00  0.00    -0.380 OA
HETATM   24  C19 UNL     1      -1.843  13.004   2.178  1.00  0.00     0.202 C
ENDBRANCH  16  23
BRANCH   4  25
HETATM   25  O1  UNL     1       5.430  10.652   1.469  1.00  0.00    -0.395 OA
ATOM     26  H1  UNL     1       5.406   9.702   1.464  1.00  0.00     0.210 HD
ENDBRANCH   4  25
TORSDOF 5
ENDMDL