MODEL 3
REMARK VINA RESULT: -5.702670870      4.343     10.000
REMARK  4 active torsions:
REMARK  status: ('A' for Active; 'I' for Inactive)
REMARK    1  A    between atoms: C2_2  and  C4_4
REMARK    2  A    between atoms: C4_4  and  C5_5
REMARK    3  A    between atoms: C5_5  and  N1_6
REMARK       I    between atoms: N2_11  and  C10_12
REMARK    4  A    between atoms: C10_12  and  C11_14
ROOT
HETATM    1  C5  UNL     1       5.852   9.667   0.563  1.00  0.00     0.030 C
HETATM    2  C8  UNL     1       6.730  10.732  -0.019  1.00  0.00     0.050 C
HETATM    3  C9  UNL     1       7.641  11.418   0.947  1.00  0.00     0.128 C
HETATM    4  N2  UNL     1       8.237  10.605   1.937  1.00  0.00    -0.350 N
HETATM    5  C10 UNL     1       9.572  10.698   2.413  1.00  0.00     0.251 C
HETATM    6  O1  UNL     1       9.985   9.903   3.331  1.00  0.00    -0.271 OA
HETATM    7  C21 UNL     1       7.405   9.569   2.527  1.00  0.00     0.128 C
HETATM    8  C22 UNL     1       6.853   8.797   1.379  1.00  0.00     0.050 C
ENDROOT
BRANCH   5   9
HETATM    9  C11 UNL     1      10.563  11.679   1.912  1.00  0.00     0.282 C
HETATM   10  N3  UNL     1      10.754  12.696   2.919  1.00  0.00    -0.053 N
HETATM   11  C12 UNL     1      12.145  12.990   3.040  1.00  0.00     0.131 C
ATOM     12  H32 UNL     1      10.199  13.532   2.734  1.00  0.00     0.279 HD
ATOM     13  H31 UNL     1      10.336  12.438   3.813  1.00  0.00     0.279 HD
HETATM   14  C13 UNL     1      12.569  13.132   4.507  1.00  0.00     0.039 C
HETATM   15  C17 UNL     1      12.433  14.284   2.326  1.00  0.00     0.039 C
HETATM   16  C18 UNL     1      12.925  11.853   2.474  1.00  0.00     0.029 A
HETATM   17  C14 UNL     1      12.706  14.575   4.917  1.00  0.00     0.002 C
HETATM   18  C15 UNL     1      11.506  15.331   4.404  1.00  0.00     0.000 C
HETATM   19  C16 UNL     1      11.639  15.414   2.900  1.00  0.00     0.002 C
HETATM   20  C19 UNL     1      12.971  11.571   1.020  1.00  0.00     0.015 A
HETATM   21  C20 UNL     1      11.913  10.964   1.900  1.00  0.00     0.033 A
ENDBRANCH   5   9
BRANCH   1  22
HETATM   22  C4  UNL     1       5.476   8.706  -0.524  1.00  0.00     0.034 C
BRANCH  22  23
HETATM   23  C2  UNL     1       4.812   9.174  -1.734  1.00  0.00    -0.020 C
HETATM   24  C1  UNL     1       3.344   9.018  -1.862  1.00  0.00     0.009 C
HETATM   25  C3  UNL     1       5.448   8.753  -3.046  1.00  0.00     0.009 C
ENDBRANCH  22  23
ENDBRANCH   1  22
BRANCH   1  26
HETATM   26  N1  UNL     1       4.780  10.098   1.332  1.00  0.00    -0.412 N
HETATM   27  C6  UNL     1       4.293  11.404   1.310  1.00  0.00     0.143 C
HETATM   28  C7  UNL     1       3.883   9.196   1.937  1.00  0.00     0.143 C
ENDBRANCH   1  26
TORSDOF 4
ENDMDL