MODEL 1
REMARK VINA RESULT: -7.900900696      0.000      0.000
REMARK  5 active torsions:
REMARK  status: ('A' for Active; 'I' for Inactive)
REMARK    1  A    between atoms: C2_2  and  C3_4
REMARK    2  A    between atoms: C3_4  and  C4_5
REMARK    3  A    between atoms: C4_5  and  C5_6
REMARK    4  A    between atoms: C5_6  and  C6_7
REMARK    5  A    between atoms: C21_24  and  O3_25
ROOT
HETATM    1  C6  UNL     1       5.708   8.713   4.516  1.00  0.00    -0.031 C
HETATM    2  C7  UNL     1       6.920   9.125   5.349  1.00  0.00     0.016 C
HETATM    3  C8  UNL     1       4.516   9.000   5.402  1.00  0.00     0.010 C
HETATM    4  C9  UNL     1       3.216   8.816   4.720  1.00  0.00     0.003 C
HETATM    5  C10 UNL     1       3.234   8.861   3.238  1.00  0.00     0.031 C
HETATM    6  C11 UNL     1       4.337   9.681   2.619  1.00  0.00     0.039 C
HETATM    7  C12 UNL     1       3.786  11.120   2.554  1.00  0.00     0.039 C
HETATM    8  C13 UNL     1       5.629   9.680   3.365  1.00  0.00     0.091 C
HETATM    9  C14 UNL     1       6.831   9.633   2.518  1.00  0.00     0.139 C
HETATM   10  O2  UNL     1       7.893   9.230   2.919  1.00  0.00    -0.297 OA
HETATM   11  C15 UNL     1       6.713  10.105   1.128  1.00  0.00     0.131 C
HETATM   12  C16 UNL     1       5.518   9.449   0.532  1.00  0.00    -0.006 C
HETATM   13  N1  UNL     1       4.449   9.270   1.241  1.00  0.00    -0.376 N
HETATM   14  C17 UNL     1       3.374   8.625   0.541  1.00  0.00     0.134 C
HETATM   15  C18 UNL     1       3.126   9.218  -0.833  1.00  0.00    -0.005 C
HETATM   16  C19 UNL     1       2.595  10.619  -0.781  1.00  0.00     0.019 C
HETATM   17  C20 UNL     1       2.041   8.357  -1.475  1.00  0.00     0.019 C
HETATM   18  C21 UNL     1       4.354   9.129  -1.661  1.00  0.00     0.132 C
HETATM   19  C22 UNL     1       5.627   9.028  -0.875  1.00  0.00     0.085 C
ENDROOT
BRANCH   1  20
HETATM   20  C5  UNL     1       5.876   7.285   4.160  1.00  0.00     0.010 C
BRANCH  20  21
HETATM   21  C4  UNL     1       6.148   6.495   5.432  1.00  0.00     0.008 C
BRANCH  21  22
HETATM   22  C3  UNL     1       4.953   5.608   5.771  1.00  0.00     0.078 C
BRANCH  22  23
HETATM   23  C2  UNL     1       4.777   5.685   7.241  1.00  0.00     0.123 C
HETATM   24  C1  UNL     1       5.744   5.085   8.191  1.00  0.00     0.091 C
HETATM   25  O1  UNL     1       3.805   6.262   7.680  1.00  0.00    -0.298 OA
ENDBRANCH  22  23
ENDBRANCH  21  22
ENDBRANCH  20  21
ENDBRANCH   1  20
BRANCH  18  26
HETATM   26  O3  UNL     1       4.447  10.327  -2.408  1.00  0.00    -0.394 OA
ATOM     27  H3  UNL     1       4.559  10.085  -3.319  1.00  0.00     0.210 HD
ENDBRANCH  18  26
TORSDOF 5
ENDMDL