MODEL 2
REMARK VINA RESULT: -10.624804789      0.784      1.068
REMARK  8 active torsions:
REMARK  status: ('A' for Active; 'I' for Inactive)
REMARK    1  A    between atoms: C1_2  and  C2_3
REMARK    2  A    between atoms: C1_2  and  C5_9
REMARK    3  A    between atoms: C2_3  and  C3_4
REMARK    4  A    between atoms: C3_4  and  C4_5
REMARK       I    between atoms: C5_9  and  N1_11
REMARK    5  A    between atoms: C8_14  and  C9_15
REMARK       I    between atoms: C9_15  and  N2_17
REMARK       I    between atoms: N2_17  and  C10_19
REMARK    6  A    between atoms: C10_19  and  C11_21
REMARK    7  A    between atoms: C16_27  and  C17_28
REMARK       I    between atoms: C17_28  and  N3_30
REMARK    8  A    between atoms: N4_33  and  C20_34
ROOT
HETATM    1  C9  UNL     1       3.490  -3.930  -9.039  1.00  0.00     0.228 C
HETATM    2  O3  UNL     1       2.322  -3.523  -8.990  1.00  0.00    -0.273 OA
HETATM    3  N2  UNL     1       4.541  -3.173  -9.567  1.00  0.00    -0.297 N
ATOM      4  H2  UNL     1       5.454  -3.627  -9.541  1.00  0.00     0.171 HD
HETATM    5  C10 UNL     1       4.535  -1.888 -10.123  1.00  0.00     0.236 C
HETATM    6  O4  UNL     1       5.667  -1.470 -10.573  1.00  0.00    -0.272 OA
ENDROOT
BRANCH   5   7
HETATM    7  C11 UNL     1       3.337  -1.074 -10.188  1.00  0.00     0.160 C
HETATM    8  C12 UNL     1       3.579   0.380 -10.036  1.00  0.00     0.140 C
HETATM    9  O5  UNL     1       4.671   0.846 -10.029  1.00  0.00    -0.297 OA
HETATM   10  C13 UNL     1       2.375   1.232  -9.892  1.00  0.00     0.079 C
HETATM   11  C14 UNL     1       1.185   0.295  -9.906  1.00  0.00     0.008 C
HETATM   12  C15 UNL     1       1.144  -0.634 -11.081  1.00  0.00     0.015 C
HETATM   13  C16 UNL     1       2.452  -1.327 -11.389  1.00  0.00     0.098 C
BRANCH  13  14
HETATM   14  C17 UNL     1       2.994  -0.832 -12.648  1.00  0.00     0.225 C
HETATM   15  O6  UNL     1       3.101   0.402 -12.832  1.00  0.00    -0.273 OA
HETATM   16  N3  UNL     1       3.424  -1.650 -13.718  1.00  0.00    -0.349 N
HETATM   17  C18 UNL     1       3.335  -3.091 -13.566  1.00  0.00     0.145 C
HETATM   18  C27 UNL     1       3.949  -1.146 -14.965  1.00  0.00     0.145 C
HETATM   19  C19 UNL     1       4.546  -3.797 -14.091  1.00  0.00     0.143 C
HETATM   20  N4  UNL     1       5.066  -3.226 -15.320  1.00  0.00    -0.378 N
HETATM   21  C26 UNL     1       5.296  -1.786 -15.268  1.00  0.00     0.143 C
BRANCH  20  22
HETATM   22  C20 UNL     1       5.328  -3.943 -16.491  1.00  0.00     0.030 A
HETATM   23  C21 UNL     1       5.260  -3.361 -17.735  1.00  0.00     0.029 A
HETATM   24  C22 UNL     1       5.503  -4.075 -18.915  1.00  0.00     0.002 A
HETATM   25  C23 UNL     1       5.824  -5.411 -18.829  1.00  0.00     0.000 A
HETATM   26  C24 UNL     1       5.900  -6.022 -17.601  1.00  0.00     0.002 A
HETATM   27  C25 UNL     1       5.651  -5.277 -16.451  1.00  0.00     0.029 A
ENDBRANCH  20  22
ENDBRANCH  13  14
ENDBRANCH   5   7
BRANCH   1  28
HETATM   28  C8  UNL     1       3.731  -5.311  -8.491  1.00  0.00     0.081 C
HETATM   29  C7  UNL     1       2.753  -6.241  -9.196  1.00  0.00     0.034 C
HETATM   30  C6  UNL     1       2.838  -7.583  -8.470  1.00  0.00     0.127 C
HETATM   31  N1  UNL     1       4.211  -8.011  -8.506  1.00  0.00    -0.346 N
HETATM   32  C5  UNL     1       4.626  -9.164  -7.821  1.00  0.00     0.289 C
HETATM   33  C29 UNL     1       5.153  -7.200  -9.288  1.00  0.00     0.127 C
HETATM   34  O2  UNL     1       5.848  -9.472  -7.888  1.00  0.00    -0.264 OA
HETATM   35  C28 UNL     1       5.129  -5.778  -8.752  1.00  0.00     0.034 C
BRANCH  32  36
HETATM   36  C1  UNL     1       3.712  -9.978  -7.066  1.00  0.00     0.216 C
HETATM   37  O1  UNL     1       3.662  -9.928  -5.827  1.00  0.00    -0.287 OA
BRANCH  36  38
HETATM   38  C2  UNL     1       2.809 -10.895  -7.785  1.00  0.00     0.098 C
BRANCH  38  39
HETATM   39  C3  UNL     1       1.376 -10.697  -7.414  1.00  0.00     0.125 C
BRANCH  39  40
HETATM   40  C4  UNL     1       0.800 -11.917  -6.771  1.00  0.00     0.388 C
HETATM   41  F1  UNL     1      -0.570 -11.788  -6.683  1.00  0.00    -0.171 F
HETATM   42  F2  UNL     1       1.267 -11.994  -5.445  1.00  0.00    -0.171 F
HETATM   43  F3  UNL     1       1.147 -13.031  -7.465  1.00  0.00    -0.171 F
ENDBRANCH  39  40
ENDBRANCH  38  39
ENDBRANCH  36  38
ENDBRANCH  32  36
ENDBRANCH   1  28
TORSDOF 8
ENDMDL