MODEL 5
REMARK VINA RESULT: -8.588800426      7.601     11.734
REMARK  9 active torsions:
REMARK  status: ('A' for Active; 'I' for Inactive)
REMARK       I    between atoms: N1_2  and  C3_4
REMARK    1  A    between atoms: C3_4  and  C4_6
REMARK    2  A    between atoms: C8_10  and  C9_11
REMARK    3  A    between atoms: C8_10  and  C16_20
REMARK    4  A    between atoms: C9_11  and  O2_12
REMARK    5  A    between atoms: O2_12  and  C10_13
REMARK       I    between atoms: C16_20  and  N2_22
REMARK    6  A    between atoms: N2_22  and  S1_24
REMARK    7  A    between atoms: S1_24  and  C17_27
REMARK    8  A    between atoms: C17_27  and  C18_28
REMARK    9  A    between atoms: C21_31  and  C22_32
ROOT
HETATM    1  C16 UNL     1       2.761  -6.048  -8.803  1.00  0.00     0.242 C
HETATM    2  O3  UNL     1       3.257  -6.021  -7.670  1.00  0.00    -0.272 OA
HETATM    3  N2  UNL     1       1.950  -7.135  -9.209  1.00  0.00    -0.253 N
ATOM      4  H2  UNL     1       1.585  -7.046 -10.158  1.00  0.00     0.181 HD
ENDROOT
BRANCH   1   5
HETATM    5  C8  UNL     1       2.973  -4.950  -9.805  1.00  0.00     0.076 C
HETATM    6  C4  UNL     1       2.546  -3.629  -9.498  1.00  0.00     0.098 C
HETATM    7  C5  UNL     1       1.031  -3.693  -9.231  1.00  0.00     0.015 C
HETATM    8  C6  UNL     1       0.598  -5.014  -9.826  1.00  0.00     0.002 C
HETATM    9  C7  UNL     1       1.676  -5.275 -10.810  1.00  0.00     0.022 C
BRANCH   6  10
HETATM   10  C3  UNL     1       3.133  -3.042  -8.248  1.00  0.00     0.224 C
HETATM   11  N1  UNL     1       4.326  -2.310  -8.293  1.00  0.00    -0.360 N
HETATM   12  C1  UNL     1       5.175  -2.117  -9.460  1.00  0.00     0.152 C
HETATM   13  C2  UNL     1       4.781  -1.611  -7.069  1.00  0.00     0.152 C
HETATM   14  O1  UNL     1       2.550  -3.197  -7.161  1.00  0.00    -0.273 OA
ENDBRANCH   6  10
BRANCH   5  15
HETATM   15  C9  UNL     1       4.026  -5.288 -10.836  1.00  0.00     0.196 C
BRANCH  15  16
HETATM   16  O2  UNL     1       3.609  -4.991 -12.105  1.00  0.00    -0.350 OA
BRANCH  16  17
HETATM   17  C10 UNL     1       4.112  -4.317 -13.148  1.00  0.00     0.068 A
HETATM   18  C11 UNL     1       3.867  -2.998 -13.414  1.00  0.00     0.038 A
HETATM   19  C12 UNL     1       4.444  -2.343 -14.512  1.00  0.00     0.026 A
HETATM   20  C13 UNL     1       5.282  -3.030 -15.357  1.00  0.00     0.034 A
HETATM   21 CL1  UNL     1       6.030  -2.228 -16.719  1.00  0.00    -0.084 Cl
HETATM   22  C14 UNL     1       5.550  -4.361 -15.126  1.00  0.00     0.026 A
HETATM   23  C15 UNL     1       4.978  -4.962 -14.058  1.00  0.00     0.038 A
ENDBRANCH  16  17
ENDBRANCH  15  16
ENDBRANCH   5  15
ENDBRANCH   1   5
BRANCH   3  24
HETATM   24  S1  UNL     1       1.478  -8.525  -8.440  1.00  0.00     0.248 S
HETATM   25  O4  UNL     1       1.319  -8.201  -6.914  1.00  0.00    -0.204 OA
HETATM   26  O5  UNL     1      -0.007  -8.780  -8.823  1.00  0.00    -0.204 OA
BRANCH  24  27
HETATM   27  C17 UNL     1       2.285 -10.033  -8.564  1.00  0.00     0.133 C
HETATM   28  C25 UNL     1       3.792 -10.050  -8.634  1.00  0.00     0.060 C
HETATM   29  C26 UNL     1       3.983 -11.527  -8.985  1.00  0.00     0.169 C
HETATM   30  O6  UNL     1       2.852 -11.941  -9.629  1.00  0.00    -0.389 OA
HETATM   31  C27 UNL     1       1.945 -10.893  -9.730  1.00  0.00     0.200 C
BRANCH  27  32
HETATM   32  C18 UNL     1       2.032 -10.749  -7.230  1.00  0.00    -0.031 A
HETATM   33  C19 UNL     1       2.857 -10.504  -6.189  1.00  0.00     0.010 A
HETATM   34  C20 UNL     1       2.594 -11.026  -4.930  1.00  0.00     0.017 A
HETATM   35  C21 UNL     1       1.471 -11.804  -4.770  1.00  0.00     0.047 A
HETATM   36  C23 UNL     1       0.630 -12.064  -5.818  1.00  0.00     0.017 A
HETATM   37  C24 UNL     1       0.918 -11.533  -7.059  1.00  0.00     0.010 A
BRANCH  35  38
HETATM   38  C22 UNL     1       1.151 -12.308  -3.399  1.00  0.00     0.417 C
HETATM   39  F1  UNL     1       2.248 -12.553  -2.642  1.00  0.00    -0.166 F
HETATM   40  F2  UNL     1       0.380 -13.464  -3.618  1.00  0.00    -0.166 F
HETATM   41  F3  UNL     1       0.328 -11.406  -2.735  1.00  0.00    -0.166 F
ENDBRANCH  35  38
ENDBRANCH  27  32
ENDBRANCH  24  27
ENDBRANCH   3  24
TORSDOF 9
ENDMDL