MODEL 2
REMARK VINA RESULT: -8.132899322      1.566      2.074
REMARK  10 active torsions:
REMARK  status: ('A' for Active; 'I' for Inactive)
REMARK    1  A    between atoms: N1_4  and  C4_5
REMARK    2  A    between atoms: C4_5  and  C5_6
REMARK    3  A    between atoms: C8_9  and  O1_10
REMARK    4  A    between atoms: O1_10  and  C9_11
REMARK    5  A    between atoms: C12_17  and  C13_18
REMARK       I    between atoms: C13_18  and  N2_20
REMARK    6  A    between atoms: C17_25  and  C18_26
REMARK       I    between atoms: C18_26  and  N3_28
REMARK    7  A    between atoms: N3_28  and  C19_30
REMARK    8  A    between atoms: N4_35  and  C24_36
REMARK    9  A    between atoms: C24_36  and  O4_37
REMARK   10  A    between atoms: C24_36  and  C25_39
ROOT
HETATM    1  C1  UNL     1       1.989   0.947 -13.218  1.00  0.00     0.034 C
HETATM    2  C2  UNL     1       2.443  -0.258 -12.511  1.00  0.00     0.099 C
HETATM    3  C3  UNL     1       3.970  -0.396 -12.502  1.00  0.00     0.143 C
HETATM    4  N1  UNL     1       4.306  -1.700 -12.177  1.00  0.00    -0.393 N
HETATM    5  C12 UNL     1       3.535  -2.509 -11.336  1.00  0.00     0.190 C
HETATM    6  C23 UNL     1       2.286  -1.917 -10.779  1.00  0.00     0.160 C
HETATM    7  N4  UNL     1       2.078  -0.491 -11.164  1.00  0.00    -0.357 N
ENDROOT
BRANCH   5   8
HETATM    8  C13 UNL     1       4.327  -3.031 -10.157  1.00  0.00     0.244 C
HETATM    9  O2  UNL     1       5.016  -2.196  -9.488  1.00  0.00    -0.271 OA
HETATM   10  N2  UNL     1       4.340  -4.394  -9.769  1.00  0.00    -0.334 N
HETATM   11  C14 UNL     1       5.098  -4.874  -8.627  1.00  0.00     0.164 C
HETATM   12  C17 UNL     1       3.719  -5.553 -10.350  1.00  0.00     0.182 C
HETATM   13  C15 UNL     1       5.410  -6.322  -8.960  1.00  0.00     0.190 C
HETATM   14  F4  UNL     1       6.754  -6.521  -8.886  1.00  0.00    -0.248 F
HETATM   15  C16 UNL     1       4.909  -6.510 -10.394  1.00  0.00     0.074 C
BRANCH  12  16
HETATM   16  C18 UNL     1       2.641  -6.054  -9.524  1.00  0.00     0.241 C
HETATM   17  O3  UNL     1       1.646  -5.360  -9.237  1.00  0.00    -0.271 OA
HETATM   18  N3  UNL     1       2.691  -7.376  -9.007  1.00  0.00    -0.351 N
ATOM     19  H3  UNL     1       3.499  -7.956  -9.233  1.00  0.00     0.163 HD
BRANCH  18  20
HETATM   20  C19 UNL     1       1.646  -7.942  -8.172  1.00  0.00     0.022 C
HETATM   21  C20 UNL     1       1.166  -6.981  -7.118  1.00  0.00     0.037 C
HETATM   22  C21 UNL     1       0.466  -8.440  -8.975  1.00  0.00     0.037 C
HETATM   23  C22 UNL     1       2.207  -9.155  -7.416  1.00  0.00     0.037 C
ENDBRANCH  18  20
ENDBRANCH  12  16
ENDBRANCH   5   8
BRANCH   4  24
HETATM   24  C4  UNL     1       5.524  -2.251 -12.635  1.00  0.00     0.156 C
BRANCH  24  25
HETATM   25  C5  UNL     1       5.361  -2.955 -13.932  1.00  0.00    -0.041 A
HETATM   26  C6  UNL     1       5.495  -2.338 -15.134  1.00  0.00     0.011 A
HETATM   27  C7  UNL     1       5.345  -3.007 -16.337  1.00  0.00     0.037 A
HETATM   28  C8  UNL     1       5.046  -4.357 -16.367  1.00  0.00     0.078 A
HETATM   29  C10 UNL     1       4.906  -5.006 -15.140  1.00  0.00     0.037 A
HETATM   30  C11 UNL     1       5.059  -4.322 -13.955  1.00  0.00     0.011 A
BRANCH  28  31
HETATM   31  O1  UNL     1       4.895  -5.036 -17.552  1.00  0.00    -0.255 OA
BRANCH  31  32
HETATM   32  C9  UNL     1       5.783  -6.017 -18.038  1.00  0.00     0.530 C
HETATM   33  F1  UNL     1       6.235  -5.628 -19.288  1.00  0.00    -0.144 F
HETATM   34  F2  UNL     1       6.894  -6.192 -17.235  1.00  0.00    -0.144 F
HETATM   35  F3  UNL     1       5.144  -7.244 -18.211  1.00  0.00    -0.144 F
ENDBRANCH  31  32
ENDBRANCH  28  31
ENDBRANCH  24  25
ENDBRANCH   4  24
BRANCH   7  36
HETATM   36  C24 UNL     1       1.577   0.357 -10.182  1.00  0.00     0.118 C
BRANCH  36  37
HETATM   37  O4  UNL     1       0.286   0.516 -10.207  1.00  0.00    -0.349 OA
ATOM     38  H4  UNL     1      -0.060   1.065  -9.513  1.00  0.00     0.219 HD
ENDBRANCH  36  37
BRANCH  36  39
HETATM   39  C25 UNL     1       2.237   1.109  -9.123  1.00  0.00     0.064 C
HETATM   40  C26 UNL     1       1.909   2.621  -9.239  1.00  0.00     0.039 C
HETATM   41  C27 UNL     1       2.877   3.314 -10.150  1.00  0.00     0.168 C
HETATM   42  O5  UNL     1       4.145   3.396  -9.575  1.00  0.00    -0.391 OA
HETATM   43  C28 UNL     1       4.413   2.285  -8.779  1.00  0.00     0.168 C
HETATM   44  C29 UNL     1       3.749   1.081  -9.421  1.00  0.00     0.039 C
ENDBRANCH  36  39
ENDBRANCH   7  36
TORSDOF 10
ENDMDL