MODEL 4
REMARK VINA RESULT: -9.381717685      4.783     11.697
REMARK  12 active torsions:
REMARK  status: ('A' for Active; 'I' for Inactive)
REMARK    1  A    between atoms: C2_2  and  C3_4
REMARK    2  A    between atoms: C2_2  and  C30_44
REMARK    3  A    between atoms: C3_4  and  N1_5
REMARK    4  A    between atoms: C6_8  and  N2_9
REMARK    5  A    between atoms: C6_8  and  C14_19
REMARK       I    between atoms: N2_9  and  C7_11
REMARK    6  A    between atoms: C7_11  and  C8_13
REMARK    7  A    between atoms: C14_19  and  O2_20
REMARK    8  A    between atoms: C14_19  and  N3_22
REMARK    9  A    between atoms: N4_25  and  C17_26
REMARK   10  A    between atoms: C17_26  and  O3_27
REMARK   11  A    between atoms: C17_26  and  C18_29
REMARK   12  A    between atoms: C21_32  and  N5_33
ROOT
HETATM    1  C14 UNL     1       3.715  -5.073 -11.647  1.00  0.00     0.144 C
ENDROOT
BRANCH   1   2
HETATM    2  C6  UNL     1       4.282  -3.892 -12.299  1.00  0.00     0.125 C
HETATM    3  C5  UNL     1       5.221  -3.195 -11.316  1.00  0.00     0.072 C
HETATM    4  C4  UNL     1       4.900  -1.752 -11.394  1.00  0.00     0.275 C
HETATM    5  N1  UNL     1       4.109  -1.547 -12.614  1.00  0.00     0.095 N
HETATM    6  C29 UNL     1       3.384  -2.817 -12.747  1.00  0.00     0.312 C
BRANCH   5   7
HETATM    7  C3  UNL     1       3.290  -0.408 -12.372  1.00  0.00     0.324 C
BRANCH   7   8
HETATM    8  C2  UNL     1       3.315   0.655 -13.403  1.00  0.00     0.222 C
HETATM    9  C1  UNL     1       2.267   1.691 -13.264  1.00  0.00     0.063 C
HETATM   10  F1  UNL     1       3.205   0.002 -14.652  1.00  0.00    -0.232 F
BRANCH   8  11
HETATM   11  C30 UNL     1       4.691   1.330 -13.475  1.00  0.00     0.424 C
HETATM   12  F2  UNL     1       5.562   0.610 -14.244  1.00  0.00    -0.167 F
HETATM   13  F3  UNL     1       5.219   1.438 -12.191  1.00  0.00    -0.167 F
HETATM   14  F4  UNL     1       4.512   2.564 -14.057  1.00  0.00    -0.167 F
ENDBRANCH   8  11
ENDBRANCH   7   8
ENDBRANCH   5   7
BRANCH   2  15
HETATM   15  N2  UNL     1       5.163  -4.386 -13.352  1.00  0.00    -0.342 N
HETATM   16  C7  UNL     1       5.055  -4.318 -14.730  1.00  0.00     0.222 C
HETATM   17  O1  UNL     1       4.119  -3.774 -15.324  1.00  0.00    -0.273 OA
ATOM     18  H2  UNL     1       5.999  -4.863 -13.016  1.00  0.00     0.163 HD
BRANCH  16  19
HETATM   19  C8  UNL     1       6.099  -4.918 -15.644  1.00  0.00     0.078 C
HETATM   20  C9  UNL     1       5.681  -4.903 -17.071  1.00  0.00     0.014 C
HETATM   21  C10 UNL     1       5.790  -6.296 -17.690  1.00  0.00     0.001 C
HETATM   22  C11 UNL     1       5.011  -7.230 -16.763  1.00  0.00     0.000 C
HETATM   23  C12 UNL     1       5.763  -7.410 -15.488  1.00  0.00     0.001 C
HETATM   24  C13 UNL     1       6.603  -6.208 -15.114  1.00  0.00     0.014 C
ENDBRANCH  16  19
ENDBRANCH   2  15
ENDBRANCH   1   2
BRANCH   1  25
HETATM   25  O2  UNL     1       2.429  -5.240 -11.956  1.00  0.00    -0.347 OA
ATOM     26  H2  UNL     1       2.200  -6.159 -12.029  1.00  0.00     0.219 HD
ENDBRANCH   1  25
BRANCH   1  27
HETATM   27  N3  UNL     1       4.177  -6.047 -10.801  1.00  0.00    -0.360 N
HETATM   28  C15 UNL     1       3.729  -6.044  -9.360  1.00  0.00     0.144 C
HETATM   29  C16 UNL     1       3.191  -7.433  -9.108  1.00  0.00     0.145 C
HETATM   30  N4  UNL     1       4.454  -8.243  -8.966  1.00  0.00    -0.358 N
HETATM   31  C27 UNL     1       5.476  -7.999  -9.933  1.00  0.00     0.145 C
HETATM   32  C28 UNL     1       5.080  -7.094 -11.095  1.00  0.00     0.144 C
BRANCH  30  33
HETATM   33  C17 UNL     1       4.443  -9.147  -7.899  1.00  0.00     0.148 C
BRANCH  33  34
HETATM   34  O3  UNL     1       5.604  -9.314  -7.308  1.00  0.00    -0.346 OA
ATOM     35  H3  UNL     1       5.618  -9.085  -6.386  1.00  0.00     0.219 HD
ENDBRANCH  33  34
BRANCH  33  36
HETATM   36  C18 UNL     1       3.354  -9.914  -7.362  1.00  0.00     0.015 A
HETATM   37  C19 UNL     1       2.661 -10.915  -8.007  1.00  0.00     0.018 A
HETATM   38  C20 UNL     1       1.602 -11.573  -7.358  1.00  0.00     0.032 A
HETATM   39  C21 UNL     1       1.228 -11.246  -6.082  1.00  0.00     0.056 A
HETATM   40  C25 UNL     1       1.913 -10.249  -5.430  1.00  0.00     0.032 A
HETATM   41  C26 UNL     1       2.948  -9.596  -6.048  1.00  0.00     0.018 A
BRANCH  39  42
HETATM   42  N5  UNL     1       0.176 -11.913  -5.416  1.00  0.00    -0.268 N
HETATM   43  C22 UNL     1       0.237 -13.066  -4.762  1.00  0.00     0.118 A
HETATM   44  C23 UNL     1      -1.016 -13.357  -4.256  1.00  0.00     0.038 A
HETATM   45  C24 UNL     1      -1.827 -12.308  -4.647  1.00  0.00     0.109 A
HETATM   46  N6  UNL     1      -1.077 -11.445  -5.351  1.00  0.00    -0.305 N
ATOM     47  H6  UNL     1      -1.407 -10.575  -5.769  1.00  0.00     0.186 HD
ENDBRANCH  39  42
ENDBRANCH  33  36
ENDBRANCH  30  33
ENDBRANCH   1  27
TORSDOF 12
ENDMDL