MODEL 4
REMARK VINA RESULT: -8.947403313      1.324      1.856
REMARK  8 active torsions:
REMARK  status: ('A' for Active; 'I' for Inactive)
REMARK    1  A    between atoms: C2_2  and  C4_4
REMARK    2  A    between atoms: N1_6  and  S1_7
REMARK    3  A    between atoms: C8_12  and  C9_13
REMARK    4  A    between atoms: C12_16  and  C13_17
REMARK       I    between atoms: C13_17  and  N2_19
REMARK    5  A    between atoms: N2_19  and  S2_21
REMARK    6  A    between atoms: S2_21  and  C14_24
REMARK    7  A    between atoms: C17_27  and  C18_28
REMARK    8  A    between atoms: C21_32  and  C22_33
ROOT
HETATM    1  C9  UNL     1       5.284  -4.408 -14.385  1.00  0.00    -0.052 A
HETATM    2  C10 UNL     1       5.235  -5.646 -13.788  1.00  0.00     0.009 A
HETATM    3  C11 UNL     1       4.729  -5.718 -12.536  1.00  0.00     0.018 A
HETATM    4  C12 UNL     1       4.258  -4.577 -11.844  1.00  0.00     0.044 A
HETATM    5  C17 UNL     1       4.298  -3.344 -12.411  1.00  0.00     0.028 A
HETATM    6  C25 UNL     1       4.829  -3.298 -13.712  1.00  0.00     0.021 A
ENDROOT
BRANCH   1   7
HETATM    7  C8  UNL     1       5.828  -4.279 -15.761  1.00  0.00     0.038 C
HETATM    8  C4  UNL     1       5.108  -5.058 -16.795  1.00  0.00     0.013 C
HETATM    9  C5  UNL     1       4.629  -3.981 -17.781  1.00  0.00     0.113 C
HETATM   10  N1  UNL     1       5.646  -2.991 -17.634  1.00  0.00    -0.210 NA
HETATM   11  C7  UNL     1       5.840  -2.828 -16.213  1.00  0.00     0.117 C
BRANCH   8  12
HETATM   12  C2  UNL     1       5.956  -6.023 -17.584  1.00  0.00    -0.017 C
HETATM   13  C1  UNL     1       5.303  -7.397 -17.434  1.00  0.00     0.010 C
HETATM   14  C3  UNL     1       5.994  -5.710 -19.052  1.00  0.00     0.010 C
ENDBRANCH   8  12
BRANCH  10  15
HETATM   15  S1  UNL     1       5.391  -1.535 -18.468  1.00  0.00     0.207 S
HETATM   16  C6  UNL     1       5.183  -0.227 -17.278  1.00  0.00     0.180 C
HETATM   17  O1  UNL     1       4.090  -1.664 -19.234  1.00  0.00    -0.212 OA
HETATM   18  O2  UNL     1       6.471  -1.185 -19.439  1.00  0.00    -0.212 OA
ENDBRANCH  10  15
ENDBRANCH   1   7
BRANCH   5  19
HETATM   19  C18 UNL     1       3.914  -2.097 -11.769  1.00  0.00     0.326 C
HETATM   20  F1  UNL     1       4.910  -1.860 -10.786  1.00  0.00    -0.203 F
HETATM   21  C19 UNL     1       2.627  -1.977 -11.065  1.00  0.00     0.083 C
HETATM   22  C20 UNL     1       2.225  -0.529 -10.803  1.00  0.00     0.020 C
HETATM   23  C21 UNL     1       3.389   0.391 -10.765  1.00  0.00     0.122 C
HETATM   24  C23 UNL     1       4.360   0.194 -11.880  1.00  0.00     0.290 C
HETATM   25  N3  UNL     1       4.095  -0.962 -12.682  1.00  0.00     0.129 N
HETATM   26  C24 UNL     1       3.008  -0.727 -13.563  1.00  0.00     0.314 C
BRANCH  23  27
HETATM   27  C22 UNL     1       2.914   1.803 -10.559  1.00  0.00     0.393 C
HETATM   28  F2  UNL     1       3.926   2.587  -9.984  1.00  0.00    -0.171 F
HETATM   29  F3  UNL     1       1.850   1.927  -9.695  1.00  0.00    -0.171 F
HETATM   30  F4  UNL     1       2.538   2.417 -11.738  1.00  0.00    -0.171 F
ENDBRANCH  23  27
ENDBRANCH   5  19
BRANCH   4  31
HETATM   31  C13 UNL     1       3.712  -4.907 -10.552  1.00  0.00     0.265 C
HETATM   32  O3  UNL     1       4.335  -4.567  -9.530  1.00  0.00    -0.267 OA
HETATM   33  N2  UNL     1       2.508  -5.609 -10.443  1.00  0.00    -0.250 N
ATOM     34  H2  UNL     1       2.029  -5.869 -11.306  1.00  0.00     0.181 HD
BRANCH  33  35
HETATM   35  S2  UNL     1       1.778  -6.066  -8.953  1.00  0.00     0.237 S
HETATM   36  O4  UNL     1       1.591  -4.795  -8.157  1.00  0.00    -0.205 OA
HETATM   37  O5  UNL     1       0.463  -6.734  -9.224  1.00  0.00    -0.205 OA
BRANCH  35  38
HETATM   38  C14 UNL     1       2.835  -7.135  -8.029  1.00  0.00     0.130 A
HETATM   39  C15 UNL     1       2.612  -8.617  -8.369  1.00  0.00     0.023 A
HETATM   40  C16 UNL     1       3.894  -7.936  -8.754  1.00  0.00     0.023 A
ENDBRANCH  35  38
ENDBRANCH  33  35
ENDBRANCH   4  31
TORSDOF 8
ENDMDL